@<TRIPOS>MOLECULE
3R540
247   249    1
SMALL
USER_CHARGES


@<TRIPOS>ATOM
      1 CA         -5.3017  -11.1061  -47.3049 C.3       0 UNK        -0.1800 
      2 C          -4.4037  -12.3305  -47.2140 C.2       0 UNK         0.5000 
      3 O          -3.1991  -12.1899  -47.0062 O.2       0 UNK        -0.5000 
      4 N          -4.9845  -13.5302  -47.3486 N.am      1 UNK        -0.5000 
      5 CA         -4.2926  -14.8270  -47.3333 C.3       1 UNK         0.1400 
      6 C6         -5.2734  -16.0036  -47.5420 C.3       23 UNK        -0.0398 
      7 S7         -6.0472  -15.9938  -49.1931 S.3       23 UNK        -0.2404 
      8 C8         -5.2786  -17.4555  -49.9614 C.3       23 UNK        -0.0205 
      9 C9         -3.8865  -17.1585  -50.5000 C.ar      23 UNK        -0.0193 
     10 C10        -3.7219  -16.7764  -51.8337 C.ar      23 UNK        -0.1150 
     11 C11        -2.4457  -16.5537  -52.3626 C.ar      23 UNK        -0.0193 
     12 C12        -1.3316  -16.6991  -51.5296 C.ar      23 UNK        -0.1150 
     13 C13        -1.4788  -17.0581  -50.1859 C.ar      23 UNK        -0.0193 
     14 C14        -2.7626  -17.2877  -49.6795 C.ar      23 UNK        -0.1150 
     15 C15        -0.2487  -17.1476  -49.2882 C.3       23 UNK        -0.0205 
     16 S16         0.0423  -18.8191  -48.6173 S.3       23 UNK        -0.2404 
     17 C17        -0.9138  -18.7550  -47.0700 C.3       23 UNK        -0.0398 
     18 CA         -1.8993  -19.9330  -46.9221 C.3       11 UNK         0.1400 
     19 N          -1.2157  -21.1112  -46.3843 N.am      11 UNK        -0.5000 
     20 C          -1.7743  -22.2967  -46.1103 C.2       10 UNK         0.5000 
     21 O          -2.9481  -22.5774  -46.3454 O.2       10 UNK        -0.5000 
     22 CA         -0.8779  -23.3027  -45.3649 C.3       10 UNK         0.1400 
     23 CB         -0.0019  -24.0896  -46.3489 C.3       10 UNK        -0.1800 
     24 N          -0.0253  -22.6652  -44.3543 N.am      10 UNK        -0.5000 
     25 C          -0.4759  -21.9883  -43.2873 C.2       9 UNK         0.5000 
     26 O          -1.6745  -21.8071  -43.0695 O.2       9 UNK        -0.5000 
     27 CA          0.5611  -21.3580  -42.3319 C.3       9 UNK         0.1400 
     28 CB          0.1969  -21.5961  -40.8527 C.3       9 UNK        -0.1800 
     29 N           1.9631  -21.7146  -42.5886 N.am      9 UNK        -0.5000 
     30 C           2.5474  -22.9188  -42.4722 C.2       8 UNK         0.5000 
     31 O           1.9387  -23.9543  -42.2037 O.2       8 UNK        -0.5000 
     32 CA          4.0724  -22.9852  -42.7061 C.3       8 UNK         0.1400 
     33 CB          4.3693  -23.4467  -44.1417 C.3       8 UNK        -0.1800 
     34 N           4.7574  -21.7121  -42.4692 N.am      8 UNK        -0.5000 
     35 C           4.8720  -21.1052  -41.2789 C.2       7 UNK         0.5000 
     36 O           4.5102  -21.6160  -40.2183 O.2       7 UNK        -0.5000 
     37 CA          5.4670  -19.6792  -41.2653 C.3       7 UNK         0.1400 
     38 CB          6.9131  -19.7087  -40.7462 C.3       7 UNK        -0.1800 
     39 N           5.4434  -18.9733  -42.5544 N.am      7 UNK        -0.5000 
     40 C           4.3510  -18.6900  -43.2770 C.2       6 UNK         0.5000 
     41 O           3.2143  -19.0614  -42.9690 O.2       6 UNK        -0.5000 
     42 CA          4.5851  -17.9162  -44.5891 C.3       6 UNK         0.1400 
     43 CB          5.3132  -18.8008  -45.6155 C.3       6 UNK        -0.1800 
     44 N           3.3095  -17.5017  -45.1659 N.am      6 UNK        -0.5000 
     45 C           2.6367  -16.3940  -44.8362 C.2       5 UNK         0.5000 
     46 O           3.0878  -15.4845  -44.1360 O.2       5 UNK        -0.5000 
     47 CA          1.1795  -16.3537  -45.3256 C.3       5 UNK         0.1400 
     48 CB          0.2433  -16.8788  -44.2224 C.3       5 UNK        -0.1800 
     49 N           0.7190  -15.0403  -45.7648 N.am      5 UNK        -0.5000 
     50 C           1.2181  -14.3468  -46.7965 C.2       4 UNK         0.5000 
     51 O           2.1864  -14.7155  -47.4625 O.2       4 UNK        -0.5000 
     52 CA          0.4875  -13.0476  -47.1940 C.3       4 UNK         0.1400 
     53 CB         -0.3022  -13.2616  -48.4963 C.3       4 UNK        -0.1800 
     54 N          -0.4373  -12.5546  -46.1730 N.am      4 UNK        -0.5000 
     55 C          -0.0830  -11.9551  -45.0287 C.2       3 UNK         0.5000 
     56 O           1.0818  -11.7117  -44.7135 O.2       3 UNK        -0.5000 
     57 CA         -1.2275  -11.5917  -44.0664 C.3       3 UNK         0.1400 
     58 CB         -1.8347  -10.2266  -44.4259 C.3       3 UNK        -0.1800 
     59 N          -2.2777  -12.6123  -44.0744 N.am      3 UNK        -0.5000 
     60 C          -2.2114  -13.7642  -43.3923 C.2       2 UNK         0.5000 
     61 O          -1.2863  -14.0519  -42.6338 O.2       2 UNK        -0.5000 
     62 CA         -3.3575  -14.7743  -43.5937 C.3       2 UNK         0.1400 
     63 CB         -4.4103  -14.6325  -42.4850 C.3       2 UNK        -0.1800 
     64 N          -4.0133  -14.6549  -44.8966 N.am      2 UNK        -0.5000 
     65 C          -3.4684  -15.0616  -46.0515 C.2       1 UNK         0.5000 
     66 O          -2.3572  -15.5800  -46.1354 O.2       1 UNK        -0.5000 
     67 C          -3.0999  -19.5086  -46.0513 C.2       11 UNK         0.5000 
     68 O          -4.1920  -19.3126  -46.5818 O.2       11 UNK        -0.5000 
     69 N          -2.8799  -19.4015  -44.7325 N.am      12 UNK        -0.5000 
     70 CA         -3.8988  -19.0242  -43.7500 C.3       12 UNK         0.1400 
     71 CB         -3.2169  -18.6896  -42.4142 C.3       12 UNK        -0.1800 
     72 C          -4.9707  -20.1151  -43.5629 C.2       12 UNK         0.5000 
     73 O          -6.1388  -19.7907  -43.3499 O.2       12 UNK        -0.5000 
     74 N          -4.5593  -21.3846  -43.6856 N.am      13 UNK        -0.5000 
     75 CA         -5.4325  -22.5605  -43.6885 C.3       13 UNK         0.1400 
     76 CB         -4.5800  -23.8069  -43.4015 C.3       13 UNK        -0.1800 
     77 C          -6.2281  -22.7384  -45.0012 C.2       13 UNK         0.5000 
     78 O          -7.1369  -23.5689  -45.0380 O.2       13 UNK        -0.5000 
     79 N          -5.8751  -21.9688  -46.0420 N.am      14 UNK        -0.5000 
     80 CA         -6.4240  -21.9790  -47.3993 C.3       14 UNK         0.1400 
     81 CB         -7.9020  -21.5364  -47.4036 C.3       14 UNK        -0.1800 
     82 C          -6.1777  -23.3169  -48.1296 C.2       14 UNK         0.5000 
     83 O          -7.0853  -23.8487  -48.7723 O.2       14 UNK        -0.5000 
     84 N          -4.9487  -23.8344  -48.0186 N.am      15 UNK        -0.5000 
     85 CA         -4.4874  -25.0713  -48.6439 C.3       15 UNK         0.1400 
     86 CB         -4.4112  -26.1605  -47.5612 C.3       15 UNK        -0.1800 
     87 C          -3.1085  -24.8551  -49.2878 C.2       15 UNK         0.5000 
     88 O          -2.4352  -23.8734  -48.9708 O.2       15 UNK        -0.5000 
     89 N          -2.7077  -25.7931  -50.1602 N.am      16 UNK        -0.5000 
     90 CA         -1.3909  -25.9379  -50.7995 C.3       16 UNK         0.1400 
     91 CB         -0.4040  -26.6025  -49.8171 C.3       16 UNK        -0.1800 
     92 C          -0.8438  -24.6305  -51.4096 C.2       16 UNK         0.5000 
     93 O          -1.1908  -24.2997  -52.5439 O.2       16 UNK        -0.5000 
     94 N          -0.0403  -23.8922  -50.6305 N.am      17 UNK        -0.5000 
     95 CA          0.5131  -22.5716  -50.9414 C.3       17 UNK         0.1400 
     96 CB          1.3660  -22.1042  -49.7527 C.3       17 UNK        -0.1800 
     97 C          -0.5426  -21.5038  -51.2922 C.2       17 UNK         0.5000 
     98 O          -0.2274  -20.5786  -52.0365 O.2       17 UNK        -0.5000 
     99 N          -1.7779  -21.6675  -50.7950 N.am      18 UNK        -0.5000 
    100 CA        -2.9295  -20.8363  -51.1526 C.3       18 UNK         0.1400 
    101 CB        -4.1134  -21.2022  -50.2478 C.3       18 UNK        -0.1800 
    102 C         -3.3478  -20.9664  -52.6313 C.2       18 UNK         0.5000 
    103 O         -3.9407  -20.0346  -53.1725 O.2       18 UNK        -0.5000 
    104 N         -3.0477  -22.1154  -53.2516 N.am      19 UNK        -0.5000 
    105 CA        -3.2385  -22.3604  -54.6778 C.3       19 UNK         0.1400 
    106 CB        -3.7709  -23.7865  -54.8891 C.3       19 UNK        -0.1800 
    107 C         -1.9134  -22.1492  -55.4235 C.2       19 UNK         0.5000 
    108 O         -1.8785  -21.4071  -56.4079 O.2       19 UNK        -0.5000 
    109 N         -0.8347  -22.7687  -54.9239 N.am      20 UNK        -0.5000 
    110 CA         0.5235  -22.7319  -55.4736 C.3       20 UNK         0.1400 
    111 CB         1.3104  -23.9333  -54.9193 C.3       20 UNK        -0.1800 
    112 C          1.2394  -21.3826  -55.2348 C.2       20 UNK         0.5000 
    113 O          2.3386  -21.3458  -54.6786 O.2       20 UNK        -0.5000 
    114 N          0.5939  -20.3018  -55.6785 N.am      21 UNK        -0.5000 
    115 CA         1.0405  -18.9133  -55.6096 C.3       21 UNK         0.1400 
    116 CB         1.0008  -18.3932  -54.1605 C.3       21 UNK        -0.1800 
    117 C          0.1866  -18.0118  -56.5167 C.2       21 UNK         0.5000 
    118 O          0.6989  -17.0026  -57.0027 O.2       21 UNK        -0.5000 
    119 N         -1.0889  -18.3677  -56.7275 N.am      22 UNK        -0.5000 
    120 CA        -2.0651  -17.5445  -57.4615 C.3       22 UNK         0.1400 
    121 C         -3.1778  -18.3415  -58.2032 C.2       22 UNK         0.5000 
    122 N         -3.2281  -19.6664  -58.1452 N.am      22 UNK        -0.7600 
    123 O         -4.0063  -17.7432  -58.8847 O.2       22 UNK        -0.5000 
    124 C124       -2.6334  -16.3885  -56.5903 C.3       23 UNK        -0.0398 
    125 S125       -3.3447  -16.9533  -55.0024 S.3       23 UNK        -0.2404 
    126 C126       -2.2481  -16.1114  -53.8111 C.3       23 UNK        -0.0205 
    127 H127       -6.3446  -11.3787  -47.4684 H         1 UNK         0.0600 
    128 H128       -4.9822  -10.4693  -48.1296 H         1 UNK         0.0600 
    129 H129       -5.2404  -10.5279  -46.3830 H         1 UNK         0.0600 
    130 H130       -5.9769  -13.5748  -47.5319 H         1 UNK         0.3000 
    131 H131       -3.5835  -14.8202  -48.1640 H         1 UNK         0.0600 
    132 H132       -6.0677  -15.9771  -46.7941 H         1 UNK         0.0800 
    133 H133       -4.7683  -16.9573  -47.3960 H         1 UNK         0.0800 
    134 H134       -5.2430  -18.2814  -49.2490 H         1 UNK         0.0800 
    135 H135       -5.9196  -17.7956  -50.7763 H         1 UNK         0.0800 
    136 H136       -4.5923  -16.6631  -52.4639 H         1 UNK         0.1150 
    137 H137       -0.3432  -16.5141  -51.9261 H         1 UNK         0.1150 
    138 H138       -2.8945  -17.5709  -48.6482 H         1 UNK         0.1150 
    139 H139        0.6434  -16.8565  -49.8446 H         1 UNK         0.0800 
    140 H140       -0.3369  -16.4229  -48.4784 H         1 UNK         0.0800 
    141 H141       -1.4180  -17.7916  -47.0089 H         1 UNK         0.0800 
    142 H142       -0.2122  -18.7665  -46.2384 H         1 UNK         0.0800 
    143 H143       -2.2891  -20.1939  -47.9061 H         1 UNK         0.0600 
    144 H144       -0.2394  -20.9955  -46.1601 H         1 UNK         0.3000 
    145 H145       -1.5311  -24.0102  -44.8509 H         1 UNK         0.0600 
    146 H146        0.5744  -24.8597  -45.8357 H         1 UNK         0.0600 
    147 H147       -0.6194  -24.5903  -47.0938 H         1 UNK         0.0600 
    148 H148        0.6977  -23.4424  -46.8781 H         1 UNK         0.0600 
    149 H149        0.9715  -22.7841  -44.4536 H         1 UNK         0.3000 
    150 H150        0.5009  -20.2831  -42.5080 H         1 UNK         0.0600 
    151 H151       -0.7856  -21.1844  -40.6186 H         1 UNK         0.0600 
    152 H152        0.9149  -21.1148  -40.1885 H         1 UNK         0.0600 
    153 H153        0.1713  -22.6580  -40.6072 H         1 UNK         0.0600 
    154 H154        2.5588  -20.9204  -42.8060 H         1 UNK         0.3000 
    155 H155        4.4803  -23.7248  -42.0140 H         1 UNK         0.0600 
    156 H156        4.0031  -22.7314  -44.8794 H         1 UNK         0.0600 
    157 H157        3.8944  -24.4064  -44.3506 H         1 UNK         0.0600 
    158 H158        5.4401  -23.5751  -44.3011 H         1 UNK         0.0600 
    159 H159        5.0982  -21.2228  -43.2829 H         1 UNK         0.3000 
    160 H160        4.8664  -19.0944  -40.5658 H         1 UNK         0.0600 
    161 H161        7.5716  -20.2534  -41.4240 H         1 UNK         0.0600 
    162 H162        6.9706  -20.1951  -39.7714 H         1 UNK         0.0600 
    163 H163        7.3112  -18.7009  -40.6267 H         1 UNK         0.0600 
    164 H164        6.3391  -18.6514  -42.8923 H         1 UNK         0.3000 
    165 H165        5.1975  -17.0378  -44.3749 H         1 UNK         0.0600 
    166 H166        5.4580  -18.2707  -46.5573 H         1 UNK         0.0600 
    167 H167        6.3013  -19.0934  -45.2585 H         1 UNK         0.0600 
    168 H168        4.7570  -19.7146  -45.8294 H         1 UNK         0.0600 
    169 H169        2.8375  -18.2044  -45.7147 H         1 UNK         0.3000 
    170 H170        1.1085  -17.0034  -46.1969 H         1 UNK         0.0600 
    171 H171        0.2586  -16.2297  -43.3463 H         1 UNK         0.0600 
    172 H172       -0.7875  -16.9499  -44.5659 H         1 UNK         0.0600 
    173 H173        0.5439  -17.8742  -43.8923 H         1 UNK         0.0600 
    174 H174       -0.0949  -14.6689  -45.2977 H         1 UNK         0.3000 
    175 H175        1.2474  -12.2841  -47.3726 H         1 UNK         0.0600 
    176 H176       -1.0948  -13.9999  -48.3672 H         1 UNK         0.0600 
    177 H177       -0.7643  -12.3338  -48.8340 H         1 UNK         0.0600 
    178 H178        0.3468  -13.6129  -49.2996 H         1 UNK         0.0600 
    179 H179       -1.4274  -12.6461  -46.3827 H         1 UNK         0.3000 
    180 H180       -0.8098  -11.5175  -43.0598 H         1 UNK         0.0600 
    181 H181       -2.6221   -9.9490  -43.7251 H         1 UNK         0.0600 
    182 H182       -2.2619  -10.2219  -45.4290 H         1 UNK         0.0600 
    183 H183       -1.0767   -9.4431  -44.3901 H         1 UNK         0.0600 
    184 H184       -3.0409  -12.4705  -44.7213 H         1 UNK         0.3000 
    185 H185       -2.9243  -15.7735  -43.5212 H         1 UNK         0.0600 
    186 H186       -5.1811  -15.3985  -42.5736 H         1 UNK         0.0600 
    187 H187       -3.9564  -14.7435  -41.4993 H         1 UNK         0.0600 
    188 H188       -4.8980  -13.6575  -42.5146 H         1 UNK         0.0600 
    189 H189       -4.9249  -14.2209  -44.9134 H         1 UNK         0.3000 
    190 H190       -1.9764  -19.6554  -44.3632 H         1 UNK         0.3000 
    191 H191       -4.3984  -18.1226  -44.1120 H         1 UNK         0.0600 
    192 H192       -3.9433  -18.3174  -41.6908 H         1 UNK         0.0600 
    193 H193       -2.4557  -17.9193  -42.5365 H         1 UNK         0.0600 
    194 H194       -2.7370  -19.5645  -41.9745 H         1 UNK         0.0600 
    195 H195       -3.5655  -21.5602  -43.7925 H         1 UNK         0.3000 
    196 H196       -6.1574  -22.4508  -42.8795 H         1 UNK         0.0600 
    197 H197       -3.8691  -23.9995  -44.2046 H         1 UNK         0.0600 
    198 H198       -4.0176  -23.6981  -42.4739 H         1 UNK         0.0600 
    199 H199       -5.2062  -24.6941  -43.3010 H         1 UNK         0.0600 
    200 H200       -5.0856  -21.3502  -45.9083 H         1 UNK         0.3000 
    201 H201       -5.8651  -21.2224  -47.9493 H         1 UNK         0.0600 
    202 H202       -8.5479  -22.2657  -46.9142 H         1 UNK         0.0600 
    203 H203       -8.2671  -21.4100  -48.4234 H         1 UNK         0.0600 
    204 H204       -8.0274  -20.5809  -46.8942 H         1 UNK         0.0600 
    205 H205       -4.2327  -23.3261  -47.5002 H         1 UNK         0.3000 
    206 H206       -5.1780  -25.3855  -49.4289 H         1 UNK         0.0600 
    207 H207       -4.0819  -27.1131  -47.9777 H         1 UNK         0.0600 
    208 H208       -3.7127  -25.8870  -46.7688 H         1 UNK         0.0600 
    209 H209       -5.3862  -26.3264  -47.1025 H         1 UNK         0.0600 
    210 H210       -3.3603  -26.5329  -50.3784 H         1 UNK         0.3000 
    211 H211       -1.5277  -26.6245  -51.6363 H         1 UNK         0.0600 
    212 H212        0.5864  -26.7068  -50.2624 H         1 UNK         0.0600 
    213 H213       -0.7412  -27.6036  -49.5479 H         1 UNK         0.0600 
    214 H214       -0.2955  -26.0365  -48.8929 H         1 UNK         0.0600 
    215 H215        0.1289  -24.2294  -49.6948 H         1 UNK         0.3000 
    216 H216        1.1651  -22.6823  -51.8091 H         1 UNK         0.0600 
    217 H217        0.7601  -21.9705  -48.8557 H         1 UNK         0.0600 
    218 H218        1.8435  -21.1476  -49.9692 H         1 UNK         0.0600 
    219 H219        2.1577  -22.8179  -49.5246 H         1 UNK         0.0600 
    220 H220       -1.9504  -22.4485  -50.1668 H         1 UNK         0.3000 
    221 H221       -2.6564  -19.7958  -50.9727 H         1 UNK         0.0600 
    222 H222       -3.8471  -21.1401  -49.1947 H         1 UNK         0.0600 
    223 H223       -4.4618  -22.2165  -50.4439 H         1 UNK         0.0600 
    224 H224       -4.9548  -20.5293  -50.4152 H         1 UNK         0.0600 
    225 H225       -2.5255  -22.8202  -52.7431 H         1 UNK         0.3000 
    226 H226       -3.9721  -21.6652  -55.0915 H         1 UNK         0.0600 
    227 H227       -3.0874  -24.5419  -54.5000 H         1 UNK         0.0600 
    228 H228       -4.7327  -23.9220  -54.3942 H         1 UNK         0.0600 
    229 H229       -3.9190  -23.9930  -55.9498 H         1 UNK         0.0600 
    230 H230       -0.9535  -23.3367  -54.0886 H         1 UNK         0.3000 
    231 H231        0.4525  -22.8613  -56.5555 H         1 UNK         0.0600 
    232 H232        1.4200  -23.8793  -53.8364 H         1 UNK         0.0600 
    233 H233        2.3111  -23.9806  -55.3505 H         1 UNK         0.0600 
    234 H234        0.8118  -24.8733  -55.1565 H         1 UNK         0.0600 
    235 H235       -0.2912  -20.4707  -56.1449 H         1 UNK         0.3000 
    236 H236        2.0686  -18.8668  -55.9742 H         1 UNK         0.0600 
    237 H237        1.6745  -18.9537  -53.5127 H         1 UNK         0.0600 
    238 H238        1.3018  -17.3462  -54.1096 H         1 UNK         0.0600 
    239 H239       -0.0028  -18.4687  -53.7402 H         1 UNK         0.0600 
    240 H240       -1.4736  -19.1779  -56.2641 H         1 UNK         0.3000 
    241 H241       -1.5239  -17.0748  -58.2852 H         1 UNK         0.0600 
    242 H242       -3.9561  -20.1389  -58.6567 H         1 UNK         0.3800 
    243 H243       -2.5874  -20.2221  -57.5863 H         1 UNK         0.3800 
    244 H244       -3.3959  -15.8265  -57.1319 H         1 UNK         0.0800 
    245 H245       -1.8395  -15.6674  -56.3925 H         1 UNK         0.0800 
    246 H246       -1.2144  -16.2838  -54.1136 H         1 UNK         0.0800 
    247 H247       -2.4159  -15.0356  -53.8729 H         1 UNK         0.0800 
@<TRIPOS>BOND
     1    1    2 1    
     2    1  127 1    
     3    1  128 1    
     4    1  129 1    
     5    2    3 2    
     6    2    4 am   BACKBONE|DICT|INTERRES
     7    4    5 1    
     8    4  130 1    
     9    5    6 1    
    10    5   65 1    
    11    5  131 1    
    12    6    7 1    
    13    6  132 1    
    14    6  133 1    
    15    7    8 1    
    16    8    9 1    
    17    8  134 1    
    18    8  135 1    
    19    9   10 ar   
    20    9   14 ar   
    21   10   11 ar   
    22   10  136 1    
    23   11   12 ar   
    24   11  126 1    
    25   12   13 ar   
    26   12  137 1    
    27   13   14 ar   
    28   13   15 1    
    29   14  138 1    
    30   15   16 1    
    31   15  139 1    
    32   15  140 1    
    33   16   17 1    
    34   17   18 1    
    35   17  141 1    
    36   17  142 1    
    37   18   19 1    
    38   18   67 1    
    39   18  143 1    
    40   19   20 am   BACKBONE|DICT|INTERRES
    41   19  144 1    
    42   20   21 2    
    43   20   22 1    
    44   22   23 1    
    45   22   24 1    
    46   22  145 1    
    47   23  146 1    
    48   23  147 1    
    49   23  148 1    
    50   24   25 am   BACKBONE|DICT|INTERRES
    51   24  149 1    
    52   25   26 2    
    53   25   27 1    
    54   27   28 1    
    55   27   29 1    
    56   27  150 1    
    57   28  151 1    
    58   28  152 1    
    59   28  153 1    
    60   29   30 am   BACKBONE|DICT|INTERRES
    61   29  154 1    
    62   30   31 2    
    63   30   32 1    
    64   32   33 1    
    65   32   34 1    
    66   32  155 1    
    67   33  156 1    
    68   33  157 1    
    69   33  158 1    
    70   34   35 am   BACKBONE|DICT|INTERRES
    71   34  159 1    
    72   35   36 2    
    73   35   37 1    
    74   37   38 1    
    75   37   39 1    
    76   37  160 1    
    77   38  161 1    
    78   38  162 1    
    79   38  163 1    
    80   39   40 am   BACKBONE|DICT|INTERRES
    81   39  164 1    
    82   40   41 2    
    83   40   42 1    
    84   42   43 1    
    85   42   44 1    
    86   42  165 1    
    87   43  166 1    
    88   43  167 1    
    89   43  168 1    
    90   44   45 am   BACKBONE|DICT|INTERRES
    91   44  169 1    
    92   45   46 2    
    93   45   47 1    
    94   47   48 1    
    95   47   49 1    
    96   47  170 1    
    97   48  171 1    
    98   48  172 1    
    99   48  173 1    
   100   49   50 am   BACKBONE|DICT|INTERRES
   101   49  174 1    
   102   50   51 2    
   103   50   52 1    
   104   52   53 1    
   105   52   54 1    
   106   52  175 1    
   107   53  176 1    
   108   53  177 1    
   109   53  178 1    
   110   54   55 am   BACKBONE|DICT|INTERRES
   111   54  179 1    
   112   55   56 2    
   113   55   57 1    
   114   57   58 1    
   115   57   59 1    
   116   57  180 1    
   117   58  181 1    
   118   58  182 1    
   119   58  183 1    
   120   59   60 am   BACKBONE|DICT|INTERRES
   121   59  184 1    
   122   60   61 2    
   123   60   62 1    
   124   62   63 1    
   125   62   64 1    
   126   62  185 1    
   127   63  186 1    
   128   63  187 1    
   129   63  188 1    
   130   64   65 am   BACKBONE|DICT|INTERRES
   131   64  189 1    
   132   65   66 2    
   133   67   68 2    
   134   67   69 am   BACKBONE|DICT|INTERRES
   135   69   70 1    
   136   69  190 1    
   137   70   71 1    
   138   70   72 1    
   139   70  191 1    
   140   71  192 1    
   141   71  193 1    
   142   71  194 1    
   143   72   73 2    
   144   72   74 am   BACKBONE|DICT|INTERRES
   145   74   75 1    
   146   74  195 1    
   147   75   76 1    
   148   75   77 1    
   149   75  196 1    
   150   76  197 1    
   151   76  198 1    
   152   76  199 1    
   153   77   78 2    
   154   77   79 am   BACKBONE|DICT|INTERRES
   155   79   80 1    
   156   79  200 1    
   157   80   81 1    
   158   80   82 1    
   159   80  201 1    
   160   81  202 1    
   161   81  203 1    
   162   81  204 1    
   163   82   83 2    
   164   82   84 am   BACKBONE|DICT|INTERRES
   165   84   85 1    
   166   84  205 1    
   167   85   86 1    
   168   85   87 1    
   169   85  206 1    
   170   86  207 1    
   171   86  208 1    
   172   86  209 1    
   173   87   88 2    
   174   87   89 am   BACKBONE|DICT|INTERRES
   175   89   90 1    
   176   89  210 1    
   177   90   91 1    
   178   90   92 1    
   179   90  211 1    
   180   91  212 1    
   181   91  213 1    
   182   91  214 1    
   183   92   93 2    
   184   92   94 am   BACKBONE|DICT|INTERRES
   185   94   95 1    
   186   94  215 1    
   187   95   96 1    
   188   95   97 1    
   189   95  216 1    
   190   96  217 1    
   191   96  218 1    
   192   96  219 1    
   193   97   98 2    
   194   97   99 am   BACKBONE|DICT|INTERRES
   195   99  100 1    
   196   99  220 1    
   197  100  101 1    
   198  100  102 1    
   199  100  221 1    
   200  101  222 1    
   201  101  223 1    
   202  101  224 1    
   203  102  103 2    
   204  102  104 am   BACKBONE|DICT|INTERRES
   205  104  105 1    
   206  104  225 1    
   207  105  106 1    
   208  105  107 1    
   209  105  226 1    
   210  106  227 1    
   211  106  228 1    
   212  106  229 1    
   213  107  108 2    
   214  107  109 am   BACKBONE|DICT|INTERRES
   215  109  110 1    
   216  109  230 1    
   217  110  111 1    
   218  110  112 1    
   219  110  231 1    
   220  111  232 1    
   221  111  233 1    
   222  111  234 1    
   223  112  113 2    
   224  112  114 am   BACKBONE|DICT|INTERRES
   225  114  115 1    
   226  114  235 1    
   227  115  116 1    
   228  115  117 1    
   229  115  236 1    
   230  116  237 1    
   231  116  238 1    
   232  116  239 1    
   233  117  118 2    
   234  117  119 am   BACKBONE|DICT|INTERRES
   235  119  120 1    
   236  119  240 1    
   237  120  121 1    
   238  120  124 1    
   239  120  241 1    
   240  121  122 am   BACKBONE|DICT|INTERRES
   241  121  123 2    
   242  122  242 1    
   243  122  243 1    
   244  124  125 1    
   245  124  244 1    
   246  124  245 1    
   247  125  126 1    
   248  126  246 1    
   249  126  247 1    
@<TRIPOS>SUBSTRUCTURE
     1 UNK         1 GROUP             0       ****    0 ROOT    
