@<TRIPOS>MOLECULE
3R540
247   249    1
SMALL
USER_CHARGES


@<TRIPOS>ATOM
      1 CA          2.0827  -11.5557  -49.4943 C.3       0 UNK        -0.1800 
      2 C           1.9434  -12.4485  -48.2696 C.2       0 UNK         0.5000 
      3 O           1.4678  -11.9937  -47.2302 O.2       0 UNK        -0.5000 
      4 N           2.3555  -13.7168  -48.3890 N.am      1 UNK        -0.5000 
      5 CA          2.2825  -14.7298  -47.3282 C.3       1 UNK         0.1400 
      6 C6          3.3352  -15.8501  -47.5349 C.3       23 UNK        -0.0398 
      7 S7          3.3240  -16.6726  -49.1750 S.3       23 UNK        -0.2404 
      8 C8          2.1533  -18.0320  -48.8803 C.3       23 UNK        -0.0205 
      9 C9          2.3781  -19.2278  -49.7901 C.ar      23 UNK        -0.0193 
     10 C10         1.7689  -19.2777  -51.0463 C.ar      23 UNK        -0.1150 
     11 C11         1.9200  -20.4005  -51.8649 C.ar      23 UNK        -0.0193 
     12 C12         2.7000  -21.4732  -51.4228 C.ar      23 UNK        -0.1150 
     13 C13         3.3235  -21.4325  -50.1718 C.ar      23 UNK        -0.0193 
     14 C14         3.1565  -20.3073  -49.3577 C.ar      23 UNK        -0.1150 
     15 C15         4.1958  -22.5965  -49.7200 C.3       23 UNK        -0.0205 
     16 S16         3.2157  -23.9561  -49.0045 S.3       23 UNK        -0.2404 
     17 C17         2.8210  -23.3053  -47.3467 C.3       23 UNK        -0.0398 
     18 CA          2.9123  -24.3649  -46.2146 C.3       11 UNK         0.1400 
     19 N           3.1144  -23.7061  -44.9203 N.am      11 UNK        -0.5000 
     20 C           3.4433  -24.3027  -43.7671 C.2       10 UNK         0.5000 
     21 O           3.6804  -25.5057  -43.6582 O.2       10 UNK        -0.5000 
     22 CA          3.4780  -23.3976  -42.5219 C.3       10 UNK         0.1400 
     23 CB          4.8349  -22.6860  -42.4041 C.3       10 UNK        -0.1800 
     24 N           2.4062  -22.3977  -42.5348 N.am      10 UNK        -0.5000 
     25 C           1.1164  -22.6555  -42.2735 C.2       9 UNK         0.5000 
     26 O           0.6890  -23.7704  -41.9756 O.2       9 UNK        -0.5000 
     27 CA          0.1334  -21.4748  -42.3999 C.3       9 UNK         0.1400 
     28 CB          0.1191  -20.6315  -41.1164 C.3       9 UNK        -0.1800 
     29 N           0.4472  -20.6108  -43.5365 N.am      9 UNK        -0.5000 
     30 C           0.2822  -20.9656  -44.8181 C.2       8 UNK         0.5000 
     31 O          -0.2193  -22.0311  -45.1783 O.2       8 UNK        -0.5000 
     32 CA          0.7967  -19.9836  -45.8840 C.3       8 UNK         0.1400 
     33 CB         -0.3417  -19.0658  -46.3425 C.3       8 UNK        -0.1800 
     34 N           1.9458  -19.1891  -45.4374 N.am      8 UNK        -0.5000 
     35 C           3.1293  -19.7207  -45.0952 C.2       7 UNK         0.5000 
     36 O           3.3530  -20.9282  -45.1380 O.2       7 UNK        -0.5000 
     37 CA          4.2533  -18.7943  -44.5983 C.3       7 UNK         0.1400 
     38 CB          5.3564  -18.6924  -45.6637 C.3       7 UNK        -0.1800 
     39 N           3.8615  -17.4439  -44.1876 N.am      7 UNK        -0.5000 
     40 C           2.9538  -17.1114  -43.2597 C.2       6 UNK         0.5000 
     41 O           2.1873  -17.9167  -42.7266 O.2       6 UNK        -0.5000 
     42 CA          2.8909  -15.6296  -42.8595 C.3       6 UNK         0.1400 
     43 CB          3.9832  -14.7391  -43.4952 C.3       6 UNK        -0.1800 
     44 N           1.5662  -15.1131  -43.1765 N.am      6 UNK        -0.5000 
     45 C           0.9747  -14.0981  -42.5364 C.2       5 UNK         0.5000 
     46 O           1.5101  -13.4464  -41.6383 O.2       5 UNK        -0.5000 
     47 CA         -0.4641  -13.7571  -42.9586 C.3       5 UNK         0.1400 
     48 CB         -0.4554  -12.6911  -44.0632 C.3       5 UNK        -0.1800 
     49 N          -1.2233  -14.9277  -43.4054 N.am      5 UNK        -0.5000 
     50 C          -1.6439  -15.9087  -42.5900 C.2       4 UNK         0.5000 
     51 O          -1.4107  -15.9227  -41.3801 O.2       4 UNK        -0.5000 
     52 CA         -2.4547  -17.0646  -43.2209 C.3       4 UNK         0.1400 
     53 CB         -3.4171  -17.7396  -42.2229 C.3       4 UNK        -0.1800 
     54 N          -3.1697  -16.6965  -44.4462 N.am      4 UNK        -0.5000 
     55 C          -4.0809  -15.7257  -44.6140 C.2       3 UNK         0.5000 
     56 O          -4.5058  -15.0122  -43.7038 O.2       3 UNK        -0.5000 
     57 CA         -4.5682  -15.5128  -46.0648 C.3       3 UNK         0.1400 
     58 CB         -5.2342  -14.1391  -46.2864 C.3       3 UNK        -0.1800 
     59 N          -3.5130  -15.7440  -47.0627 N.am      3 UNK        -0.5000 
     60 C          -2.3350  -15.1061  -47.1405 C.2       2 UNK         0.5000 
     61 O          -2.0055  -14.1825  -46.3961 O.2       2 UNK        -0.5000 
     62 CA         -1.3764  -15.6011  -48.2381 C.3       2 UNK         0.1400 
     63 CB         -1.8943  -15.2152  -49.6331 C.3       2 UNK        -0.1800 
     64 N          -0.0083  -15.0989  -48.1227 N.am      2 UNK        -0.5000 
     65 C           0.8665  -15.3173  -47.1309 C.2       1 UNK         0.5000 
     66 O           0.6261  -15.9774  -46.1162 O.2       1 UNK        -0.5000 
     67 C           1.6705  -25.2889  -46.2173 C.2       11 UNK         0.5000 
     68 O           1.5983  -26.2054  -47.0361 O.2       11 UNK        -0.5000 
     69 N           0.7117  -25.0101  -45.3179 N.am      12 UNK        -0.5000 
     70 CA         -0.6431  -25.5723  -45.2490 C.3       12 UNK         0.1400 
     71 CB         -0.6210  -27.0950  -45.0023 C.3       12 UNK        -0.1800 
     72 C          -1.5052  -25.1592  -46.4624 C.2       12 UNK         0.5000 
     73 O          -2.4439  -25.8648  -46.8342 O.2       12 UNK        -0.5000 
     74 N          -1.1674  -24.0004  -47.0408 N.am      13 UNK        -0.5000 
     75 CA         -1.8777  -23.3447  -48.1320 C.3       13 UNK         0.1400 
     76 CB         -0.8784  -22.4657  -48.9003 C.3       13 UNK        -0.1800 
     77 C          -3.0553  -22.5054  -47.6050 C.2       13 UNK         0.5000 
     78 O          -4.0380  -22.3335  -48.3270 O.2       13 UNK        -0.5000 
     79 N          -2.9337  -22.0204  -46.3563 N.am      14 UNK        -0.5000 
     80 CA         -3.9024  -21.2391  -45.5822 C.3       14 UNK         0.1400 
     81 CB         -5.0947  -22.1240  -45.1617 C.3       14 UNK        -0.1800 
     82 C          -4.3218  -19.9479  -46.3084 C.2       14 UNK         0.5000 
     83 O          -3.6273  -18.9371  -46.1958 O.2       14 UNK        -0.5000 
     84 N          -5.4283  -20.0099  -47.0603 N.am      15 UNK        -0.5000 
     85 CA         -5.8933  -18.9506  -47.9523 C.3       15 UNK         0.1400 
     86 CB         -7.2467  -19.3502  -48.5527 C.3       15 UNK        -0.1800 
     87 C          -4.8752  -18.6311  -49.0607 C.2       15 UNK         0.5000 
     88 O          -4.6249  -17.4554  -49.3291 O.2       15 UNK        -0.5000 
     89 N          -4.2735  -19.6803  -49.6400 N.am      16 UNK        -0.5000 
     90 CA         -3.2411  -19.6381  -50.6757 C.3       16 UNK         0.1400 
     91 CB         -1.9198  -19.1234  -50.0623 C.3       16 UNK        -0.1800 
     92 C          -3.7137  -18.8429  -51.9109 C.2       16 UNK         0.5000 
     93 O          -4.6949  -19.2331  -52.5469 O.2       16 UNK        -0.5000 
     94 N          -3.0533  -17.7141  -52.2011 N.am      17 UNK        -0.5000 
     95 CA         -3.3906  -16.7890  -53.2832 C.3       17 UNK         0.1400 
     96 CB         -2.3037  -15.7089  -53.3835 C.3       17 UNK        -0.1800 
     97 C          -4.7851  -16.1423  -53.1522 C.2       17 UNK         0.5000 
     98 O          -5.3438  -15.7383  -54.1713 O.2       17 UNK        -0.5000 
     99 N          -5.3484  -16.0899  -51.9336 N.am      18 UNK        -0.5000 
    100 CA        -6.7118  -15.6088  -51.6866 C.3       18 UNK         0.1400 
    101 CB        -6.8986  -15.3152  -50.1898 C.3       18 UNK        -0.1800 
    102 C         -7.7894  -16.5904  -52.1919 C.2       18 UNK         0.5000 
    103 O         -8.8758  -16.1499  -52.5679 O.2       18 UNK        -0.5000 
    104 N         -7.4633  -17.8911  -52.2207 N.am      19 UNK        -0.5000 
    105 CA        -8.2850  -18.9450  -52.8248 C.3       19 UNK         0.1400 
    106 CB        -8.1657  -20.2183  -51.9720 C.3       19 UNK        -0.1800 
    107 C         -7.8740  -19.2393  -54.2812 C.2       19 UNK         0.5000 
    108 O         -8.5813  -19.9759  -54.9692 O.2       19 UNK        -0.5000 
    109 N         -6.7324  -18.6800  -54.7092 N.am      20 UNK        -0.5000 
    110 CA        -6.0352  -18.9017  -55.9785 C.3       20 UNK         0.1400 
    111 CB        -6.8771  -18.3990  -57.1697 C.3       20 UNK        -0.1800 
    112 C         -5.5462  -20.3569  -56.1470 C.2       20 UNK         0.5000 
    113 O         -5.4657  -20.8513  -57.2733 O.2       20 UNK        -0.5000 
    114 N         -5.2196  -21.0170  -55.0284 N.am      21 UNK        -0.5000 
    115 CA        -4.7551  -22.3977  -54.9753 C.3       21 UNK         0.1400 
    116 CB        -5.9406  -23.3701  -55.1223 C.3       21 UNK        -0.1800 
    117 C         -4.0209  -22.6142  -53.6479 C.2       21 UNK         0.5000 
    118 O         -4.6196  -22.4260  -52.5876 O.2       21 UNK        -0.5000 
    119 N         -2.7452  -23.0038  -53.7319 N.am      22 UNK        -0.5000 
    120 CA        -1.8670  -23.2580  -52.5755 C.3       22 UNK         0.1400 
    121 C         -1.7795  -24.7595  -52.1734 C.2       22 UNK         0.5000 
    122 N         -2.4741  -25.6726  -52.8416 N.am      22 UNK        -0.7600 
    123 O         -1.0783  -25.1050  -51.2280 O.2       22 UNK        -0.5000 
    124 C124       -0.4567  -22.6427  -52.7774 C.3       23 UNK        -0.0398 
    125 S125       -0.5164  -20.8507  -53.1215 S.3       23 UNK        -0.2404 
    126 C126        1.2537  -20.4421  -53.2323 C.3       23 UNK        -0.0205 
    127 H127        2.5198  -12.0898  -50.3384 H         1 UNK         0.0600 
    128 H128        2.7205  -10.7019  -49.2653 H         1 UNK         0.0600 
    129 H129        1.1054  -11.1808  -49.7982 H         1 UNK         0.0600 
    130 H130        2.7495  -14.0360  -49.2637 H         1 UNK         0.3000 
    131 H131        2.5227  -14.2337  -46.3863 H         1 UNK         0.0600 
    132 H132        3.2526  -16.6005  -46.7500 H         1 UNK         0.0800 
    133 H133        4.3291  -15.4193  -47.4073 H         1 UNK         0.0800 
    134 H134        1.1368  -17.6598  -49.0106 H         1 UNK         0.0800 
    135 H135        2.2395  -18.3568  -47.8488 H         1 UNK         0.0800 
    136 H136        1.1671  -18.4459  -51.3842 H         1 UNK         0.1150 
    137 H137        2.8256  -22.3420  -52.0537 H         1 UNK         0.1150 
    138 H138        3.6306  -20.2719  -48.3868 H         1 UNK         0.1150 
    139 H139        4.7485  -22.9833  -50.5775 H         1 UNK         0.0800 
    140 H140        4.9505  -22.2613  -49.0069 H         1 UNK         0.0800 
    141 H141        3.5314  -22.5045  -47.1445 H         1 UNK         0.0800 
    142 H142        1.8398  -22.8298  -47.3735 H         1 UNK         0.0800 
    143 H143        3.7886  -24.9917  -46.3927 H         1 UNK         0.0600 
    144 H144        3.0317  -22.6914  -44.9215 H         1 UNK         0.3000 
    145 H145        3.3501  -24.0324  -41.6424 H         1 UNK         0.0600 
    146 H146        4.8857  -22.0819  -41.4981 H         1 UNK         0.0600 
    147 H147        5.0258  -22.0315  -43.2551 H         1 UNK         0.0600 
    148 H148        5.6503  -23.4090  -42.3582 H         1 UNK         0.0600 
    149 H149        2.6639  -21.4635  -42.8159 H         1 UNK         0.3000 
    150 H150       -0.8673  -21.8872  -42.5473 H         1 UNK         0.0600 
    151 H151       -0.1250  -21.2447  -40.2480 H         1 UNK         0.0600 
    152 H152       -0.6272  -19.8388  -41.1750 H         1 UNK         0.0600 
    153 H153        1.0872  -20.1648  -40.9295 H         1 UNK         0.0600 
    154 H154        0.8860  -19.7215  -43.3290 H         1 UNK         0.3000 
    155 H155        1.1201  -20.5735  -46.7433 H         1 UNK         0.0600 
    156 H156       -1.1854  -19.6527  -46.7032 H         1 UNK         0.0600 
    157 H157       -0.0348  -18.4237  -47.1626 H         1 UNK         0.0600 
    158 H158       -0.6998  -18.4269  -45.5364 H         1 UNK         0.0600 
    159 H159        1.8058  -18.1939  -45.3373 H         1 UNK         0.3000 
    160 H160        4.6819  -19.2770  -43.7178 H         1 UNK         0.0600 
    161 H161        4.9964  -18.2230  -46.5793 H         1 UNK         0.0600 
    162 H162        5.7319  -19.6807  -45.9335 H         1 UNK         0.0600 
    163 H163        6.2073  -18.1157  -45.3008 H         1 UNK         0.0600 
    164 H164        4.4389  -16.6993  -44.5488 H         1 UNK         0.3000 
    165 H165        3.0263  -15.6099  -41.7760 H         1 UNK         0.0600 
    166 H166        3.9150  -13.7143  -43.1298 H         1 UNK         0.0600 
    167 H167        4.9819  -15.0958  -43.2398 H         1 UNK         0.0600 
    168 H168        3.9055  -14.7031  -44.5809 H         1 UNK         0.0600 
    169 H169        1.0491  -15.6049  -43.8959 H         1 UNK         0.3000 
    170 H170       -0.9733  -13.3361  -42.0891 H         1 UNK         0.0600 
    171 H171        0.0751  -11.7949  -43.7393 H         1 UNK         0.0600 
    172 H172        0.0364  -13.0534  -44.9668 H         1 UNK         0.0600 
    173 H173       -1.4687  -12.3905  -44.3298 H         1 UNK         0.0600 
    174 H174       -1.4626  -14.9612  -44.3899 H         1 UNK         0.3000 
    175 H175       -1.7185  -17.8137  -43.5130 H         1 UNK         0.0600 
    176 H176       -4.1559  -17.0366  -41.8371 H         1 UNK         0.0600 
    177 H177       -3.9519  -18.5661  -42.6910 H         1 UNK         0.0600 
    178 H178       -2.8758  -18.1488  -41.3692 H         1 UNK         0.0600 
    179 H179       -2.9740  -17.2800  -45.2537 H         1 UNK         0.3000 
    180 H180       -5.3296  -16.2716  -46.2339 H         1 UNK         0.0600 
    181 H181       -5.5780  -14.0304  -47.3150 H         1 UNK         0.0600 
    182 H182       -4.5502  -13.3174  -46.0724 H         1 UNK         0.0600 
    183 H183       -6.1041  -14.0169  -45.6402 H         1 UNK         0.0600 
    184 H184       -3.7164  -16.4680  -47.7437 H         1 UNK         0.3000 
    185 H185       -1.3309  -16.6864  -48.1552 H         1 UNK         0.0600 
    186 H186       -1.9153  -14.1327  -49.7654 H         1 UNK         0.0600 
    187 H187       -1.2590  -15.6352  -50.4127 H         1 UNK         0.0600 
    188 H188       -2.9058  -15.5798  -49.8071 H         1 UNK         0.0600 
    189 H189        0.3055  -14.5099  -48.8788 H         1 UNK         0.3000 
    190 H190        0.8837  -24.2390  -44.6870 H         1 UNK         0.3000 
    191 H191       -1.1109  -25.1087  -44.3792 H         1 UNK         0.0600 
    192 H192       -1.6206  -27.4654  -44.7729 H         1 UNK         0.0600 
    193 H193        0.0201  -27.3479  -44.1578 H         1 UNK         0.0600 
    194 H194       -0.2645  -27.6453  -45.8731 H         1 UNK         0.0600 
    195 H195       -0.4359  -23.4612  -46.5946 H         1 UNK         0.3000 
    196 H196       -2.2734  -24.1008  -48.8134 H         1 UNK         0.0600 
    197 H197       -0.4541  -21.6849  -48.2695 H         1 UNK         0.0600 
    198 H198       -1.3573  -21.9791  -49.7477 H         1 UNK         0.0600 
    199 H199       -0.0540  -23.0602  -49.2953 H         1 UNK         0.0600 
    200 H200       -2.0537  -22.1935  -45.8819 H         1 UNK         0.3000 
    201 H201       -3.3892  -20.9246  -44.6720 H         1 UNK         0.0600 
    202 H202       -5.6075  -22.5667  -46.0161 H         1 UNK         0.0600 
    203 H203       -5.8284  -21.5503  -44.5939 H         1 UNK         0.0600 
    204 H204       -4.7615  -22.9417  -44.5225 H         1 UNK         0.0600 
    205 H205       -5.9042  -20.8980  -47.1255 H         1 UNK         0.3000 
    206 H206       -6.0424  -18.0485  -47.3609 H         1 UNK         0.0600 
    207 H207       -8.0011  -19.4732  -47.7756 H         1 UNK         0.0600 
    208 H208       -7.6124  -18.5875  -49.2412 H         1 UNK         0.0600 
    209 H209       -7.1765  -20.2895  -49.1020 H         1 UNK         0.0600 
    210 H210       -4.5174  -20.6098  -49.3130 H         1 UNK         0.3000 
    211 H211       -3.0872  -20.6647  -51.0060 H         1 UNK         0.0600 
    212 H212       -1.9910  -18.0816  -49.7628 H         1 UNK         0.0600 
    213 H213       -1.0947  -19.2120  -50.7667 H         1 UNK         0.0600 
    214 H214       -1.6499  -19.6917  -49.1739 H         1 UNK         0.0600 
    215 H215       -2.2695  -17.4594  -51.6203 H         1 UNK         0.3000 
    216 H216       -3.3841  -17.3624  -54.2124 H         1 UNK         0.0600 
    217 H217       -1.3120  -16.1497  -53.4879 H         1 UNK         0.0600 
    218 H218       -2.2970  -15.0601  -52.5079 H         1 UNK         0.0600 
    219 H219       -2.4684  -15.0738  -54.2549 H         1 UNK         0.0600 
    220 H220       -4.8491  -16.4648  -51.1339 H         1 UNK         0.3000 
    221 H221       -6.8402  -14.6690  -52.2280 H         1 UNK         0.0600 
    222 H222       -7.8490  -14.8110  -50.0113 H         1 UNK         0.0600 
    223 H223       -6.9012  -16.2261  -49.5927 H         1 UNK         0.0600 
    224 H224       -6.1092  -14.6662  -49.8103 H         1 UNK         0.0600 
    225 H225       -6.5373  -18.1694  -51.9207 H         1 UNK         0.3000 
    226 H226       -9.3348  -18.6450  -52.8392 H         1 UNK         0.0600 
    227 H227       -8.6140  -20.0703  -50.9908 H         1 UNK         0.0600 
    228 H228       -8.6890  -21.0559  -52.4351 H         1 UNK         0.0600 
    229 H229       -7.1260  -20.5186  -51.8331 H         1 UNK         0.0600 
    230 H230       -6.2343  -18.1066  -54.0445 H         1 UNK         0.3000 
    231 H231       -5.1345  -18.2881  -55.9357 H         1 UNK         0.0600 
    232 H232       -6.2972  -18.4167  -58.0931 H         1 UNK         0.0600 
    233 H233       -7.2045  -17.3711  -57.0138 H         1 UNK         0.0600 
    234 H234       -7.7631  -19.0138  -57.3301 H         1 UNK         0.0600 
    235 H235       -5.2609  -20.5371  -54.1335 H         1 UNK         0.3000 
    236 H236       -4.0561  -22.5691  -55.7968 H         1 UNK         0.0600 
    237 H237       -6.6959  -23.1992  -54.3539 H         1 UNK         0.0600 
    238 H238       -6.4241  -23.2643  -56.0934 H         1 UNK         0.0600 
    239 H239       -5.6100  -24.4057  -55.0360 H         1 UNK         0.0600 
    240 H240       -2.3247  -23.1339  -54.6407 H         1 UNK         0.3000 
    241 H241       -2.2991  -22.7705  -51.7020 H         1 UNK         0.0600 
    242 H242       -2.4107  -26.6402  -52.5663 H         1 UNK         0.3800 
    243 H243       -3.0653  -25.4091  -53.6131 H         1 UNK         0.3800 
    244 H244        0.0633  -23.1395  -53.5979 H         1 UNK         0.0800 
    245 H245        0.1538  -22.7952  -51.8859 H         1 UNK         0.0800 
    246 H246        1.3577  -19.4676  -53.7115 H         1 UNK         0.0800 
    247 H247        1.7552  -21.1563  -53.8872 H         1 UNK         0.0800 
@<TRIPOS>BOND
     1    1    2 1    
     2    1  127 1    
     3    1  128 1    
     4    1  129 1    
     5    2    3 2    
     6    2    4 am   BACKBONE|DICT|INTERRES
     7    4    5 1    
     8    4  130 1    
     9    5    6 1    
    10    5   65 1    
    11    5  131 1    
    12    6    7 1    
    13    6  132 1    
    14    6  133 1    
    15    7    8 1    
    16    8    9 1    
    17    8  134 1    
    18    8  135 1    
    19    9   10 ar   
    20    9   14 ar   
    21   10   11 ar   
    22   10  136 1    
    23   11   12 ar   
    24   11  126 1    
    25   12   13 ar   
    26   12  137 1    
    27   13   14 ar   
    28   13   15 1    
    29   14  138 1    
    30   15   16 1    
    31   15  139 1    
    32   15  140 1    
    33   16   17 1    
    34   17   18 1    
    35   17  141 1    
    36   17  142 1    
    37   18   19 1    
    38   18   67 1    
    39   18  143 1    
    40   19   20 am   BACKBONE|DICT|INTERRES
    41   19  144 1    
    42   20   21 2    
    43   20   22 1    
    44   22   23 1    
    45   22   24 1    
    46   22  145 1    
    47   23  146 1    
    48   23  147 1    
    49   23  148 1    
    50   24   25 am   BACKBONE|DICT|INTERRES
    51   24  149 1    
    52   25   26 2    
    53   25   27 1    
    54   27   28 1    
    55   27   29 1    
    56   27  150 1    
    57   28  151 1    
    58   28  152 1    
    59   28  153 1    
    60   29   30 am   BACKBONE|DICT|INTERRES
    61   29  154 1    
    62   30   31 2    
    63   30   32 1    
    64   32   33 1    
    65   32   34 1    
    66   32  155 1    
    67   33  156 1    
    68   33  157 1    
    69   33  158 1    
    70   34   35 am   BACKBONE|DICT|INTERRES
    71   34  159 1    
    72   35   36 2    
    73   35   37 1    
    74   37   38 1    
    75   37   39 1    
    76   37  160 1    
    77   38  161 1    
    78   38  162 1    
    79   38  163 1    
    80   39   40 am   BACKBONE|DICT|INTERRES
    81   39  164 1    
    82   40   41 2    
    83   40   42 1    
    84   42   43 1    
    85   42   44 1    
    86   42  165 1    
    87   43  166 1    
    88   43  167 1    
    89   43  168 1    
    90   44   45 am   BACKBONE|DICT|INTERRES
    91   44  169 1    
    92   45   46 2    
    93   45   47 1    
    94   47   48 1    
    95   47   49 1    
    96   47  170 1    
    97   48  171 1    
    98   48  172 1    
    99   48  173 1    
   100   49   50 am   BACKBONE|DICT|INTERRES
   101   49  174 1    
   102   50   51 2    
   103   50   52 1    
   104   52   53 1    
   105   52   54 1    
   106   52  175 1    
   107   53  176 1    
   108   53  177 1    
   109   53  178 1    
   110   54   55 am   BACKBONE|DICT|INTERRES
   111   54  179 1    
   112   55   56 2    
   113   55   57 1    
   114   57   58 1    
   115   57   59 1    
   116   57  180 1    
   117   58  181 1    
   118   58  182 1    
   119   58  183 1    
   120   59   60 am   BACKBONE|DICT|INTERRES
   121   59  184 1    
   122   60   61 2    
   123   60   62 1    
   124   62   63 1    
   125   62   64 1    
   126   62  185 1    
   127   63  186 1    
   128   63  187 1    
   129   63  188 1    
   130   64   65 am   BACKBONE|DICT|INTERRES
   131   64  189 1    
   132   65   66 2    
   133   67   68 2    
   134   67   69 am   BACKBONE|DICT|INTERRES
   135   69   70 1    
   136   69  190 1    
   137   70   71 1    
   138   70   72 1    
   139   70  191 1    
   140   71  192 1    
   141   71  193 1    
   142   71  194 1    
   143   72   73 2    
   144   72   74 am   BACKBONE|DICT|INTERRES
   145   74   75 1    
   146   74  195 1    
   147   75   76 1    
   148   75   77 1    
   149   75  196 1    
   150   76  197 1    
   151   76  198 1    
   152   76  199 1    
   153   77   78 2    
   154   77   79 am   BACKBONE|DICT|INTERRES
   155   79   80 1    
   156   79  200 1    
   157   80   81 1    
   158   80   82 1    
   159   80  201 1    
   160   81  202 1    
   161   81  203 1    
   162   81  204 1    
   163   82   83 2    
   164   82   84 am   BACKBONE|DICT|INTERRES
   165   84   85 1    
   166   84  205 1    
   167   85   86 1    
   168   85   87 1    
   169   85  206 1    
   170   86  207 1    
   171   86  208 1    
   172   86  209 1    
   173   87   88 2    
   174   87   89 am   BACKBONE|DICT|INTERRES
   175   89   90 1    
   176   89  210 1    
   177   90   91 1    
   178   90   92 1    
   179   90  211 1    
   180   91  212 1    
   181   91  213 1    
   182   91  214 1    
   183   92   93 2    
   184   92   94 am   BACKBONE|DICT|INTERRES
   185   94   95 1    
   186   94  215 1    
   187   95   96 1    
   188   95   97 1    
   189   95  216 1    
   190   96  217 1    
   191   96  218 1    
   192   96  219 1    
   193   97   98 2    
   194   97   99 am   BACKBONE|DICT|INTERRES
   195   99  100 1    
   196   99  220 1    
   197  100  101 1    
   198  100  102 1    
   199  100  221 1    
   200  101  222 1    
   201  101  223 1    
   202  101  224 1    
   203  102  103 2    
   204  102  104 am   BACKBONE|DICT|INTERRES
   205  104  105 1    
   206  104  225 1    
   207  105  106 1    
   208  105  107 1    
   209  105  226 1    
   210  106  227 1    
   211  106  228 1    
   212  106  229 1    
   213  107  108 2    
   214  107  109 am   BACKBONE|DICT|INTERRES
   215  109  110 1    
   216  109  230 1    
   217  110  111 1    
   218  110  112 1    
   219  110  231 1    
   220  111  232 1    
   221  111  233 1    
   222  111  234 1    
   223  112  113 2    
   224  112  114 am   BACKBONE|DICT|INTERRES
   225  114  115 1    
   226  114  235 1    
   227  115  116 1    
   228  115  117 1    
   229  115  236 1    
   230  116  237 1    
   231  116  238 1    
   232  116  239 1    
   233  117  118 2    
   234  117  119 am   BACKBONE|DICT|INTERRES
   235  119  120 1    
   236  119  240 1    
   237  120  121 1    
   238  120  124 1    
   239  120  241 1    
   240  121  122 am   BACKBONE|DICT|INTERRES
   241  121  123 2    
   242  122  242 1    
   243  122  243 1    
   244  124  125 1    
   245  124  244 1    
   246  124  245 1    
   247  125  126 1    
   248  126  246 1    
   249  126  247 1    
@<TRIPOS>SUBSTRUCTURE
     1 UNK         1 GROUP             0       ****    0 ROOT    
