@<TRIPOS>MOLECULE
3R540
247   249    1
SMALL
USER_CHARGES


@<TRIPOS>ATOM
      1 CA         -2.5160  -12.6726  -49.2686 C.3       0 UNK        -0.1800 
      2 C          -1.9554  -12.6698  -47.8486 C.2       0 UNK         0.5000 
      3 O          -2.7298  -12.5855  -46.8994 O.2       0 UNK        -0.5000 
      4 N          -0.6337  -12.7441  -47.6521 N.am      1 UNK        -0.5000 
      5 CA          0.4173  -12.7295  -48.6697 C.3       1 UNK         0.1400 
      6 C6          0.6961  -14.1344  -49.2800 C.3       23 UNK        -0.0398 
      7 S7          1.8535  -15.2402  -48.3866 S.3       23 UNK        -0.2404 
      8 C8          2.5244  -16.2534  -49.7513 C.3       23 UNK        -0.0205 
      9 C9          1.5945  -17.3835  -50.1919 C.ar      23 UNK        -0.0193 
     10 C10         0.3928  -17.1032  -50.8505 C.ar      23 UNK        -0.1150 
     11 C11        -0.4432  -18.1315  -51.2901 C.ar      23 UNK        -0.0193 
     12 C12        -0.0487  -19.4584  -51.0990 C.ar      23 UNK        -0.1150 
     13 C13         1.1569  -19.7661  -50.4642 C.ar      23 UNK        -0.0193 
     14 C14         1.9697  -18.7195  -50.0049 C.ar      23 UNK        -0.1150 
     15 C15         1.5618  -21.2373  -50.3500 C.3       23 UNK        -0.0205 
     16 S16         2.6117  -21.6585  -48.9186 S.3       23 UNK        -0.2404 
     17 C17         1.5300  -21.1863  -47.5317 C.3       23 UNK        -0.0398 
     18 CA          0.8535  -22.3793  -46.8179 C.3       11 UNK         0.1400 
     19 N           0.3245  -21.9752  -45.5157 N.am      11 UNK        -0.5000 
     20 C          -0.1841  -22.7943  -44.5876 C.2       10 UNK         0.5000 
     21 O          -0.2267  -24.0175  -44.7048 O.2       10 UNK        -0.5000 
     22 CA         -0.7845  -22.1308  -43.3351 C.3       10 UNK         0.1400 
     23 CB          0.3167  -21.7778  -42.3248 C.3       10 UNK        -0.1800 
     24 N          -1.5692  -20.9352  -43.6496 N.am      10 UNK        -0.5000 
     25 C          -2.6916  -20.9387  -44.3840 C.2       9 UNK         0.5000 
     26 O          -3.2028  -21.9597  -44.8438 O.2       9 UNK        -0.5000 
     27 CA         -3.3275  -19.5718  -44.6939 C.3       9 UNK         0.1400 
     28 CB         -4.0997  -19.0345  -43.4800 C.3       9 UNK        -0.1800 
     29 N          -2.3452  -18.5806  -45.1268 N.am      9 UNK        -0.5000 
     30 C          -1.6051  -18.6772  -46.2408 C.2       8 UNK         0.5000 
     31 O          -1.6785  -19.6109  -47.0404 O.2       8 UNK        -0.5000 
     32 CA         -0.5634  -17.5667  -46.4618 C.3       8 UNK         0.1400 
     33 CB         -1.2517  -16.2803  -46.9417 C.3       8 UNK        -0.1800 
     34 N           0.2148  -17.2860  -45.2522 N.am      8 UNK        -0.5000 
     35 C           0.9663  -18.1839  -44.5979 C.2       7 UNK         0.5000 
     36 O           1.1197  -19.3448  -44.9661 O.2       7 UNK        -0.5000 
     37 CA          1.6084  -17.7397  -43.2749 C.3       7 UNK         0.1400 
     38 CB          2.8967  -16.9442  -43.5225 C.3       7 UNK        -0.1800 
     39 N           0.6836  -16.9630  -42.4528 N.am      7 UNK        -0.5000 
     40 C          -0.4215  -17.4642  -41.8814 C.2       6 UNK         0.5000 
     41 O          -0.7542  -18.6473  -41.9494 O.2       6 UNK        -0.5000 
     42 CA         -1.3281  -16.4593  -41.1491 C.3       6 UNK         0.1400 
     43 CB         -0.8339  -16.2275  -39.7136 C.3       6 UNK        -0.1800 
     44 N          -1.4060  -15.1769  -41.8503 N.am      6 UNK        -0.5000 
     45 C          -1.9812  -15.0093  -43.0497 C.2       5 UNK         0.5000 
     46 O          -2.5582  -15.9089  -43.6611 O.2       5 UNK        -0.5000 
     47 CA         -1.8337  -13.6167  -43.6897 C.3       5 UNK         0.1400 
     48 CB         -2.9201  -12.6596  -43.1780 C.3       5 UNK        -0.1800 
     49 N          -0.5089  -13.0272  -43.4614 N.am      5 UNK        -0.5000 
     50 C           0.6172  -13.5143  -43.9962 C.2       4 UNK         0.5000 
     51 O           0.6357  -14.4754  -44.7687 O.2       4 UNK        -0.5000 
     52 CA          1.9412  -12.8663  -43.5652 C.3       4 UNK         0.1400 
     53 CB          2.2988  -13.3226  -42.1337 C.3       4 UNK        -0.1800 
     54 N           2.9544  -13.2730  -44.5373 N.am      4 UNK        -0.5000 
     55 C           4.2700  -13.0330  -44.5329 C.2       3 UNK         0.5000 
     56 O           4.8640  -12.4069  -43.6547 O.2       3 UNK        -0.5000 
     57 CA          5.0460  -13.5567  -45.7565 C.3       3 UNK         0.1400 
     58 CB          4.9933  -15.0907  -45.8549 C.3       3 UNK        -0.1800 
     59 N           4.5315  -12.9715  -46.9939 N.am      3 UNK        -0.5000 
     60 C           4.7111  -11.6926  -47.3535 C.2       2 UNK         0.5000 
     61 O           5.4300  -10.9038  -46.7385 O.2       2 UNK        -0.5000 
     62 CA          3.9620  -11.1995  -48.6080 C.3       2 UNK         0.1400 
     63 CB          4.8807  -11.2627  -49.8381 C.3       2 UNK        -0.1800 
     64 N           2.7202  -11.9196  -48.9081 N.am      2 UNK        -0.5000 
     65 C           1.6483  -11.9919  -48.1061 C.2       1 UNK         0.5000 
     66 O           1.6020  -11.4925  -46.9782 O.2       1 UNK        -0.5000 
     67 C          -0.2333  -23.0440  -47.6875 C.2       11 UNK         0.5000 
     68 O          -0.0008  -24.1305  -48.2174 O.2       11 UNK        -0.5000 
     69 N          -1.4147  -22.4149  -47.7750 N.am      12 UNK        -0.5000 
     70 CA         -2.5845  -22.9507  -48.4735 C.3       12 UNK         0.1400 
     71 CB         -3.6936  -21.8897  -48.5099 C.3       12 UNK        -0.1800 
     72 C          -3.0992  -24.2663  -47.8594 C.2       12 UNK         0.5000 
     73 O          -3.4491  -25.1838  -48.6011 O.2       12 UNK        -0.5000 
     74 N          -3.1013  -24.3557  -46.5216 N.am      13 UNK        -0.5000 
     75 CA         -3.4528  -25.5654  -45.7769 C.3       13 UNK         0.1400 
     76 CB         -3.5859  -25.2395  -44.2819 C.3       13 UNK        -0.1800 
     77 C          -2.4533  -26.7147  -46.0055 C.2       13 UNK         0.5000 
     78 O          -2.8808  -27.8483  -46.2225 O.2       13 UNK        -0.5000 
     79 N          -1.1496  -26.4017  -45.9930 N.am      14 UNK        -0.5000 
     80 CA         -0.0590  -27.3424  -46.2635 C.3       14 UNK         0.1400 
     81 CB          1.2863  -26.6839  -45.9222 C.3       14 UNK        -0.1800 
     82 C          -0.0597  -27.8599  -47.7140 C.2       14 UNK         0.5000 
     83 O           0.1827  -29.0466  -47.9368 O.2       14 UNK        -0.5000 
     84 N          -0.3666  -26.9710  -48.6684 N.am      15 UNK        -0.5000 
     85 CA         -0.5509  -27.2914  -50.0860 C.3       15 UNK         0.1400 
     86 CB         -0.4930  -25.9872  -50.8964 C.3       15 UNK        -0.1800 
     87 C          -1.8631  -28.0500  -50.3787 C.2       15 UNK         0.5000 
     88 O          -1.9955  -28.6246  -51.4598 O.2       15 UNK        -0.5000 
     89 N          -2.8029  -28.0255  -49.4217 N.am      16 UNK        -0.5000 
     90 CA         -4.1542  -28.5950  -49.4553 C.3       16 UNK         0.1400 
     91 CB         -4.1065  -30.1307  -49.5952 C.3       16 UNK        -0.1800 
     92 C          -5.0825  -27.9233  -50.4909 C.2       16 UNK         0.5000 
     93 O          -6.0782  -28.5226  -50.9009 O.2       16 UNK        -0.5000 
     94 N          -4.7558  -26.6849  -50.8748 N.am      17 UNK        -0.5000 
     95 CA         -5.4666  -25.8411  -51.8266 C.3       17 UNK         0.1400 
     96 CB         -5.4115  -26.4359  -53.2479 C.3       17 UNK        -0.1800 
     97 C          -4.8079  -24.4570  -51.8128 C.2       17 UNK         0.5000 
     98 O          -3.5828  -24.3648  -51.7069 O.2       17 UNK        -0.5000 
     99 N          -5.6215  -23.4058  -51.9505 N.am      18 UNK        -0.5000 
    100 CA        -5.1494  -22.0346  -52.1177 C.3       18 UNK         0.1400 
    101 CB        -6.2778  -21.0648  -51.7367 C.3       18 UNK        -0.1800 
    102 C         -4.6811  -21.8200  -53.5681 C.2       18 UNK         0.5000 
    103 O         -5.4360  -22.1041  -54.5009 O.2       18 UNK        -0.5000 
    104 N         -3.4445  -21.3366  -53.7298 N.am      19 UNK        -0.5000 
    105 CA        -2.8185  -21.0603  -55.0252 C.3       19 UNK         0.1400 
    106 CB        -1.2967  -20.9784  -54.8256 C.3       19 UNK        -0.1800 
    107 C         -3.3434  -19.7733  -55.6931 C.2       19 UNK         0.5000 
    108 O         -3.2392  -19.6354  -56.9125 O.2       19 UNK        -0.5000 
    109 N         -3.8896  -18.8600  -54.8853 N.am      20 UNK        -0.5000 
    110 CA        -4.4661  -17.5781  -55.2716 C.3       20 UNK         0.1400 
    111 CB        -3.3453  -16.5628  -55.5868 C.3       20 UNK        -0.1800 
    112 C         -5.3990  -17.1280  -54.1328 C.2       20 UNK         0.5000 
    113 O         -5.9358  -17.9747  -53.4143 O.2       20 UNK        -0.5000 
    114 N         -5.5570  -15.8131  -53.9445 N.am      21 UNK        -0.5000 
    115 CA        -6.2745  -15.2096  -52.8203 C.3       21 UNK         0.1400 
    116 CB        -6.7571  -13.8085  -53.2374 C.3       21 UNK        -0.1800 
    117 C         -5.3853  -15.1826  -51.5583 C.2       21 UNK         0.5000 
    118 O         -5.0042  -14.1078  -51.0924 O.2       21 UNK        -0.5000 
    119 N         -5.0418  -16.3712  -51.0475 N.am      22 UNK        -0.5000 
    120 CA        -4.1287  -16.6268  -49.9153 C.3       22 UNK         0.1400 
    121 C         -4.6723  -16.1786  -48.5202 C.2       22 UNK         0.5000 
    122 N         -5.3138  -15.0246  -48.4138 N.am      22 UNK        -0.7600 
    123 O         -4.5242  -16.8800  -47.5242 O.2       22 UNK        -0.5000 
    124 C124       -3.6098  -18.0956  -49.8987 C.3       23 UNK        -0.0398 
    125 S125       -3.1623  -18.7945  -51.5250 S.3       23 UNK        -0.2404 
    126 C126       -1.7277  -17.7946  -52.0380 C.3       23 UNK        -0.0205 
    127 H127       -3.6052  -12.6441  -49.2421 H         1 UNK         0.0600 
    128 H128       -2.2254  -13.5712  -49.8107 H         1 UNK         0.0600 
    129 H129       -2.1811  -11.7975  -49.8246 H         1 UNK         0.0600 
    130 H130       -0.2713  -12.6956  -46.7090 H         1 UNK         0.3000 
    131 H131        0.0775  -12.0858  -49.4824 H         1 UNK         0.0600 
    132 H132        1.0750  -13.9980  -50.2934 H         1 UNK         0.0800 
    133 H133       -0.2440  -14.6719  -49.3919 H         1 UNK         0.0800 
    134 H134        2.7601  -15.6202  -50.6074 H         1 UNK         0.0800 
    135 H135        3.4780  -16.6661  -49.4190 H         1 UNK         0.0800 
    136 H136        0.1145  -16.0817  -51.0529 H         1 UNK         0.1150 
    137 H137       -0.6746  -20.2582  -51.4683 H         1 UNK         0.1150 
    138 H138        2.9126  -18.9414  -49.5265 H         1 UNK         0.1150 
    139 H139        0.6720  -21.8681  -50.3164 H         1 UNK         0.0800 
    140 H140        2.0965  -21.5136  -51.2594 H         1 UNK         0.0800 
    141 H141        0.7926  -20.4464  -47.8450 H         1 UNK         0.0800 
    142 H142        2.1832  -20.6698  -46.8292 H         1 UNK         0.0800 
    143 H143        1.6196  -23.1324  -46.6218 H         1 UNK         0.0600 
    144 H144        0.3714  -20.9796  -45.3087 H         1 UNK         0.3000 
    145 H145       -1.4545  -22.8540  -42.8660 H         1 UNK         0.0600 
    146 H146       -0.1078  -21.3818  -41.4022 H         1 UNK         0.0600 
    147 H147        0.9028  -22.6592  -42.0618 H         1 UNK         0.0600 
    148 H148        1.0047  -21.0317  -42.7231 H         1 UNK         0.0600 
    149 H149       -1.2281  -20.0554  -43.2741 H         1 UNK         0.3000 
    150 H150       -4.0362  -19.7123  -45.5127 H         1 UNK         0.0600 
    151 H151       -4.8553  -19.7486  -43.1503 H         1 UNK         0.0600 
    152 H152       -4.6137  -18.1041  -43.7227 H         1 UNK         0.0600 
    153 H153       -3.4394  -18.8391  -42.6347 H         1 UNK         0.0600 
    154 H154       -2.2423  -17.7547  -44.5464 H         1 UNK         0.3000 
    155 H155        0.1358  -17.8939  -47.2344 H         1 UNK         0.0600 
    156 H156       -0.5681  -15.4359  -46.9349 H         1 UNK         0.0600 
    157 H157       -1.6175  -16.3960  -47.9613 H         1 UNK         0.0600 
    158 H158       -2.1011  -16.0081  -46.3150 H         1 UNK         0.0600 
    159 H159        0.1942  -16.3271  -44.9174 H         1 UNK         0.3000 
    160 H160        1.8757  -18.6401  -42.7176 H         1 UNK         0.0600 
    161 H161        2.6990  -16.0194  -44.0607 H         1 UNK         0.0600 
    162 H162        3.6028  -17.5239  -44.1181 H         1 UNK         0.0600 
    163 H163        3.3932  -16.6915  -42.5858 H         1 UNK         0.0600 
    164 H164        0.8589  -15.9738  -42.3779 H         1 UNK         0.3000 
    165 H165       -2.3322  -16.8864  -41.1024 H         1 UNK         0.0600 
    166 H166       -1.5094  -15.5703  -39.1656 H         1 UNK         0.0600 
    167 H167       -0.7803  -17.1681  -39.1638 H         1 UNK         0.0600 
    168 H168        0.1602  -15.7790  -39.6949 H         1 UNK         0.0600 
    169 H169       -0.9621  -14.3851  -41.4099 H         1 UNK         0.3000 
    170 H170       -1.9677  -13.7462  -44.7638 H         1 UNK         0.0600 
    171 H171       -3.9146  -13.0739  -43.3485 H         1 UNK         0.0600 
    172 H172       -2.8213  -12.4677  -42.1090 H         1 UNK         0.0600 
    173 H173       -2.8758  -11.7029  -43.6989 H         1 UNK         0.0600 
    174 H174       -0.4634  -12.2326  -42.8397 H         1 UNK         0.3000 
    175 H175        1.8334  -11.7810  -43.6021 H         1 UNK         0.0600 
    176 H176        1.4808  -13.1308  -41.4386 H         1 UNK         0.0600 
    177 H177        2.5210  -14.3884  -42.0918 H         1 UNK         0.0600 
    178 H178        3.1643  -12.7876  -41.7448 H         1 UNK         0.0600 
    179 H179        2.5565  -13.7956  -45.3083 H         1 UNK         0.3000 
    180 H180        6.0921  -13.2651  -45.6402 H         1 UNK         0.0600 
    181 H181        3.9858  -15.4541  -46.0591 H         1 UNK         0.0600 
    182 H182        5.3307  -15.5533  -44.9266 H         1 UNK         0.0600 
    183 H183        5.6422  -15.4533  -46.6522 H         1 UNK         0.0600 
    184 H184        3.9193  -13.5460  -47.5546 H         1 UNK         0.3000 
    185 H185        3.6985  -10.1542  -48.4336 H         1 UNK         0.0600 
    186 H186        5.8067  -10.7128  -49.6640 H         1 UNK         0.0600 
    187 H187        5.1510  -12.2902  -50.0851 H         1 UNK         0.0600 
    188 H188        4.4028  -10.8203  -50.7123 H         1 UNK         0.0600 
    189 H189        2.6803  -12.3593  -49.8157 H         1 UNK         0.3000 
    190 H190       -1.5256  -21.5037  -47.3366 H         1 UNK         0.3000 
    191 H191       -2.2873  -23.1633  -49.5024 H         1 UNK         0.0600 
    192 H192       -3.9845  -21.5759  -47.5070 H         1 UNK         0.0600 
    193 H193       -4.5858  -22.2715  -49.0075 H         1 UNK         0.0600 
    194 H194       -3.3671  -21.0045  -49.0551 H         1 UNK         0.0600 
    195 H195       -2.8584  -23.5354  -45.9739 H         1 UNK         0.3000 
    196 H196       -4.4286  -25.9014  -46.1339 H         1 UNK         0.0600 
    197 H197       -3.8769  -26.1241  -43.7143 H         1 UNK         0.0600 
    198 H198       -4.3475  -24.4784  -44.1114 H         1 UNK         0.0600 
    199 H199       -2.6492  -24.8739  -43.8621 H         1 UNK         0.0600 
    200 H200       -0.8769  -25.4524  -45.7497 H         1 UNK         0.3000 
    201 H201       -0.1909  -28.2035  -45.6053 H         1 UNK         0.0600 
    202 H202        1.3275  -26.3947  -44.8719 H         1 UNK         0.0600 
    203 H203        1.4608  -25.7898  -46.5216 H         1 UNK         0.0600 
    204 H204        2.1151  -27.3692  -46.1037 H         1 UNK         0.0600 
    205 H205       -0.4748  -25.9937  -48.4085 H         1 UNK         0.3000 
    206 H206        0.2748  -27.9299  -50.4063 H         1 UNK         0.0600 
    207 H207        0.4667  -25.4859  -50.7696 H         1 UNK         0.0600 
    208 H208       -0.6240  -26.1772  -51.9624 H         1 UNK         0.0600 
    209 H209       -1.2746  -25.2920  -50.5885 H         1 UNK         0.0600 
    210 H210       -2.5911  -27.4932  -48.5879 H         1 UNK         0.3000 
    211 H211       -4.5902  -28.3707  -48.4810 H         1 UNK         0.0600 
    212 H212       -3.7581  -30.4383  -50.5814 H         1 UNK         0.0600 
    213 H213       -5.0948  -30.5676  -49.4485 H         1 UNK         0.0600 
    214 H214       -3.4444  -30.5730  -48.8508 H         1 UNK         0.0600 
    215 H215       -3.9577  -26.2353  -50.4350 H         1 UNK         0.3000 
    216 H216       -6.5056  -25.7497  -51.5042 H         1 UNK         0.0600 
    217 H217       -4.3831  -26.6109  -53.5669 H         1 UNK         0.0600 
    218 H218       -5.8695  -25.7607  -53.9720 H         1 UNK         0.0600 
    219 H219       -5.9471  -27.3826  -53.3116 H         1 UNK         0.0600 
    220 H220       -6.6109  -23.5581  -52.0821 H         1 UNK         0.3000 
    221 H221       -4.3115  -21.8597  -51.4396 H         1 UNK         0.0600 
    222 H222       -6.6234  -21.2422  -50.7183 H         1 UNK         0.0600 
    223 H223       -7.1350  -21.1557  -52.4049 H         1 UNK         0.0600 
    224 H224       -5.9340  -20.0323  -51.7824 H         1 UNK         0.0600 
    225 H225       -2.8911  -21.1276  -52.9115 H         1 UNK         0.3000 
    226 H226       -3.0304  -21.8929  -55.6995 H         1 UNK         0.0600 
    227 H227       -0.7871  -20.8013  -55.7736 H         1 UNK         0.0600 
    228 H228       -1.0209  -20.1688  -54.1492 H         1 UNK         0.0600 
    229 H229       -0.9019  -21.9078  -54.4146 H         1 UNK         0.0600 
    230 H230       -3.9999  -19.0849  -53.9042 H         1 UNK         0.3000 
    231 H231       -5.0833  -17.7223  -56.1603 H         1 UNK         0.0600 
    232 H232       -2.7561  -16.3266  -54.7000 H         1 UNK         0.0600 
    233 H233       -3.7512  -15.6295  -55.9781 H         1 UNK         0.0600 
    234 H234       -2.6618  -16.9467  -56.3440 H         1 UNK         0.0600 
    235 H235       -5.0605  -15.1751  -54.5493 H         1 UNK         0.3000 
    236 H236       -7.1579  -15.8084  -52.5882 H         1 UNK         0.0600 
    237 H237       -7.4234  -13.8622  -54.0985 H         1 UNK         0.0600 
    238 H238       -7.3111  -13.3297  -52.4290 H         1 UNK         0.0600 
    239 H239       -5.9242  -13.1543  -53.4984 H         1 UNK         0.0600 
    240 H240       -5.3838  -17.1964  -51.5262 H         1 UNK         0.3000 
    241 H241       -3.2530  -15.9971  -50.0786 H         1 UNK         0.0600 
    242 H242       -5.6654  -14.7225  -47.5198 H         1 UNK         0.3800 
    243 H243       -5.3983  -14.4313  -49.2324 H         1 UNK         0.3800 
    244 H244       -4.3749  -18.7516  -49.4804 H         1 UNK         0.0800 
    245 H245       -2.7459  -18.1872  -49.2387 H         1 UNK         0.0800 
    246 H246       -1.5526  -17.9665  -53.1002 H         1 UNK         0.0800 
    247 H247       -1.9743  -16.7368  -51.9419 H         1 UNK         0.0800 
@<TRIPOS>BOND
     1    1    2 1    
     2    1  127 1    
     3    1  128 1    
     4    1  129 1    
     5    2    3 2    
     6    2    4 am   BACKBONE|DICT|INTERRES
     7    4    5 1    
     8    4  130 1    
     9    5    6 1    
    10    5   65 1    
    11    5  131 1    
    12    6    7 1    
    13    6  132 1    
    14    6  133 1    
    15    7    8 1    
    16    8    9 1    
    17    8  134 1    
    18    8  135 1    
    19    9   10 ar   
    20    9   14 ar   
    21   10   11 ar   
    22   10  136 1    
    23   11   12 ar   
    24   11  126 1    
    25   12   13 ar   
    26   12  137 1    
    27   13   14 ar   
    28   13   15 1    
    29   14  138 1    
    30   15   16 1    
    31   15  139 1    
    32   15  140 1    
    33   16   17 1    
    34   17   18 1    
    35   17  141 1    
    36   17  142 1    
    37   18   19 1    
    38   18   67 1    
    39   18  143 1    
    40   19   20 am   BACKBONE|DICT|INTERRES
    41   19  144 1    
    42   20   21 2    
    43   20   22 1    
    44   22   23 1    
    45   22   24 1    
    46   22  145 1    
    47   23  146 1    
    48   23  147 1    
    49   23  148 1    
    50   24   25 am   BACKBONE|DICT|INTERRES
    51   24  149 1    
    52   25   26 2    
    53   25   27 1    
    54   27   28 1    
    55   27   29 1    
    56   27  150 1    
    57   28  151 1    
    58   28  152 1    
    59   28  153 1    
    60   29   30 am   BACKBONE|DICT|INTERRES
    61   29  154 1    
    62   30   31 2    
    63   30   32 1    
    64   32   33 1    
    65   32   34 1    
    66   32  155 1    
    67   33  156 1    
    68   33  157 1    
    69   33  158 1    
    70   34   35 am   BACKBONE|DICT|INTERRES
    71   34  159 1    
    72   35   36 2    
    73   35   37 1    
    74   37   38 1    
    75   37   39 1    
    76   37  160 1    
    77   38  161 1    
    78   38  162 1    
    79   38  163 1    
    80   39   40 am   BACKBONE|DICT|INTERRES
    81   39  164 1    
    82   40   41 2    
    83   40   42 1    
    84   42   43 1    
    85   42   44 1    
    86   42  165 1    
    87   43  166 1    
    88   43  167 1    
    89   43  168 1    
    90   44   45 am   BACKBONE|DICT|INTERRES
    91   44  169 1    
    92   45   46 2    
    93   45   47 1    
    94   47   48 1    
    95   47   49 1    
    96   47  170 1    
    97   48  171 1    
    98   48  172 1    
    99   48  173 1    
   100   49   50 am   BACKBONE|DICT|INTERRES
   101   49  174 1    
   102   50   51 2    
   103   50   52 1    
   104   52   53 1    
   105   52   54 1    
   106   52  175 1    
   107   53  176 1    
   108   53  177 1    
   109   53  178 1    
   110   54   55 am   BACKBONE|DICT|INTERRES
   111   54  179 1    
   112   55   56 2    
   113   55   57 1    
   114   57   58 1    
   115   57   59 1    
   116   57  180 1    
   117   58  181 1    
   118   58  182 1    
   119   58  183 1    
   120   59   60 am   BACKBONE|DICT|INTERRES
   121   59  184 1    
   122   60   61 2    
   123   60   62 1    
   124   62   63 1    
   125   62   64 1    
   126   62  185 1    
   127   63  186 1    
   128   63  187 1    
   129   63  188 1    
   130   64   65 am   BACKBONE|DICT|INTERRES
   131   64  189 1    
   132   65   66 2    
   133   67   68 2    
   134   67   69 am   BACKBONE|DICT|INTERRES
   135   69   70 1    
   136   69  190 1    
   137   70   71 1    
   138   70   72 1    
   139   70  191 1    
   140   71  192 1    
   141   71  193 1    
   142   71  194 1    
   143   72   73 2    
   144   72   74 am   BACKBONE|DICT|INTERRES
   145   74   75 1    
   146   74  195 1    
   147   75   76 1    
   148   75   77 1    
   149   75  196 1    
   150   76  197 1    
   151   76  198 1    
   152   76  199 1    
   153   77   78 2    
   154   77   79 am   BACKBONE|DICT|INTERRES
   155   79   80 1    
   156   79  200 1    
   157   80   81 1    
   158   80   82 1    
   159   80  201 1    
   160   81  202 1    
   161   81  203 1    
   162   81  204 1    
   163   82   83 2    
   164   82   84 am   BACKBONE|DICT|INTERRES
   165   84   85 1    
   166   84  205 1    
   167   85   86 1    
   168   85   87 1    
   169   85  206 1    
   170   86  207 1    
   171   86  208 1    
   172   86  209 1    
   173   87   88 2    
   174   87   89 am   BACKBONE|DICT|INTERRES
   175   89   90 1    
   176   89  210 1    
   177   90   91 1    
   178   90   92 1    
   179   90  211 1    
   180   91  212 1    
   181   91  213 1    
   182   91  214 1    
   183   92   93 2    
   184   92   94 am   BACKBONE|DICT|INTERRES
   185   94   95 1    
   186   94  215 1    
   187   95   96 1    
   188   95   97 1    
   189   95  216 1    
   190   96  217 1    
   191   96  218 1    
   192   96  219 1    
   193   97   98 2    
   194   97   99 am   BACKBONE|DICT|INTERRES
   195   99  100 1    
   196   99  220 1    
   197  100  101 1    
   198  100  102 1    
   199  100  221 1    
   200  101  222 1    
   201  101  223 1    
   202  101  224 1    
   203  102  103 2    
   204  102  104 am   BACKBONE|DICT|INTERRES
   205  104  105 1    
   206  104  225 1    
   207  105  106 1    
   208  105  107 1    
   209  105  226 1    
   210  106  227 1    
   211  106  228 1    
   212  106  229 1    
   213  107  108 2    
   214  107  109 am   BACKBONE|DICT|INTERRES
   215  109  110 1    
   216  109  230 1    
   217  110  111 1    
   218  110  112 1    
   219  110  231 1    
   220  111  232 1    
   221  111  233 1    
   222  111  234 1    
   223  112  113 2    
   224  112  114 am   BACKBONE|DICT|INTERRES
   225  114  115 1    
   226  114  235 1    
   227  115  116 1    
   228  115  117 1    
   229  115  236 1    
   230  116  237 1    
   231  116  238 1    
   232  116  239 1    
   233  117  118 2    
   234  117  119 am   BACKBONE|DICT|INTERRES
   235  119  120 1    
   236  119  240 1    
   237  120  121 1    
   238  120  124 1    
   239  120  241 1    
   240  121  122 am   BACKBONE|DICT|INTERRES
   241  121  123 2    
   242  122  242 1    
   243  122  243 1    
   244  124  125 1    
   245  124  244 1    
   246  124  245 1    
   247  125  126 1    
   248  126  246 1    
   249  126  247 1    
@<TRIPOS>SUBSTRUCTURE
     1 UNK         1 GROUP             0       ****    0 ROOT    
