@<TRIPOS>MOLECULE
3R540
247   249    1
SMALL
USER_CHARGES


@<TRIPOS>ATOM
      1 CA          6.5784  -17.4021  -51.2474 C.3       0 UNK        -0.1800 
      2 C           5.3543  -17.5458  -50.3546 C.2       0 UNK         0.5000 
      3 O           4.9442  -18.6666  -50.0533 O.2       0 UNK        -0.5000 
      4 N           4.7773  -16.4177  -49.9228 N.am      1 UNK        -0.5000 
      5 CA          3.5784  -16.3160  -49.0791 C.3       1 UNK         0.1400 
      6 C6          2.8980  -14.9281  -49.2250 C.3       23 UNK        -0.0398 
      7 S7          2.4848  -14.5216  -50.9583 S.3       23 UNK        -0.2404 
      8 C8          0.6772  -14.2703  -50.8881 C.3       23 UNK        -0.0205 
      9 C9         -0.1486  -15.5187  -50.5801 C.ar      23 UNK        -0.0193 
     10 C10        -1.3831  -15.3689  -49.9432 C.ar      23 UNK        -0.1150 
     11 C11        -2.1942  -16.4761  -49.6761 C.ar      23 UNK        -0.0193 
     12 C12        -1.7480  -17.7539  -50.0250 C.ar      23 UNK        -0.1150 
     13 C13        -0.5138  -17.9228  -50.6598 C.ar      23 UNK        -0.0193 
     14 C14         0.2691  -16.8017  -50.9520 C.ar      23 UNK        -0.1150 
     15 C15        -0.0329  -19.3149  -51.0464 C.3       23 UNK        -0.0205 
     16 S16         1.5918  -19.7272  -50.3248 S.3       23 UNK        -0.2404 
     17 C17         1.2478  -19.6778  -48.5335 C.3       23 UNK        -0.0398 
     18 CA          1.0987  -21.0869  -47.9193 C.3       11 UNK         0.1400 
     19 N           1.3735  -21.0964  -46.4806 N.am      11 UNK        -0.5000 
     20 C           1.4797  -22.2083  -45.7384 C.2       10 UNK         0.5000 
     21 O           1.4517  -23.3471  -46.2035 O.2       10 UNK        -0.5000 
     22 CA          1.5627  -22.0228  -44.2149 C.3       10 UNK         0.1400 
     23 CB          3.0143  -21.8776  -43.7388 C.3       10 UNK        -0.1800 
     24 N           0.7659  -20.8829  -43.7619 N.am      10 UNK        -0.5000 
     25 C          -0.5727  -20.8940  -43.7084 C.2       9 UNK         0.5000 
     26 O          -1.2576  -21.8641  -44.0305 O.2       9 UNK        -0.5000 
     27 CA         -1.2677  -19.6058  -43.2367 C.3       9 UNK         0.1400 
     28 CB         -1.3020  -19.5589  -41.7024 C.3       9 UNK        -0.1800 
     29 N          -0.6677  -18.3730  -43.7500 N.am      9 UNK        -0.5000 
     30 C          -0.5515  -18.0500  -45.0462 C.2       8 UNK         0.5000 
     31 O          -0.8611  -18.8056  -45.9697 O.2       8 UNK        -0.5000 
     32 CA         -0.0060  -16.6380  -45.3365 C.3       8 UNK         0.1400 
     33 CB         -0.0949  -16.2310  -46.8169 C.3       8 UNK        -0.1800 
     34 N          -0.6103  -15.6227  -44.4686 N.am      8 UNK        -0.5000 
     35 C          -1.8880  -15.2142  -44.4516 C.2       7 UNK         0.5000 
     36 O          -2.7665  -15.6559  -45.1935 O.2       7 UNK        -0.5000 
     37 CA         -2.2182  -14.1029  -43.4335 C.3       7 UNK         0.1400 
     38 CB         -3.7325  -13.8919  -43.2203 C.3       7 UNK        -0.1800 
     39 N          -1.5126  -14.2750  -42.1586 N.am      7 UNK        -0.5000 
     40 C          -1.6849  -15.2533  -41.2549 C.2       6 UNK         0.5000 
     41 O          -2.5223  -16.1472  -41.3735 O.2       6 UNK        -0.5000 
     42 CA         -0.7599  -15.2401  -40.0184 C.3       6 UNK         0.1400 
     43 CB         -0.3545  -16.6613  -39.5888 C.3       6 UNK        -0.1800 
     44 N           0.4573  -14.4712  -40.2736 N.am      6 UNK        -0.5000 
     45 C           0.7095  -13.2307  -39.8363 C.2       5 UNK         0.5000 
     46 O          -0.0459  -12.5998  -39.0967 O.2       5 UNK        -0.5000 
     47 CA          2.0147  -12.5680  -40.3267 C.3       5 UNK         0.1400 
     48 CB          3.0997  -12.6568  -39.2428 C.3       5 UNK        -0.1800 
     49 N           2.5413  -13.1398  -41.5701 N.am      5 UNK        -0.5000 
     50 C           1.9363  -13.0862  -42.7653 C.2       4 UNK         0.5000 
     51 O           0.8593  -12.5238  -42.9621 O.2       4 UNK        -0.5000 
     52 CA          2.6174  -13.8476  -43.9189 C.3       4 UNK         0.1400 
     53 CB          3.6364  -12.9370  -44.6204 C.3       4 UNK        -0.1800 
     54 N           3.2793  -15.0942  -43.5125 N.am      4 UNK        -0.5000 
     55 C           2.7118  -16.1150  -42.8521 C.2       3 UNK         0.5000 
     56 O           1.5391  -16.1093  -42.4706 O.2       3 UNK        -0.5000 
     57 CA          3.6106  -17.3402  -42.5946 C.3       3 UNK         0.1400 
     58 CB          2.8551  -18.5187  -41.9483 C.3       3 UNK        -0.1800 
     59 N           4.3339  -17.7504  -43.8042 N.am      3 UNK        -0.5000 
     60 C           3.8212  -18.2516  -44.9379 C.2       2 UNK         0.5000 
     61 O           2.6450  -18.5908  -45.0912 O.2       2 UNK        -0.5000 
     62 CA          4.8208  -18.4368  -46.0946 C.3       2 UNK         0.1400 
     63 CB          5.1523  -19.9240  -46.2883 C.3       2 UNK        -0.1800 
     64 N           4.3492  -17.8935  -47.3681 N.am      2 UNK        -0.5000 
     65 C           3.9175  -16.6480  -47.6064 C.2       1 UNK         0.5000 
     66 O           3.8357  -15.7762  -46.7407 O.2       1 UNK        -0.5000 
     67 C          -0.2899  -21.6808  -48.2215 C.2       11 UNK         0.5000 
     68 O          -0.4017  -22.5608  -49.0737 O.2       11 UNK        -0.5000 
     69 N          -1.3120  -21.2222  -47.4846 N.am      12 UNK        -0.5000 
     70 CA         -2.6837  -21.7206  -47.5721 C.3       12 UNK         0.1400 
     71 CB         -3.6009  -20.8661  -46.6860 C.3       12 UNK        -0.1800 
     72 C          -2.7984  -23.2138  -47.2151 C.2       12 UNK         0.5000 
     73 O          -3.5016  -23.9451  -47.9108 O.2       12 UNK        -0.5000 
     74 N          -2.0762  -23.6544  -46.1753 N.am      13 UNK        -0.5000 
     75 CA         -1.9790  -25.0590  -45.7763 C.3       13 UNK         0.1400 
     76 CB         -1.2312  -25.1731  -44.4397 C.3       13 UNK        -0.1800 
     77 C          -1.3158  -25.9378  -46.8531 C.2       13 UNK         0.5000 
     78 O          -1.8424  -27.0058  -47.1657 O.2       13 UNK        -0.5000 
     79 N          -0.2008  -25.4607  -47.4258 N.am      14 UNK        -0.5000 
     80 CA          0.5313  -26.1280  -48.5055 C.3       14 UNK         0.1400 
     81 CB          1.8706  -25.4121  -48.7377 C.3       14 UNK        -0.1800 
     82 C          -0.2726  -26.2154  -49.8164 C.2       14 UNK         0.5000 
     83 O          -0.2227  -27.2435  -50.4926 O.2       14 UNK        -0.5000 
     84 N          -1.0155  -25.1483  -50.1382 N.am      15 UNK        -0.5000 
     85 CA         -1.9009  -25.0633  -51.3006 C.3       15 UNK         0.1400 
     86 CB         -2.2534  -23.5869  -51.5486 C.3       15 UNK        -0.1800 
     87 C          -3.1904  -25.8968  -51.1599 C.2       15 UNK         0.5000 
     88 O          -3.8438  -26.1512  -52.1712 O.2       15 UNK        -0.5000 
     89 N          -3.5423  -26.2810  -49.9225 N.am      16 UNK        -0.5000 
     90 CA         -4.8111  -26.8895  -49.5068 C.3       16 UNK         0.1400 
     91 CB         -5.0112  -28.2803  -50.1441 C.3       16 UNK        -0.1800 
     92 C          -5.9853  -25.9198  -49.7519 C.2       16 UNK         0.5000 
     93 O          -6.9618  -26.2612  -50.4229 O.2       16 UNK        -0.5000 
     94 N          -5.8207  -24.6984  -49.2266 N.am      17 UNK        -0.5000 
     95 CA         -6.6303  -23.4928  -49.3988 C.3       17 UNK         0.1400 
     96 CB         -8.0948  -23.6949  -48.9614 C.3       17 UNK        -0.1800 
     97 C          -6.5118  -22.9190  -50.8195 C.2       17 UNK         0.5000 
     98 O          -5.9710  -21.8251  -50.9816 O.2       17 UNK        -0.5000 
     99 N          -7.0182  -23.6623  -51.8134 N.am      18 UNK        -0.5000 
    100 CA        -7.0342  -23.4142  -53.2646 C.3       18 UNK         0.1400 
    101 CB        -5.6024  -23.3964  -53.8296 C.3       18 UNK        -0.1800 
    102 C         -7.8011  -22.1619  -53.7406 C.2       18 UNK         0.5000 
    103 O         -8.3227  -22.1729  -54.8563 O.2       18 UNK        -0.5000 
    104 N         -7.8265  -21.1017  -52.9231 N.am      19 UNK        -0.5000 
    105 CA        -8.3644  -19.7545  -53.1434 C.3       19 UNK         0.1400 
    106 CB        -9.8677  -19.7756  -53.4792 C.3       19 UNK        -0.1800 
    107 C         -7.5574  -18.9495  -54.1778 C.2       19 UNK         0.5000 
    108 O         -7.1055  -17.8475  -53.8671 O.2       19 UNK        -0.5000 
    109 N         -7.3444  -19.5316  -55.3652 N.am      20 UNK        -0.5000 
    110 CA        -6.5793  -18.9646  -56.4783 C.3       20 UNK         0.1400 
    111 CB        -6.6927  -19.8995  -57.6913 C.3       20 UNK        -0.1800 
    112 C         -5.1007  -18.6991  -56.1375 C.2       20 UNK         0.5000 
    113 O         -4.5275  -17.7322  -56.6408 O.2       20 UNK        -0.5000 
    114 N         -4.5264  -19.5245  -55.2489 N.am      21 UNK        -0.5000 
    115 CA        -3.1679  -19.3782  -54.7145 C.3       21 UNK         0.1400 
    116 CB        -2.8403  -20.5959  -53.8353 C.3       21 UNK        -0.1800 
    117 C         -2.9586  -18.0736  -53.9188 C.2       21 UNK         0.5000 
    118 O         -1.8404  -17.5618  -53.8804 O.2       21 UNK        -0.5000 
    119 N         -4.0436  -17.5581  -53.3283 N.am      22 UNK        -0.5000 
    120 CA        -4.1071  -16.2770  -52.6149 C.3       22 UNK         0.1400 
    121 C         -4.4393  -15.0652  -53.5414 C.2       22 UNK         0.5000 
    122 N         -4.5957  -15.2389  -54.8499 N.am      22 UNK        -0.7600 
    123 O         -4.5386  -13.9338  -53.0761 O.2       22 UNK        -0.5000 
    124 C124       -5.0675  -16.4012  -51.3988 C.3       23 UNK        -0.0398 
    125 S125       -4.6790  -15.2737  -50.0161 S.3       23 UNK        -0.2404 
    126 C126       -3.5464  -16.2835  -49.0034 C.3       23 UNK        -0.0205 
    127 H127        6.8263  -16.3564  -51.4311 H         1 UNK         0.0600 
    128 H128        6.3987  -17.8828  -52.2090 H         1 UNK         0.0600 
    129 H129        7.4403  -17.8798  -50.7817 H         1 UNK         0.0600 
    130 H130        5.1747  -15.5323  -50.2022 H         1 UNK         0.3000 
    131 H131        2.8604  -17.0662  -49.4155 H         1 UNK         0.0600 
    132 H132        1.9905  -14.8880  -48.6215 H         1 UNK         0.0800 
    133 H133        3.5488  -14.1386  -48.8451 H         1 UNK         0.0800 
    134 H134        0.4683  -13.4914  -50.1530 H         1 UNK         0.0800 
    135 H135        0.3488  -13.8788  -51.8515 H         1 UNK         0.0800 
    136 H136       -1.7280  -14.3824  -49.6665 H         1 UNK         0.1150 
    137 H137       -2.3639  -18.6154  -49.8085 H         1 UNK         0.1150 
    138 H138        1.2092  -16.9394  -51.4660 H         1 UNK         0.1150 
    139 H139       -0.7587  -20.0760  -50.7560 H         1 UNK         0.0800 
    140 H140        0.0443  -19.3647  -52.1332 H         1 UNK         0.0800 
    141 H141        2.0892  -19.1680  -48.0685 H         1 UNK         0.0800 
    142 H142        0.3785  -19.0538  -48.3254 H         1 UNK         0.0800 
    143 H143        1.8439  -21.7402  -48.3789 H         1 UNK         0.0600 
    144 H144        1.4072  -20.1980  -46.0133 H         1 UNK         0.3000 
    145 H145        1.1588  -22.9263  -43.7535 H         1 UNK         0.0600 
    146 H146        3.0689  -21.8488  -42.6506 H         1 UNK         0.0600 
    147 H147        3.6203  -22.7208  -44.0727 H         1 UNK         0.0600 
    148 H148        3.4779  -20.9711  -44.1194 H         1 UNK         0.0600 
    149 H149        1.2602  -20.0263  -43.5571 H         1 UNK         0.3000 
    150 H150       -2.2972  -19.6398  -43.5985 H         1 UNK         0.0600 
    151 H151       -1.7398  -20.4701  -41.2926 H         1 UNK         0.0600 
    152 H152       -1.9074  -18.7264  -41.3472 H         1 UNK         0.0600 
    153 H153       -0.3023  -19.4565  -41.2789 H         1 UNK         0.0600 
    154 H154       -0.3826  -17.6868  -43.0653 H         1 UNK         0.3000 
    155 H155        1.0515  -16.6525  -45.0875 H         1 UNK         0.0600 
    156 H156        0.2457  -15.2072  -46.9682 H         1 UNK         0.0600 
    157 H157       -1.1169  -16.3030  -47.1821 H         1 UNK         0.0600 
    158 H158        0.5241  -16.8760  -47.4397 H         1 UNK         0.0600 
    159 H159        0.0036  -15.2617  -43.7500 H         1 UNK         0.3000 
    160 H160       -1.8253  -13.1817  -43.8663 H         1 UNK         0.0600 
    161 H161       -4.2258  -14.7976  -42.8668 H         1 UNK         0.0600 
    162 H162       -4.2190  -13.6016  -44.1521 H         1 UNK         0.0600 
    163 H163       -3.9227  -13.1002  -42.4958 H         1 UNK         0.0600 
    164 H164       -0.7773  -13.5997  -41.9873 H         1 UNK         0.3000 
    165 H165       -1.3281  -14.7912  -39.2016 H         1 UNK         0.0600 
    166 H166        0.1730  -17.1858  -40.3854 H         1 UNK         0.0600 
    167 H167        0.2986  -16.6368  -38.7165 H         1 UNK         0.0600 
    168 H168       -1.2271  -17.2578  -39.3207 H         1 UNK         0.0600 
    169 H169        1.1092  -14.9051  -40.9183 H         1 UNK         0.3000 
    170 H170        1.7965  -11.5136  -40.5089 H         1 UNK         0.0600 
    171 H171        2.7562  -12.2121  -38.3078 H         1 UNK         0.0600 
    172 H172        3.3743  -13.6913  -39.0327 H         1 UNK         0.0600 
    173 H173        4.0018  -12.1227  -39.5419 H         1 UNK         0.0600 
    174 H174        3.4192  -13.6336  -41.5031 H         1 UNK         0.3000 
    175 H175        1.8452  -14.1097  -44.6442 H         1 UNK         0.0600 
    176 H176        4.4623  -12.6720  -43.9592 H         1 UNK         0.0600 
    177 H177        4.0559  -13.4168  -45.5042 H         1 UNK         0.0600 
    178 H178        3.1688  -12.0085  -44.9509 H         1 UNK         0.0600 
    179 H179        4.2315  -15.2058  -43.8285 H         1 UNK         0.3000 
    180 H180        4.3699  -17.0151  -41.8820 H         1 UNK         0.0600 
    181 H181        1.9879  -18.8112  -42.5352 H         1 UNK         0.0600 
    182 H182        2.4929  -18.2475  -40.9561 H         1 UNK         0.0600 
    183 H183        3.4997  -19.3897  -41.8328 H         1 UNK         0.0600 
    184 H184        5.3235  -17.5463  -43.7919 H         1 UNK         0.3000 
    185 H185        5.7446  -17.9099  -45.8484 H         1 UNK         0.0600 
    186 H186        5.9087  -20.0622  -47.0612 H         1 UNK         0.0600 
    187 H187        5.5449  -20.3621  -45.3699 H         1 UNK         0.0600 
    188 H188        4.2711  -20.4976  -46.5785 H         1 UNK         0.0600 
    189 H189        4.4427  -18.5014  -48.1765 H         1 UNK         0.3000 
    190 H190       -1.1408  -20.4667  -46.8245 H         1 UNK         0.3000 
    191 H191       -3.0103  -21.6038  -48.6077 H         1 UNK         0.0600 
    192 H192       -3.5675  -19.8171  -46.9818 H         1 UNK         0.0600 
    193 H193       -4.6376  -21.1953  -46.7654 H         1 UNK         0.0600 
    194 H194       -3.3155  -20.9250  -45.6355 H         1 UNK         0.0600 
    195 H195       -1.5767  -22.9805  -45.6026 H         1 UNK         0.3000 
    196 H196       -2.9948  -25.4302  -45.6254 H         1 UNK         0.0600 
    197 H197       -1.1779  -26.2114  -44.1101 H         1 UNK         0.0600 
    198 H198       -1.7363  -24.6089  -43.6557 H         1 UNK         0.0600 
    199 H199       -0.2099  -24.8007  -44.5159 H         1 UNK         0.0600 
    200 H200        0.1914  -24.5862  -47.0889 H         1 UNK         0.3000 
    201 H201        0.7454  -27.1484  -48.1812 H         1 UNK         0.0600 
    202 H202        2.4862  -25.4277  -47.8382 H         1 UNK         0.0600 
    203 H203        1.7258  -24.3701  -49.0250 H         1 UNK         0.0600 
    204 H204        2.4414  -25.8964  -49.5309 H         1 UNK         0.0600 
    205 H205       -0.9366  -24.3093  -49.5680 H         1 UNK         0.3000 
    206 H206       -1.3604  -25.4368  -52.1726 H         1 UNK         0.0600 
    207 H207       -1.3572  -22.9851  -51.7012 H         1 UNK         0.0600 
    208 H208       -2.8719  -23.4764  -52.4394 H         1 UNK         0.0600 
    209 H209       -2.8059  -23.1596  -50.7107 H         1 UNK         0.0600 
    210 H210       -2.9311  -26.0027  -49.1658 H         1 UNK         0.3000 
    211 H211       -4.7436  -27.0302  -48.4270 H         1 UNK         0.0600 
    212 H212       -5.1493  -28.2230  -51.2239 H         1 UNK         0.0600 
    213 H213       -5.8931  -28.7708  -49.7309 H         1 UNK         0.0600 
    214 H214       -4.1568  -28.9283  -49.9488 H         1 UNK         0.0600 
    215 H215       -4.9454  -24.5286  -48.7302 H         1 UNK         0.3000 
    216 H216       -6.1944  -22.7527  -48.7256 H         1 UNK         0.0600 
    217 H217       -8.1500  -24.0456  -47.9309 H         1 UNK         0.0600 
    218 H218       -8.6240  -24.4138  -49.5865 H         1 UNK         0.0600 
    219 H219       -8.6455  -22.7550  -49.0141 H         1 UNK         0.0600 
    220 H220       -7.3936  -24.5633  -51.5349 H         1 UNK         0.3000 
    221 H221       -7.5493  -24.2706  -53.7024 H         1 UNK         0.0600 
    222 H222       -5.0089  -22.5904  -53.4004 H         1 UNK         0.0600 
    223 H223       -5.0896  -24.3354  -53.6270 H         1 UNK         0.0600 
    224 H224       -5.6066  -23.2595  -54.9118 H         1 UNK         0.0600 
    225 H225       -7.2737  -21.2028  -52.0744 H         1 UNK         0.3000 
    226 H226       -8.2538  -19.2374  -52.1889 H         1 UNK         0.0600 
    227 H227      -10.2673  -18.7618  -53.5228 H         1 UNK         0.0600 
    228 H228      -10.0703  -20.2439  -54.4425 H         1 UNK         0.0600 
    229 H229      -10.4325  -20.3152  -52.7189 H         1 UNK         0.0600 
    230 H230       -7.7398  -20.4578  -55.5016 H         1 UNK         0.3000 
    231 H231       -7.0336  -18.0063  -56.7380 H         1 UNK         0.0600 
    232 H232       -6.1490  -19.4979  -58.5475 H         1 UNK         0.0600 
    233 H233       -7.7318  -20.0245  -57.9967 H         1 UNK         0.0600 
    234 H234       -6.2853  -20.8883  -57.4763 H         1 UNK         0.0600 
    235 H235       -5.0779  -20.2861  -54.8840 H         1 UNK         0.3000 
    236 H236       -2.4756  -19.3652  -55.5588 H         1 UNK         0.0600 
    237 H237       -3.5070  -20.6628  -52.9743 H         1 UNK         0.0600 
    238 H238       -1.8203  -20.5389  -53.4536 H         1 UNK         0.0600 
    239 H239       -2.9209  -21.5250  -54.3996 H         1 UNK         0.0600 
    240 H240       -4.9360  -18.0111  -53.4767 H         1 UNK         0.3000 
    241 H241       -3.1075  -16.0707  -52.2319 H         1 UNK         0.0600 
    242 H242       -4.8021  -14.4402  -55.4285 H         1 UNK         0.3800 
    243 H243       -4.5014  -16.1517  -55.2774 H         1 UNK         0.3800 
    244 H244       -5.0446  -17.4174  -51.0022 H         1 UNK         0.0800 
    245 H245       -6.1012  -16.2361  -51.7075 H         1 UNK         0.0800 
    246 H246       -4.0140  -17.2425  -48.7750 H         1 UNK         0.0800 
    247 H247       -3.3940  -15.7840  -48.0455 H         1 UNK         0.0800 
@<TRIPOS>BOND
     1    1    2 1    
     2    1  127 1    
     3    1  128 1    
     4    1  129 1    
     5    2    3 2    
     6    2    4 am   BACKBONE|DICT|INTERRES
     7    4    5 1    
     8    4  130 1    
     9    5    6 1    
    10    5   65 1    
    11    5  131 1    
    12    6    7 1    
    13    6  132 1    
    14    6  133 1    
    15    7    8 1    
    16    8    9 1    
    17    8  134 1    
    18    8  135 1    
    19    9   10 ar   
    20    9   14 ar   
    21   10   11 ar   
    22   10  136 1    
    23   11   12 ar   
    24   11  126 1    
    25   12   13 ar   
    26   12  137 1    
    27   13   14 ar   
    28   13   15 1    
    29   14  138 1    
    30   15   16 1    
    31   15  139 1    
    32   15  140 1    
    33   16   17 1    
    34   17   18 1    
    35   17  141 1    
    36   17  142 1    
    37   18   19 1    
    38   18   67 1    
    39   18  143 1    
    40   19   20 am   BACKBONE|DICT|INTERRES
    41   19  144 1    
    42   20   21 2    
    43   20   22 1    
    44   22   23 1    
    45   22   24 1    
    46   22  145 1    
    47   23  146 1    
    48   23  147 1    
    49   23  148 1    
    50   24   25 am   BACKBONE|DICT|INTERRES
    51   24  149 1    
    52   25   26 2    
    53   25   27 1    
    54   27   28 1    
    55   27   29 1    
    56   27  150 1    
    57   28  151 1    
    58   28  152 1    
    59   28  153 1    
    60   29   30 am   BACKBONE|DICT|INTERRES
    61   29  154 1    
    62   30   31 2    
    63   30   32 1    
    64   32   33 1    
    65   32   34 1    
    66   32  155 1    
    67   33  156 1    
    68   33  157 1    
    69   33  158 1    
    70   34   35 am   BACKBONE|DICT|INTERRES
    71   34  159 1    
    72   35   36 2    
    73   35   37 1    
    74   37   38 1    
    75   37   39 1    
    76   37  160 1    
    77   38  161 1    
    78   38  162 1    
    79   38  163 1    
    80   39   40 am   BACKBONE|DICT|INTERRES
    81   39  164 1    
    82   40   41 2    
    83   40   42 1    
    84   42   43 1    
    85   42   44 1    
    86   42  165 1    
    87   43  166 1    
    88   43  167 1    
    89   43  168 1    
    90   44   45 am   BACKBONE|DICT|INTERRES
    91   44  169 1    
    92   45   46 2    
    93   45   47 1    
    94   47   48 1    
    95   47   49 1    
    96   47  170 1    
    97   48  171 1    
    98   48  172 1    
    99   48  173 1    
   100   49   50 am   BACKBONE|DICT|INTERRES
   101   49  174 1    
   102   50   51 2    
   103   50   52 1    
   104   52   53 1    
   105   52   54 1    
   106   52  175 1    
   107   53  176 1    
   108   53  177 1    
   109   53  178 1    
   110   54   55 am   BACKBONE|DICT|INTERRES
   111   54  179 1    
   112   55   56 2    
   113   55   57 1    
   114   57   58 1    
   115   57   59 1    
   116   57  180 1    
   117   58  181 1    
   118   58  182 1    
   119   58  183 1    
   120   59   60 am   BACKBONE|DICT|INTERRES
   121   59  184 1    
   122   60   61 2    
   123   60   62 1    
   124   62   63 1    
   125   62   64 1    
   126   62  185 1    
   127   63  186 1    
   128   63  187 1    
   129   63  188 1    
   130   64   65 am   BACKBONE|DICT|INTERRES
   131   64  189 1    
   132   65   66 2    
   133   67   68 2    
   134   67   69 am   BACKBONE|DICT|INTERRES
   135   69   70 1    
   136   69  190 1    
   137   70   71 1    
   138   70   72 1    
   139   70  191 1    
   140   71  192 1    
   141   71  193 1    
   142   71  194 1    
   143   72   73 2    
   144   72   74 am   BACKBONE|DICT|INTERRES
   145   74   75 1    
   146   74  195 1    
   147   75   76 1    
   148   75   77 1    
   149   75  196 1    
   150   76  197 1    
   151   76  198 1    
   152   76  199 1    
   153   77   78 2    
   154   77   79 am   BACKBONE|DICT|INTERRES
   155   79   80 1    
   156   79  200 1    
   157   80   81 1    
   158   80   82 1    
   159   80  201 1    
   160   81  202 1    
   161   81  203 1    
   162   81  204 1    
   163   82   83 2    
   164   82   84 am   BACKBONE|DICT|INTERRES
   165   84   85 1    
   166   84  205 1    
   167   85   86 1    
   168   85   87 1    
   169   85  206 1    
   170   86  207 1    
   171   86  208 1    
   172   86  209 1    
   173   87   88 2    
   174   87   89 am   BACKBONE|DICT|INTERRES
   175   89   90 1    
   176   89  210 1    
   177   90   91 1    
   178   90   92 1    
   179   90  211 1    
   180   91  212 1    
   181   91  213 1    
   182   91  214 1    
   183   92   93 2    
   184   92   94 am   BACKBONE|DICT|INTERRES
   185   94   95 1    
   186   94  215 1    
   187   95   96 1    
   188   95   97 1    
   189   95  216 1    
   190   96  217 1    
   191   96  218 1    
   192   96  219 1    
   193   97   98 2    
   194   97   99 am   BACKBONE|DICT|INTERRES
   195   99  100 1    
   196   99  220 1    
   197  100  101 1    
   198  100  102 1    
   199  100  221 1    
   200  101  222 1    
   201  101  223 1    
   202  101  224 1    
   203  102  103 2    
   204  102  104 am   BACKBONE|DICT|INTERRES
   205  104  105 1    
   206  104  225 1    
   207  105  106 1    
   208  105  107 1    
   209  105  226 1    
   210  106  227 1    
   211  106  228 1    
   212  106  229 1    
   213  107  108 2    
   214  107  109 am   BACKBONE|DICT|INTERRES
   215  109  110 1    
   216  109  230 1    
   217  110  111 1    
   218  110  112 1    
   219  110  231 1    
   220  111  232 1    
   221  111  233 1    
   222  111  234 1    
   223  112  113 2    
   224  112  114 am   BACKBONE|DICT|INTERRES
   225  114  115 1    
   226  114  235 1    
   227  115  116 1    
   228  115  117 1    
   229  115  236 1    
   230  116  237 1    
   231  116  238 1    
   232  116  239 1    
   233  117  118 2    
   234  117  119 am   BACKBONE|DICT|INTERRES
   235  119  120 1    
   236  119  240 1    
   237  120  121 1    
   238  120  124 1    
   239  120  241 1    
   240  121  122 am   BACKBONE|DICT|INTERRES
   241  121  123 2    
   242  122  242 1    
   243  122  243 1    
   244  124  125 1    
   245  124  244 1    
   246  124  245 1    
   247  125  126 1    
   248  126  246 1    
   249  126  247 1    
@<TRIPOS>SUBSTRUCTURE
     1 UNK         1 GROUP             0       ****    0 ROOT    
