@<TRIPOS>MOLECULE
3R540
247   249    1
SMALL
USER_CHARGES


@<TRIPOS>ATOM
      1 CA         -0.8516  -12.1519  -46.6141 C.3       0 UNK        -0.1800 
      2 C           0.4423  -12.2242  -47.4110 C.2       0 UNK         0.5000 
      3 O           0.5476  -11.5972  -48.4659 O.2       0 UNK        -0.5000 
      4 N           1.4296  -12.9734  -46.9054 N.am      1 UNK        -0.5000 
      5 CA          2.7930  -13.0066  -47.4449 C.3       1 UNK         0.1400 
      6 C6          3.5327  -14.3409  -47.1430 C.3       23 UNK        -0.0398 
      7 S7          2.5929  -15.8591  -47.4947 S.3       23 UNK        -0.2404 
      8 C8          2.3564  -15.8176  -49.2974 C.3       23 UNK        -0.0205 
      9 C9          1.3275  -16.8623  -49.7003 C.ar      23 UNK        -0.0193 
     10 C10        -0.0262  -16.5210  -49.7685 C.ar      23 UNK        -0.1150 
     11 C11        -0.9906  -17.4926  -50.0508 C.ar      23 UNK        -0.0193 
     12 C12        -0.5906  -18.8140  -50.2655 C.ar      23 UNK        -0.1150 
     13 C13         0.7620  -19.1648  -50.2329 C.ar      23 UNK        -0.0193 
     14 C14         1.7181  -18.1795  -49.9588 C.ar      23 UNK        -0.1150 
     15 C15         1.1700  -20.6143  -50.4801 C.3       23 UNK        -0.0205 
     16 S16         2.3349  -21.2784  -49.2402 S.3       23 UNK        -0.2404 
     17 C17         1.4978  -20.8867  -47.6655 C.3       23 UNK        -0.0398 
     18 CA          0.7670  -22.0822  -47.0173 C.3       11 UNK         0.1400 
     19 N           0.4107  -21.7893  -45.6298 N.am      11 UNK        -0.5000 
     20 C          -0.0760  -22.6739  -44.7508 C.2       10 UNK         0.5000 
     21 O          -0.2473  -23.8668  -45.0032 O.2       10 UNK        -0.5000 
     22 CA         -0.4709  -22.1196  -43.3691 C.3       10 UNK         0.1400 
     23 CB          0.7671  -21.9404  -42.4779 C.3       10 UNK        -0.1800 
     24 N          -1.1976  -20.8509  -43.4559 N.am      10 UNK        -0.5000 
     25 C          -2.4028  -20.7083  -44.0268 C.2       9 UNK         0.5000 
     26 O          -3.0436  -21.6399  -44.5133 O.2       9 UNK        -0.5000 
     27 CA         -2.9676  -19.2786  -44.1119 C.3       9 UNK         0.1400 
     28 CB         -3.5208  -18.8202  -42.7542 C.3       9 UNK        -0.1800 
     29 N          -1.9819  -18.3112  -44.5920 N.am      9 UNK        -0.5000 
     30 C          -1.3929  -18.3602  -45.7949 C.2       8 UNK         0.5000 
     31 O          -1.6391  -19.2099  -46.6476 O.2       8 UNK        -0.5000 
     32 CA         -0.3071  -17.3130  -46.0739 C.3       8 UNK         0.1400 
     33 CB         -0.9415  -15.9697  -46.4608 C.3       8 UNK        -0.1800 
     34 N           0.6065  -17.1384  -44.9424 N.am      8 UNK        -0.5000 
     35 C           1.4077  -18.1024  -44.4634 C.2       7 UNK         0.5000 
     36 O           1.4767  -19.2355  -44.9346 O.2       7 UNK        -0.5000 
     37 CA          2.2206  -17.7681  -43.2023 C.3       7 UNK         0.1400 
     38 CB          3.4879  -16.9737  -43.5547 C.3       7 UNK        -0.1800 
     39 N           1.4205  -17.0289  -42.2279 N.am      7 UNK        -0.5000 
     40 C           0.3626  -17.5369  -41.5769 C.2       6 UNK         0.5000 
     41 O          -0.0101  -18.7063  -41.6785 O.2       6 UNK        -0.5000 
     42 CA         -0.4450  -16.5513  -40.7117 C.3       6 UNK         0.1400 
     43 CB          0.1637  -16.4404  -39.3061 C.3       6 UNK        -0.1800 
     44 N          -0.5203  -15.2182  -41.3143 N.am      6 UNK        -0.5000 
     45 C          -1.1394  -14.9436  -42.4721 C.2       5 UNK         0.5000 
     46 O          -1.7852  -15.7765  -43.1068 O.2       5 UNK        -0.5000 
     47 CA         -0.9632  -13.5226  -43.0420 C.3       5 UNK         0.1400 
     48 CB         -2.1412  -12.6243  -42.6403 C.3       5 UNK        -0.1800 
     49 N           0.2939  -12.9008  -42.6140 N.am      5 UNK        -0.5000 
     50 C           1.5018  -13.2422  -43.0811 C.2       4 UNK         0.5000 
     51 O           1.6744  -14.0099  -44.0331 O.2       4 UNK        -0.5000 
     52 CA          2.7048  -12.6953  -42.2961 C.3       4 UNK         0.1400 
     53 CB          2.7876  -13.3988  -40.9223 C.3       4 UNK        -0.1800 
     54 N           3.9351  -12.9166  -43.0537 N.am      4 UNK        -0.5000 
     55 C           5.1482  -12.4452  -42.7314 C.2       3 UNK         0.5000 
     56 O           5.3668  -11.7160  -41.7631 O.2       3 UNK        -0.5000 
     57 CA          6.3177  -12.8498  -43.6491 C.3       3 UNK         0.1400 
     58 CB          6.4958  -14.3774  -43.6960 C.3       3 UNK        -0.1800 
     59 N           6.1447  -12.3382  -45.0059 N.am      3 UNK        -0.5000 
     60 C           6.2223  -11.0470  -45.3628 C.2       2 UNK         0.5000 
     61 O           6.5729  -10.1432  -44.6035 O.2       2 UNK        -0.5000 
     62 CA          5.8177  -10.7066  -46.8144 C.3       2 UNK         0.1400 
     63 CB          7.0540  -10.6705  -47.7258 C.3       2 UNK        -0.1800 
     64 N           4.8355  -11.6444  -47.3717 N.am      2 UNK        -0.5000 
     65 C           3.5993  -11.8156  -46.8812 C.2       1 UNK         0.5000 
     66 O           3.1323  -11.1161  -45.9772 O.2       1 UNK        -0.5000 
     67 C          -0.4609  -22.5317  -47.8336 C.2       11 UNK         0.5000 
     68 O          -0.3924  -23.5644  -48.4975 O.2       11 UNK        -0.5000 
     69 N          -1.5746  -21.7917  -47.7338 N.am      12 UNK        -0.5000 
     70 CA         -2.8480  -22.1231  -48.3730 C.3       12 UNK         0.1400 
     71 CB         -3.8468  -20.9733  -48.1812 C.3       12 UNK        -0.1800 
     72 C          -3.4413  -23.4509  -47.8728 C.2       12 UNK         0.5000 
     73 O          -3.9527  -24.2184  -48.6836 O.2       12 UNK        -0.5000 
     74 N          -3.3294  -23.7313  -46.5670 N.am      13 UNK        -0.5000 
     75 CA         -3.7434  -25.0036  -45.9709 C.3       13 UNK         0.1400 
     76 CB         -3.6574  -24.9144  -44.4399 C.3       13 UNK        -0.1800 
     77 C          -2.9362  -26.2066  -46.4987 C.2       13 UNK         0.5000 
     78 O          -3.5144  -27.2708  -46.7215 O.2       13 UNK        -0.5000 
     79 N          -1.6274  -26.0123  -46.7097 N.am      14 UNK        -0.5000 
     80 CA         -0.7238  -27.0149  -47.2720 C.3       14 UNK         0.1400 
     81 CB          0.7286  -26.6240  -46.9560 C.3       14 UNK        -0.1800 
     82 C          -0.9218  -27.2119  -48.7875 C.2       14 UNK         0.5000 
     83 O          -0.9745  -28.3521  -49.2501 O.2       14 UNK        -0.5000 
     84 N          -1.0146  -26.1029  -49.5327 N.am      15 UNK        -0.5000 
     85 CA         -1.1096  -26.0806  -50.9951 C.3       15 UNK         0.1400 
     86 CB         -0.6956  -24.6863  -51.4932 C.3       15 UNK        -0.1800 
     87 C          -2.5026  -26.4404  -51.5460 C.2       15 UNK         0.5000 
     88 O          -2.5942  -26.8076  -52.7172 O.2       15 UNK        -0.5000 
     89 N          -3.5345  -26.3126  -50.7002 N.am      16 UNK        -0.5000 
     90 CA         -4.9731  -26.2935  -50.9803 C.3       16 UNK         0.1400 
     91 CB         -5.4402  -27.3889  -51.9587 C.3       16 UNK        -0.1800 
     92 C          -5.3932  -24.8860  -51.4339 C.2       16 UNK         0.5000 
     93 O          -4.8306  -24.3427  -52.3868 O.2       16 UNK        -0.5000 
     94 N          -6.3664  -24.3081  -50.7188 N.am      17 UNK        -0.5000 
     95 CA         -6.7483  -22.8966  -50.7972 C.3       17 UNK         0.1400 
     96 CB         -7.8232  -22.6121  -49.7375 C.3       17 UNK        -0.1800 
     97 C          -7.2190  -22.4313  -52.1852 C.2       17 UNK         0.5000 
     98 O          -6.9255  -21.2972  -52.5709 O.2       17 UNK        -0.5000 
     99 N          -7.9140  -23.3198  -52.9066 N.am      18 UNK        -0.5000 
    100 CA        -8.3997  -23.0900  -54.2666 C.3       18 UNK         0.1400 
    101 CB        -9.5217  -24.0929  -54.5748 C.3       18 UNK        -0.1800 
    102 C         -7.2845  -23.1888  -55.3236 C.2       18 UNK         0.5000 
    103 O         -7.3583  -22.4978  -56.3395 O.2       18 UNK        -0.5000 
    104 N         -6.2698  -24.0269  -55.0662 N.am      19 UNK        -0.5000 
    105 CA        -5.0944  -24.1861  -55.9248 C.3       19 UNK         0.1400 
    106 CB        -4.4231  -25.5373  -55.6403 C.3       19 UNK        -0.1800 
    107 C         -4.1035  -23.0254  -55.7363 C.2       19 UNK         0.5000 
    108 O         -3.5302  -22.5489  -56.7165 O.2       19 UNK        -0.5000 
    109 N         -3.9583  -22.5629  -54.4859 N.am      20 UNK        -0.5000 
    110 CA        -3.2249  -21.3491  -54.1235 C.3       20 UNK         0.1400 
    111 CB        -3.0804  -21.2900  -52.5942 C.3       20 UNK        -0.1800 
    112 C         -3.9043  -20.0664  -54.6449 C.2       20 UNK         0.5000 
    113 O         -3.2140  -19.0868  -54.9243 O.2       20 UNK        -0.5000 
    114 N         -5.2411  -20.1108  -54.7594 N.am      21 UNK        -0.5000 
    115 CA        -6.1550  -19.0302  -55.1478 C.3       21 UNK         0.1400 
    116 CB        -5.8623  -18.5283  -56.5769 C.3       21 UNK        -0.1800 
    117 C         -6.2213  -17.8953  -54.1032 C.2       21 UNK         0.5000 
    118 O         -6.5477  -16.7561  -54.4418 O.2       21 UNK        -0.5000 
    119 N         -5.9276  -18.2383  -52.8459 N.am      22 UNK        -0.5000 
    120 CA        -5.9112  -17.3436  -51.6812 C.3       22 UNK         0.1400 
    121 C         -6.1111  -18.0917  -50.3324 C.2       22 UNK         0.5000 
    122 N         -6.5010  -19.3612  -50.3252 N.am      22 UNK        -0.7600 
    123 O         -5.9388  -17.5082  -49.2662 O.2       22 UNK        -0.5000 
    124 C124       -4.7033  -16.3638  -51.6774 C.3       23 UNK        -0.0398 
    125 S125       -3.0685  -17.1653  -51.8317 S.3       23 UNK        -0.2404 
    126 C126       -2.4636  -17.1196  -50.1165 C.3       23 UNK        -0.0205 
    127 H127       -1.3312  -13.1278  -46.5600 H         1 UNK         0.0600 
    128 H128       -0.6525  -11.7972  -45.6030 H         1 UNK         0.0600 
    129 H129       -1.5524  -11.4585  -47.0794 H         1 UNK         0.0600 
    130 H130        1.3132  -13.4301  -46.0078 H         1 UNK         0.3000 
    131 H131        2.7508  -12.8824  -48.5284 H         1 UNK         0.0600 
    132 H132        4.4699  -14.3977  -47.6986 H         1 UNK         0.0800 
    133 H133        3.8019  -14.3921  -46.0868 H         1 UNK         0.0800 
    134 H134        3.3076  -16.0012  -49.7993 H         1 UNK         0.0800 
    135 H135        2.0182  -14.8293  -49.6102 H         1 UNK         0.0800 
    136 H136       -0.3296  -15.5014  -49.5760 H         1 UNK         0.1150 
    137 H137       -1.3391  -19.5669  -50.4647 H         1 UNK         0.1150 
    138 H138        2.7646  -18.4453  -49.9095 H         1 UNK         0.1150 
    139 H139        0.2918  -21.2616  -50.5082 H         1 UNK         0.0800 
    140 H140        1.6311  -20.6834  -51.4659 H         1 UNK         0.0800 
    141 H141        0.8255  -20.0352  -47.7700 H         1 UNK         0.0800 
    142 H142        2.2888  -20.5474  -46.9964 H         1 UNK         0.0800 
    143 H143        1.4632  -22.9233  -46.9900 H         1 UNK         0.0600 
    144 H144        0.5640  -20.8313  -45.3241 H         1 UNK         0.3000 
    145 H145       -1.1288  -22.8504  -42.8945 H         1 UNK         0.0600 
    146 H146        0.4857  -21.6256  -41.4728 H         1 UNK         0.0600 
    147 H147        1.3202  -22.8757  -42.3840 H         1 UNK         0.0600 
    148 H148        1.4500  -21.1922  -42.8819 H         1 UNK         0.0600 
    149 H149       -0.7448  -20.0366  -43.0534 H         1 UNK         0.3000 
    150 H150       -3.7923  -19.2907  -44.8276 H         1 UNK         0.0600 
    151 H151       -4.2846  -19.5093  -42.3918 H         1 UNK         0.0600 
    152 H152       -3.9799  -17.8342  -42.8289 H         1 UNK         0.0600 
    153 H153       -2.7395  -18.7672  -41.9960 H         1 UNK         0.0600 
    154 H154       -1.7516  -17.5421  -43.9700 H         1 UNK         0.3000 
    155 H155        0.2780  -17.6697  -46.9236 H         1 UNK         0.0600 
    156 H156       -0.1814  -15.2496  -46.7546 H         1 UNK         0.0600 
    157 H157       -1.6174  -16.0897  -47.3075 H         1 UNK         0.0600 
    158 H158       -1.5210  -15.5375  -45.6475 H         1 UNK         0.0600 
    159 H159        0.6237  -16.2297  -44.5025 H         1 UNK         0.3000 
    160 H160        2.5278  -18.7091  -42.7408 H         1 UNK         0.0600 
    161 H161        3.2554  -16.0434  -44.0709 H         1 UNK         0.0600 
    162 H162        4.1355  -17.5534  -44.2135 H         1 UNK         0.0600 
    163 H163        4.0655  -16.7293  -42.6630 H         1 UNK         0.0600 
    164 H164        1.6384  -16.0522  -42.1097 H         1 UNK         0.3000 
    165 H165       -1.4605  -16.9419  -40.6183 H         1 UNK         0.0600 
    166 H166       -0.4401  -15.7982  -38.6647 H         1 UNK         0.0600 
    167 H167        0.2169  -17.4188  -38.8265 H         1 UNK         0.0600 
    168 H168        1.1751  -16.0328  -39.3338 H         1 UNK         0.0600 
    169 H169       -0.0346  -14.4748  -40.8370 H         1 UNK         0.3000 
    170 H170       -0.9572  -13.6133  -44.1285 H         1 UNK         0.0600 
    171 H171       -3.0888  -13.0550  -42.9669 H         1 UNK         0.0600 
    172 H172       -2.1965  -12.4893  -41.5595 H         1 UNK         0.0600 
    173 H173       -2.0586  -11.6389  -43.0992 H         1 UNK         0.0600 
    174 H174        0.2313  -12.2452  -41.8480 H         1 UNK         0.3000 
    175 H175        2.5657  -11.6213  -42.1583 H         1 UNK         0.0600 
    176 H176        2.9723  -14.4683  -41.0302 H         1 UNK         0.0600 
    177 H177        3.5854  -12.9881  -40.3043 H         1 UNK         0.0600 
    178 H178        1.8660  -13.2787  -40.3524 H         1 UNK         0.0600 
    179 H179        3.8079  -13.4785  -43.8839 H         1 UNK         0.3000 
    180 H180        7.2316  -12.4190  -43.2342 H         1 UNK         0.0600 
    181 H181        5.6538  -14.8754  -44.1772 H         1 UNK         0.0600 
    182 H182        6.5904  -14.7905  -42.6908 H         1 UNK         0.0600 
    183 H183        7.3987  -14.6493  -44.2430 H         1 UNK         0.0600 
    184 H184        5.8806  -13.0074  -45.7112 H         1 UNK         0.3000 
    185 H185        5.3682   -9.7113  -46.8065 H         1 UNK         0.0600 
    186 H186        7.7940   -9.9619  -47.3512 H         1 UNK         0.0600 
    187 H187        7.5371  -11.6463  -47.7893 H         1 UNK         0.0600 
    188 H188        6.7906  -10.3584  -48.7366 H         1 UNK         0.0600 
    189 H189        5.1561  -12.2261  -48.1325 H         1 UNK         0.3000 
    190 H190       -1.5560  -20.9288  -47.1921 H         1 UNK         0.3000 
    191 H191       -2.6616  -22.2312  -49.4436 H         1 UNK         0.0600 
    192 H192       -4.8095  -21.2096  -48.6341 H         1 UNK         0.0600 
    193 H193       -3.4851  -20.0568  -48.6470 H         1 UNK         0.0600 
    194 H194       -4.0221  -20.7656  -47.1250 H         1 UNK         0.0600 
    195 H195       -2.9495  -23.0300  -45.9383 H         1 UNK         0.3000 
    196 H196       -4.7893  -25.1683  -46.2384 H         1 UNK         0.0600 
    197 H197       -3.9796  -25.8471  -43.9754 H         1 UNK         0.0600 
    198 H198       -4.2989  -24.1215  -44.0552 H         1 UNK         0.0600 
    199 H199       -2.6404  -24.7142  -44.1031 H         1 UNK         0.0600 
    200 H200       -1.2219  -25.1160  -46.4645 H         1 UNK         0.3000 
    201 H201       -0.9251  -27.9706  -46.7832 H         1 UNK         0.0600 
    202 H202        0.8919  -26.5562  -45.8803 H         1 UNK         0.0600 
    203 H203        0.9936  -25.6607  -47.3931 H         1 UNK         0.0600 
    204 H204        1.4268  -27.3656  -47.3460 H         1 UNK         0.0600 
    205 H205       -0.9131  -25.1972  -49.0767 H         1 UNK         0.3000 
    206 H206       -0.4011  -26.8079  -51.3972 H         1 UNK         0.0600 
    207 H207        0.3230  -24.4436  -51.1895 H         1 UNK         0.0600 
    208 H208       -0.7349  -24.6270  -52.5816 H         1 UNK         0.0600 
    209 H209       -1.3549  -23.9130  -51.0978 H         1 UNK         0.0600 
    210 H210       -3.3059  -25.9382  -49.7865 H         1 UNK         0.3000 
    211 H211       -5.4471  -26.4976  -50.0189 H         1 UNK         0.0600 
    212 H212       -5.1261  -27.1880  -52.9830 H         1 UNK         0.0600 
    213 H213       -6.5284  -27.4562  -51.9671 H         1 UNK         0.0600 
    214 H214       -5.0548  -28.3673  -51.6719 H         1 UNK         0.0600 
    215 H215       -6.7681  -24.8280  -49.9524 H         1 UNK         0.3000 
    216 H216       -5.8608  -22.3112  -50.5498 H         1 UNK         0.0600 
    217 H217       -8.1683  -21.5790  -49.7851 H         1 UNK         0.0600 
    218 H218       -7.4366  -22.7787  -48.7318 H         1 UNK         0.0600 
    219 H219       -8.6970  -23.2509  -49.8716 H         1 UNK         0.0600 
    220 H220       -8.1046  -24.2232  -52.4984 H         1 UNK         0.3000 
    221 H221       -8.8191  -22.0828  -54.3197 H         1 UNK         0.0600 
    222 H222       -9.1673  -25.1233  -54.5240 H         1 UNK         0.0600 
    223 H223      -10.3490  -23.9868  -53.8729 H         1 UNK         0.0600 
    224 H224       -9.9240  -23.9331  -55.5761 H         1 UNK         0.0600 
    225 H225       -6.2443  -24.5056  -54.1766 H         1 UNK         0.3000 
    226 H226       -5.4191  -24.1860  -56.9677 H         1 UNK         0.0600 
    227 H227       -5.1179  -26.3640  -55.7880 H         1 UNK         0.0600 
    228 H228       -3.5762  -25.6991  -56.3080 H         1 UNK         0.0600 
    229 H229       -4.0471  -25.5932  -54.6193 H         1 UNK         0.0600 
    230 H230       -4.3985  -23.0781  -53.7272 H         1 UNK         0.3000 
    231 H231       -2.2276  -21.4054  -54.5644 H         1 UNK         0.0600 
    232 H232       -2.5400  -22.1567  -52.2154 H         1 UNK         0.0600 
    233 H233       -4.0500  -21.2573  -52.0965 H         1 UNK         0.0600 
    234 H234       -2.5267  -20.4008  -52.2926 H         1 UNK         0.0600 
    235 H235       -5.6977  -20.9602  -54.4548 H         1 UNK         0.3000 
    236 H236       -7.1494  -19.4789  -55.1599 H         1 UNK         0.0600 
    237 H237       -6.6480  -17.8556  -56.9223 H         1 UNK         0.0600 
    238 H238       -4.9203  -17.9825  -56.6320 H         1 UNK         0.0600 
    239 H239       -5.8132  -19.3579  -57.2824 H         1 UNK         0.0600 
    240 H240       -5.6712  -19.1979  -52.6651 H         1 UNK         0.3000 
    241 H241       -6.8089  -16.7276  -51.7575 H         1 UNK         0.0600 
    242 H242       -6.7310  -19.8559  -51.1777 H         1 UNK         0.3800 
    243 H243       -6.6467  -19.8012  -49.4322 H         1 UNK         0.3800 
    244 H244       -4.8008  -15.6805  -52.5216 H         1 UNK         0.0800 
    245 H245       -4.7232  -15.7225  -50.7950 H         1 UNK         0.0800 
    246 H246       -3.0451  -17.8083  -49.5024 H         1 UNK         0.0800 
    247 H247       -2.6210  -16.1233  -49.7010 H         1 UNK         0.0800 
@<TRIPOS>BOND
     1    1    2 1    
     2    1  127 1    
     3    1  128 1    
     4    1  129 1    
     5    2    3 2    
     6    2    4 am   BACKBONE|DICT|INTERRES
     7    4    5 1    
     8    4  130 1    
     9    5    6 1    
    10    5   65 1    
    11    5  131 1    
    12    6    7 1    
    13    6  132 1    
    14    6  133 1    
    15    7    8 1    
    16    8    9 1    
    17    8  134 1    
    18    8  135 1    
    19    9   10 ar   
    20    9   14 ar   
    21   10   11 ar   
    22   10  136 1    
    23   11   12 ar   
    24   11  126 1    
    25   12   13 ar   
    26   12  137 1    
    27   13   14 ar   
    28   13   15 1    
    29   14  138 1    
    30   15   16 1    
    31   15  139 1    
    32   15  140 1    
    33   16   17 1    
    34   17   18 1    
    35   17  141 1    
    36   17  142 1    
    37   18   19 1    
    38   18   67 1    
    39   18  143 1    
    40   19   20 am   BACKBONE|DICT|INTERRES
    41   19  144 1    
    42   20   21 2    
    43   20   22 1    
    44   22   23 1    
    45   22   24 1    
    46   22  145 1    
    47   23  146 1    
    48   23  147 1    
    49   23  148 1    
    50   24   25 am   BACKBONE|DICT|INTERRES
    51   24  149 1    
    52   25   26 2    
    53   25   27 1    
    54   27   28 1    
    55   27   29 1    
    56   27  150 1    
    57   28  151 1    
    58   28  152 1    
    59   28  153 1    
    60   29   30 am   BACKBONE|DICT|INTERRES
    61   29  154 1    
    62   30   31 2    
    63   30   32 1    
    64   32   33 1    
    65   32   34 1    
    66   32  155 1    
    67   33  156 1    
    68   33  157 1    
    69   33  158 1    
    70   34   35 am   BACKBONE|DICT|INTERRES
    71   34  159 1    
    72   35   36 2    
    73   35   37 1    
    74   37   38 1    
    75   37   39 1    
    76   37  160 1    
    77   38  161 1    
    78   38  162 1    
    79   38  163 1    
    80   39   40 am   BACKBONE|DICT|INTERRES
    81   39  164 1    
    82   40   41 2    
    83   40   42 1    
    84   42   43 1    
    85   42   44 1    
    86   42  165 1    
    87   43  166 1    
    88   43  167 1    
    89   43  168 1    
    90   44   45 am   BACKBONE|DICT|INTERRES
    91   44  169 1    
    92   45   46 2    
    93   45   47 1    
    94   47   48 1    
    95   47   49 1    
    96   47  170 1    
    97   48  171 1    
    98   48  172 1    
    99   48  173 1    
   100   49   50 am   BACKBONE|DICT|INTERRES
   101   49  174 1    
   102   50   51 2    
   103   50   52 1    
   104   52   53 1    
   105   52   54 1    
   106   52  175 1    
   107   53  176 1    
   108   53  177 1    
   109   53  178 1    
   110   54   55 am   BACKBONE|DICT|INTERRES
   111   54  179 1    
   112   55   56 2    
   113   55   57 1    
   114   57   58 1    
   115   57   59 1    
   116   57  180 1    
   117   58  181 1    
   118   58  182 1    
   119   58  183 1    
   120   59   60 am   BACKBONE|DICT|INTERRES
   121   59  184 1    
   122   60   61 2    
   123   60   62 1    
   124   62   63 1    
   125   62   64 1    
   126   62  185 1    
   127   63  186 1    
   128   63  187 1    
   129   63  188 1    
   130   64   65 am   BACKBONE|DICT|INTERRES
   131   64  189 1    
   132   65   66 2    
   133   67   68 2    
   134   67   69 am   BACKBONE|DICT|INTERRES
   135   69   70 1    
   136   69  190 1    
   137   70   71 1    
   138   70   72 1    
   139   70  191 1    
   140   71  192 1    
   141   71  193 1    
   142   71  194 1    
   143   72   73 2    
   144   72   74 am   BACKBONE|DICT|INTERRES
   145   74   75 1    
   146   74  195 1    
   147   75   76 1    
   148   75   77 1    
   149   75  196 1    
   150   76  197 1    
   151   76  198 1    
   152   76  199 1    
   153   77   78 2    
   154   77   79 am   BACKBONE|DICT|INTERRES
   155   79   80 1    
   156   79  200 1    
   157   80   81 1    
   158   80   82 1    
   159   80  201 1    
   160   81  202 1    
   161   81  203 1    
   162   81  204 1    
   163   82   83 2    
   164   82   84 am   BACKBONE|DICT|INTERRES
   165   84   85 1    
   166   84  205 1    
   167   85   86 1    
   168   85   87 1    
   169   85  206 1    
   170   86  207 1    
   171   86  208 1    
   172   86  209 1    
   173   87   88 2    
   174   87   89 am   BACKBONE|DICT|INTERRES
   175   89   90 1    
   176   89  210 1    
   177   90   91 1    
   178   90   92 1    
   179   90  211 1    
   180   91  212 1    
   181   91  213 1    
   182   91  214 1    
   183   92   93 2    
   184   92   94 am   BACKBONE|DICT|INTERRES
   185   94   95 1    
   186   94  215 1    
   187   95   96 1    
   188   95   97 1    
   189   95  216 1    
   190   96  217 1    
   191   96  218 1    
   192   96  219 1    
   193   97   98 2    
   194   97   99 am   BACKBONE|DICT|INTERRES
   195   99  100 1    
   196   99  220 1    
   197  100  101 1    
   198  100  102 1    
   199  100  221 1    
   200  101  222 1    
   201  101  223 1    
   202  101  224 1    
   203  102  103 2    
   204  102  104 am   BACKBONE|DICT|INTERRES
   205  104  105 1    
   206  104  225 1    
   207  105  106 1    
   208  105  107 1    
   209  105  226 1    
   210  106  227 1    
   211  106  228 1    
   212  106  229 1    
   213  107  108 2    
   214  107  109 am   BACKBONE|DICT|INTERRES
   215  109  110 1    
   216  109  230 1    
   217  110  111 1    
   218  110  112 1    
   219  110  231 1    
   220  111  232 1    
   221  111  233 1    
   222  111  234 1    
   223  112  113 2    
   224  112  114 am   BACKBONE|DICT|INTERRES
   225  114  115 1    
   226  114  235 1    
   227  115  116 1    
   228  115  117 1    
   229  115  236 1    
   230  116  237 1    
   231  116  238 1    
   232  116  239 1    
   233  117  118 2    
   234  117  119 am   BACKBONE|DICT|INTERRES
   235  119  120 1    
   236  119  240 1    
   237  120  121 1    
   238  120  124 1    
   239  120  241 1    
   240  121  122 am   BACKBONE|DICT|INTERRES
   241  121  123 2    
   242  122  242 1    
   243  122  243 1    
   244  124  125 1    
   245  124  244 1    
   246  124  245 1    
   247  125  126 1    
   248  126  246 1    
   249  126  247 1    
@<TRIPOS>SUBSTRUCTURE
     1 UNK         1 GROUP             0       ****    0 ROOT    
