@<TRIPOS>MOLECULE
3R540
247   249    1
SMALL
USER_CHARGES


@<TRIPOS>ATOM
      1 CA          2.7051  -12.8378  -47.9841 C.3       0 UNK        -0.1800 
      2 C           1.6825  -13.0422  -46.8773 C.2       0 UNK         0.5000 
      3 O           2.0474  -13.4059  -45.7601 O.2       0 UNK        -0.5000 
      4 N           0.3971  -12.8274  -47.1823 N.am      1 UNK        -0.5000 
      5 CA         -0.6984  -12.8800  -46.2054 C.3       1 UNK         0.1400 
      6 C6         -2.0826  -13.0286  -46.8819 C.3       23 UNK        -0.0398 
      7 S7         -2.3459  -14.6974  -47.5734 S.3       23 UNK        -0.2404 
      8 C8         -1.9027  -14.4727  -49.3286 C.3       23 UNK        -0.0205 
      9 C9         -2.2321  -15.6894  -50.1912 C.ar      23 UNK        -0.0193 
     10 C10        -2.8288  -15.5087  -51.4457 C.ar      23 UNK        -0.1150 
     11 C11        -3.1157  -16.6062  -52.2647 C.ar      23 UNK        -0.0193 
     12 C12        -2.8292  -17.8912  -51.8064 C.ar      23 UNK        -0.1150 
     13 C13        -2.2152  -18.0900  -50.5714 C.ar      23 UNK        -0.0193 
     14 C14        -1.9151  -16.9874  -49.7673 C.ar      23 UNK        -0.1150 
     15 C15        -1.8568  -19.5020  -50.1457 C.3       23 UNK        -0.0205 
     16 S16        -3.3166  -20.4133  -49.5527 S.3       23 UNK        -0.2404 
     17 C17        -2.9450  -20.5235  -47.7757 C.3       23 UNK        -0.0398 
     18 CA         -2.1140  -21.7967  -47.4480 C.3       11 UNK         0.1400 
     19 N          -0.8057  -21.4915  -46.8647 N.am      11 UNK        -0.5000 
     20 C           0.1613  -22.3897  -46.6274 C.2       10 UNK         0.5000 
     21 O           0.0785  -23.5781  -46.9326 O.2       10 UNK        -0.5000 
     22 CA          1.4030  -21.8919  -45.8645 C.3       10 UNK         0.1400 
     23 CB          2.4016  -21.2114  -46.8121 C.3       10 UNK        -0.1800 
     24 N           1.0495  -20.9857  -44.7701 N.am      10 UNK        -0.5000 
     25 C           0.3448  -21.3561  -43.6901 C.2       9 UNK         0.5000 
     26 O          -0.0114  -22.5150  -43.4729 O.2       9 UNK        -0.5000 
     27 CA         -0.0786  -20.2379  -42.7196 C.3       9 UNK         0.1400 
     28 CB          1.0572  -19.9060  -41.7410 C.3       9 UNK        -0.1800 
     29 N          -0.4933  -19.0190  -43.4147 N.am      9 UNK        -0.5000 
     30 C          -1.5544  -18.9258  -44.2294 C.2       8 UNK         0.5000 
     31 O          -2.3443  -19.8474  -44.4335 O.2       8 UNK        -0.5000 
     32 CA         -1.7171  -17.6035  -45.0004 C.3       8 UNK         0.1400 
     33 CB         -2.3833  -16.5295  -44.1300 C.3       8 UNK        -0.1800 
     34 N          -0.4369  -17.1119  -45.5135 N.am      8 UNK        -0.5000 
     35 C           0.2742  -17.7323  -46.4653 C.2       7 UNK         0.5000 
     36 O          -0.0961  -18.7611  -47.0236 O.2       7 UNK        -0.5000 
     37 CA          1.6340  -17.1308  -46.8482 C.3       7 UNK         0.1400 
     38 CB          1.4904  -16.2483  -48.0936 C.3       7 UNK        -0.1800 
     39 N           2.2443  -16.3878  -45.7419 N.am      7 UNK        -0.5000 
     40 C           2.8258  -16.9973  -44.6986 C.2       6 UNK         0.5000 
     41 O           2.9160  -18.2215  -44.5883 O.2       6 UNK        -0.5000 
     42 CA          3.3514  -16.0919  -43.5710 C.3       6 UNK         0.1400 
     43 CB          4.6311  -15.3627  -44.0069 C.3       6 UNK        -0.1800 
     44 N           2.3639  -15.1189  -43.0972 N.am      6 UNK        -0.5000 
     45 C           1.1764  -15.4342  -42.5581 C.2       5 UNK         0.5000 
     46 O           0.7675  -16.5922  -42.4653 O.2       5 UNK        -0.5000 
     47 CA          0.2785  -14.2771  -42.0677 C.3       5 UNK         0.1400 
     48 CB         -0.6437  -14.6909  -40.8989 C.3       5 UNK        -0.1800 
     49 N           1.0059  -13.0455  -41.7392 N.am      5 UNK        -0.5000 
     50 C           1.9061  -12.8761  -40.7573 C.2       4 UNK         0.5000 
     51 O           2.2594  -13.7721  -39.9885 O.2       4 UNK        -0.5000 
     52 CA          2.5075  -11.4597  -40.6182 C.3       4 UNK         0.1400 
     53 CB          3.8039  -11.4391  -39.7811 C.3       4 UNK        -0.1800 
     54 N           2.7209  -10.7823  -41.9026 N.am      4 UNK        -0.5000 
     55 C           3.4748  -11.2053  -42.9266 C.2       3 UNK         0.5000 
     56 O           4.0620  -12.2873  -42.9425 O.2       3 UNK        -0.5000 
     57 CA          3.5486  -10.2609  -44.1424 C.3       3 UNK         0.1400 
     58 CB          4.5301  -10.7568  -45.2199 C.3       3 UNK        -0.1800 
     59 N           2.2306  -10.0782  -44.7495 N.am      3 UNK        -0.5000 
     60 C           1.2692   -9.2548  -44.3086 C.2       2 UNK         0.5000 
     61 O           1.3942   -8.5383  -43.3145 O.2       2 UNK        -0.5000 
     62 CA         -0.0575   -9.2427  -45.0938 C.3       2 UNK         0.1400 
     63 CB         -0.0886   -8.0605  -46.0742 C.3       2 UNK        -0.1800 
     64 N          -0.2859  -10.4840  -45.8374 N.am      2 UNK        -0.5000 
     65 C          -0.6554  -11.6461  -45.2785 C.2       1 UNK         0.5000 
     66 O          -0.9031  -11.7744  -44.0797 O.2       1 UNK        -0.5000 
     67 C          -2.9122  -22.7811  -46.5750 C.2       11 UNK         0.5000 
     68 O          -3.4506  -23.7504  -47.1046 O.2       11 UNK        -0.5000 
     69 N          -2.9401  -22.5470  -45.2556 N.am      12 UNK        -0.5000 
     70 CA         -3.5805  -23.4239  -44.2739 C.3       12 UNK         0.1400 
     71 CB         -3.5295  -22.7735  -42.8834 C.3       12 UNK        -0.1800 
     72 C          -2.9698  -24.8380  -44.2512 C.2       12 UNK         0.5000 
     73 O          -3.7161  -25.8174  -44.2427 O.2       12 UNK        -0.5000 
     74 N          -1.6324  -24.9217  -44.3069 N.am      13 UNK        -0.5000 
     75 CA         -0.8824  -26.1766  -44.4157 C.3       13 UNK         0.1400 
     76 CB          0.6153  -25.8931  -44.2260 C.3       13 UNK        -0.1800 
     77 C          -1.1368  -26.9230  -45.7422 C.2       13 UNK         0.5000 
     78 O          -1.1980  -28.1527  -45.7467 O.2       13 UNK        -0.5000 
     79 N          -1.3146  -26.1670  -46.8333 N.am      14 UNK        -0.5000 
     80 CA         -1.6520  -26.6613  -48.1708 C.3       14 UNK         0.1400 
     81 CB         -1.2230  -25.6028  -49.2015 C.3       14 UNK        -0.1800 
     82 C          -3.1456  -27.0133  -48.3494 C.2       14 UNK         0.5000 
     83 O          -3.5227  -27.4733  -49.4279 O.2       14 UNK        -0.5000 
     84 N          -3.9725  -26.7670  -47.3206 N.am      15 UNK        -0.5000 
     85 CA         -5.4338  -26.9124  -47.2977 C.3       15 UNK         0.1400 
     86 CB         -5.8447  -28.3937  -47.4279 C.3       15 UNK        -0.1800 
     87 C          -6.1427  -25.9951  -48.3194 C.2       15 UNK         0.5000 
     88 O          -7.1725  -26.3692  -48.8847 O.2       15 UNK        -0.5000 
     89 N          -5.5606  -24.8074  -48.5344 N.am      16 UNK        -0.5000 
     90 CA         -5.9251  -23.7250  -49.4494 C.3       16 UNK         0.1400 
     91 CB         -7.3014  -23.1292  -49.1003 C.3       16 UNK        -0.1800 
     92 C          -5.8303  -24.0978  -50.9383 C.2       16 UNK         0.5000 
     93 O          -5.0986  -23.4413  -51.6766 O.2       16 UNK        -0.5000 
     94 N          -6.5677  -25.1349  -51.3526 N.am      17 UNK        -0.5000 
     95 CA         -6.8078  -25.5377  -52.7404 C.3       17 UNK         0.1400 
     96 CB         -7.7158  -26.7765  -52.7488 C.3       17 UNK        -0.1800 
     97 C          -5.5411  -25.7949  -53.5764 C.2       17 UNK         0.5000 
     98 O          -5.5204  -25.4557  -54.7599 O.2       17 UNK        -0.5000 
     99 N          -4.5028  -26.3639  -52.9504 N.am      18 UNK        -0.5000 
    100 CA        -3.2299  -26.6797  -53.6018 C.3       18 UNK         0.1400 
    101 CB        -2.5051  -27.7613  -52.7867 C.3       18 UNK        -0.1800 
    102 C         -2.3186  -25.4540  -53.8212 C.2       18 UNK         0.5000 
    103 O         -1.3597  -25.5604  -54.5869 O.2       18 UNK        -0.5000 
    104 N         -2.6135  -24.3273  -53.1576 N.am      19 UNK        -0.5000 
    105 CA        -1.8226  -23.0942  -53.2047 C.3       19 UNK         0.1400 
    106 CB        -1.2040  -22.8641  -51.8159 C.3       19 UNK        -0.1800 
    107 C         -2.6538  -21.8799  -53.6661 C.2       19 UNK         0.5000 
    108 O         -2.1505  -20.7564  -53.6356 O.2       19 UNK        -0.5000 
    109 N         -3.8996  -22.1150  -54.1039 N.am      20 UNK        -0.5000 
    110 CA        -4.9250  -21.1103  -54.4111 C.3       20 UNK         0.1400 
    111 CB        -6.2466  -21.8366  -54.7069 C.3       20 UNK        -0.1800 
    112 C         -4.5824  -20.1252  -55.5486 C.2       20 UNK         0.5000 
    113 O         -5.2422  -19.0929  -55.6695 O.2       20 UNK        -0.5000 
    114 N         -3.5556  -20.4405  -56.3474 N.am      21 UNK        -0.5000 
    115 CA        -2.9932  -19.5732  -57.3849 C.3       21 UNK         0.1400 
    116 CB        -2.2120  -20.4519  -58.3760 C.3       21 UNK        -0.1800 
    117 C         -2.0933  -18.4432  -56.8320 C.2       21 UNK         0.5000 
    118 O         -1.6396  -17.6101  -57.6172 O.2       21 UNK        -0.5000 
    119 N         -1.8286  -18.4479  -55.5169 N.am      22 UNK        -0.5000 
    120 CA        -0.9019  -17.5572  -54.7935 C.3       22 UNK         0.1400 
    121 C          0.6010  -17.9297  -54.9901 C.2       22 UNK         0.5000 
    122 N          0.9324  -19.1075  -55.5065 N.am      22 UNK        -0.7600 
    123 O          1.4888  -17.1535  -54.6468 O.2       22 UNK        -0.5000 
    124 C124       -1.1515  -16.0285  -54.9944 C.3       23 UNK        -0.0398 
    125 S125       -2.8276  -15.3200  -54.7492 S.3       23 UNK        -0.2404 
    126 C126       -3.7509  -16.4334  -53.6377 C.3       23 UNK        -0.0205 
    127 H127        3.5099  -13.5674  -47.8950 H         1 UNK         0.0600 
    128 H128        3.1401  -11.8411  -47.9144 H         1 UNK         0.0600 
    129 H129        2.2537  -12.9498  -48.9700 H         1 UNK         0.0600 
    130 H130        0.1470  -12.5530  -48.1212 H         1 UNK         0.3000 
    131 H131       -0.5449  -13.7535  -45.5673 H         1 UNK         0.0600 
    132 H132       -2.8798  -12.8704  -46.1529 H         1 UNK         0.0800 
    133 H133       -2.2293  -12.2719  -47.6542 H         1 UNK         0.0800 
    134 H134       -0.8358  -14.2658  -49.4115 H         1 UNK         0.0800 
    135 H135       -2.4242  -13.5931  -49.7089 H         1 UNK         0.0800 
    136 H136       -3.0620  -14.5125  -51.7946 H         1 UNK         0.1150 
    137 H137       -3.0662  -18.7459  -52.4223 H         1 UNK         0.1150 
    138 H138       -1.4376  -17.1410  -48.8110 H         1 UNK         0.1150 
    139 H139       -1.0659  -19.4938  -49.3950 H         1 UNK         0.0800 
    140 H140       -1.4431  -20.0291  -51.0045 H         1 UNK         0.0800 
    141 H141       -3.8980  -20.4981  -47.2432 H         1 UNK         0.0800 
    142 H142       -2.4369  -19.6129  -47.4643 H         1 UNK         0.0800 
    143 H143       -1.8971  -22.3304  -48.3758 H         1 UNK         0.0600 
    144 H144       -0.6211  -20.5148  -46.6523 H         1 UNK         0.3000 
    145 H145        1.8958  -22.7628  -45.4273 H         1 UNK         0.0600 
    146 H146        2.7538  -21.9130  -47.5693 H         1 UNK         0.0600 
    147 H147        3.2762  -20.8483  -46.2718 H         1 UNK         0.0600 
    148 H148        1.9564  -20.3670  -47.3363 H         1 UNK         0.0600 
    149 H149        1.3240  -20.0170  -44.8647 H         1 UNK         0.3000 
    150 H150       -0.9314  -20.6021  -42.1433 H         1 UNK         0.0600 
    151 H151        1.9283  -19.5011  -42.2577 H         1 UNK         0.0600 
    152 H152        1.3788  -20.7955  -41.1978 H         1 UNK         0.0600 
    153 H153        0.7373  -19.1705  -41.0026 H         1 UNK         0.0600 
    154 H154        0.0780  -18.1925  -43.2574 H         1 UNK         0.3000 
    155 H155       -2.3706  -17.7904  -45.8549 H         1 UNK         0.0600 
    156 H156       -2.5212  -15.5986  -44.6791 H         1 UNK         0.0600 
    157 H157       -1.7944  -16.3112  -43.2425 H         1 UNK         0.0600 
    158 H158       -3.3679  -16.8583  -43.7953 H         1 UNK         0.0600 
    159 H159       -0.0450  -16.2939  -45.0748 H         1 UNK         0.3000 
    160 H160        2.2988  -17.9558  -47.1121 H         1 UNK         0.0600 
    161 H161        0.7338  -15.4788  -47.9537 H         1 UNK         0.0600 
    162 H162        1.1811  -16.8449  -48.9528 H         1 UNK         0.0600 
    163 H163        2.4336  -15.7708  -48.3561 H         1 UNK         0.0600 
    164 H164        2.1944  -15.3731  -45.7552 H         1 UNK         0.3000 
    165 H165        3.6037  -16.7372  -42.7271 H         1 UNK         0.0600 
    166 H166        5.3715  -16.0639  -44.3939 H         1 UNK         0.0600 
    167 H167        4.4314  -14.6276  -44.7878 H         1 UNK         0.0600 
    168 H168        5.0888  -14.8398  -43.1670 H         1 UNK         0.0600 
    169 H169        2.6292  -14.1438  -43.1622 H         1 UNK         0.3000 
    170 H170       -0.3649  -14.0358  -42.9130 H         1 UNK         0.0600 
    171 H171       -1.2860  -13.8647  -40.5943 H         1 UNK         0.0600 
    172 H172       -0.0751  -15.0130  -40.0265 H         1 UNK         0.0600 
    173 H173       -1.2965  -15.5183  -41.1743 H         1 UNK         0.0600 
    174 H174        0.7895  -12.2513  -42.3271 H         1 UNK         0.3000 
    175 H175        1.7623  -10.8696  -40.0831 H         1 UNK         0.0600 
    176 H176        4.5838  -12.0560  -40.2288 H         1 UNK         0.0600 
    177 H177        3.6266  -11.8160  -38.7731 H         1 UNK         0.0600 
    178 H178        4.1933  -10.4259  -39.6820 H         1 UNK         0.0600 
    179 H179        2.2415   -9.8955  -42.0224 H         1 UNK         0.3000 
    180 H180        3.9119   -9.2950  -43.7850 H         1 UNK         0.0600 
    181 H181        4.2542  -11.7413  -45.5978 H         1 UNK         0.0600 
    182 H182        5.5407  -10.8352  -44.8173 H         1 UNK         0.0600 
    183 H183        4.5705  -10.0703  -46.0657 H         1 UNK         0.0600 
    184 H184        2.0197  -10.6744  -45.5345 H         1 UNK         0.3000 
    185 H185       -0.8678   -9.1110  -44.3735 H         1 UNK         0.0600 
    186 H186        0.0519   -7.1144  -45.5496 H         1 UNK         0.0600 
    187 H187        0.6977   -8.1387  -46.8261 H         1 UNK         0.0600 
    188 H188       -1.0458   -8.0034  -46.5929 H         1 UNK         0.0600 
    189 H189       -0.0978  -10.4582  -46.8288 H         1 UNK         0.3000 
    190 H190       -2.5166  -21.6931  -44.9017 H         1 UNK         0.3000 
    191 H191       -4.6295  -23.5229  -44.5606 H         1 UNK         0.0600 
    192 H192       -4.0093  -21.7946  -42.8885 H         1 UNK         0.0600 
    193 H193       -4.0493  -23.3878  -42.1472 H         1 UNK         0.0600 
    194 H194       -2.5057  -22.6412  -42.5348 H         1 UNK         0.0600 
    195 H195       -1.0889  -24.0649  -44.2746 H         1 UNK         0.3000 
    196 H196       -1.2082  -26.8293  -43.6032 H         1 UNK         0.0600 
    197 H197        1.1949  -26.8164  -44.2599 H         1 UNK         0.0600 
    198 H198        0.8083  -25.4221  -43.2618 H         1 UNK         0.0600 
    199 H199        1.0029  -25.2335  -45.0025 H         1 UNK         0.0600 
    200 H200       -1.1810  -25.1643  -46.7501 H         1 UNK         0.3000 
    201 H201       -1.0800  -27.5715  -48.3604 H         1 UNK         0.0600 
    202 H202       -1.3823  -25.9514  -50.2212 H         1 UNK         0.0600 
    203 H203       -0.1636  -25.3644  -49.1062 H         1 UNK         0.0600 
    204 H204       -1.7857  -24.6768  -49.0840 H         1 UNK         0.0600 
    205 H205       -3.5677  -26.3588  -46.4876 H         1 UNK         0.3000 
    206 H206       -5.7537  -26.5684  -46.3132 H         1 UNK         0.0600 
    207 H207       -5.3279  -29.0115  -46.6935 H         1 UNK         0.0600 
    208 H208       -6.9150  -28.5179  -47.2597 H         1 UNK         0.0600 
    209 H209       -5.6226  -28.7920  -48.4182 H         1 UNK         0.0600 
    210 H210       -4.7158  -24.6104  -47.9979 H         1 UNK         0.3000 
    211 H211       -5.1840  -22.9423  -49.2799 H         1 UNK         0.0600 
    212 H212       -7.3257  -22.7786  -48.0685 H         1 UNK         0.0600 
    213 H213       -7.5267  -22.2743  -49.7391 H         1 UNK         0.0600 
    214 H214       -8.1074  -23.8521  -49.2272 H         1 UNK         0.0600 
    215 H215       -7.0661  -25.6527  -50.6334 H         1 UNK         0.3000 
    216 H216       -7.3489  -24.7202  -53.2202 H         1 UNK         0.0600 
    217 H217       -7.2510  -27.6174  -52.2323 H         1 UNK         0.0600 
    218 H218       -7.9353  -27.0960  -53.7685 H         1 UNK         0.0600 
    219 H219       -8.6690  -26.5701  -52.2616 H         1 UNK         0.0600 
    220 H220       -4.5882  -26.5968  -51.9702 H         1 UNK         0.3000 
    221 H221       -3.4435  -27.0984  -54.5877 H         1 UNK         0.0600 
    222 H222       -2.2502  -27.4095  -51.7885 H         1 UNK         0.0600 
    223 H223       -3.1208  -28.6544  -52.6792 H         1 UNK         0.0600 
    224 H224       -1.5772  -28.0639  -53.2737 H         1 UNK         0.0600 
    225 H225       -3.4378  -24.3000  -52.5658 H         1 UNK         0.3000 
    226 H226       -1.0062  -23.1881  -53.9229 H         1 UNK         0.0600 
    227 H227       -0.6061  -23.7209  -51.5057 H         1 UNK         0.0600 
    228 H228       -0.5410  -21.9991  -51.8193 H         1 UNK         0.0600 
    229 H229       -1.9706  -22.6997  -51.0581 H         1 UNK         0.0600 
    230 H230       -4.2171  -23.0735  -54.1002 H         1 UNK         0.3000 
    231 H231       -5.0637  -20.5099  -53.5097 H         1 UNK         0.0600 
    232 H232       -6.1521  -22.5104  -55.5594 H         1 UNK         0.0600 
    233 H233       -7.0454  -21.1287  -54.9324 H         1 UNK         0.0600 
    234 H234       -6.5718  -22.4242  -53.8487 H         1 UNK         0.0600 
    235 H235       -3.0738  -21.3100  -56.1723 H         1 UNK         0.3000 
    236 H236       -3.8140  -19.0973  -57.9254 H         1 UNK         0.0600 
    237 H237       -1.3717  -20.9530  -57.8940 H         1 UNK         0.0600 
    238 H238       -2.8529  -21.2169  -58.8149 H         1 UNK         0.0600 
    239 H239       -1.8117  -19.8573  -59.1982 H         1 UNK         0.0600 
    240 H240       -2.1976  -19.2115  -54.9601 H         1 UNK         0.3000 
    241 H241       -1.0658  -17.7726  -53.7417 H         1 UNK         0.0600 
    242 H242        0.2211  -19.7692  -55.7699 H         1 UNK         0.3800 
    243 H243        1.9059  -19.3423  -55.6212 H         1 UNK         0.3800 
    244 H244       -0.5040  -15.4747  -54.3127 H         1 UNK         0.0800 
    245 H245       -0.8263  -15.7325  -55.9924 H         1 UNK         0.0800 
    246 H246       -4.7533  -16.0262  -53.5009 H         1 UNK         0.0800 
    247 H247       -3.8877  -17.3945  -54.1309 H         1 UNK         0.0800 
@<TRIPOS>BOND
     1    1    2 1    
     2    1  127 1    
     3    1  128 1    
     4    1  129 1    
     5    2    3 2    
     6    2    4 am   BACKBONE|DICT|INTERRES
     7    4    5 1    
     8    4  130 1    
     9    5    6 1    
    10    5   65 1    
    11    5  131 1    
    12    6    7 1    
    13    6  132 1    
    14    6  133 1    
    15    7    8 1    
    16    8    9 1    
    17    8  134 1    
    18    8  135 1    
    19    9   10 ar   
    20    9   14 ar   
    21   10   11 ar   
    22   10  136 1    
    23   11   12 ar   
    24   11  126 1    
    25   12   13 ar   
    26   12  137 1    
    27   13   14 ar   
    28   13   15 1    
    29   14  138 1    
    30   15   16 1    
    31   15  139 1    
    32   15  140 1    
    33   16   17 1    
    34   17   18 1    
    35   17  141 1    
    36   17  142 1    
    37   18   19 1    
    38   18   67 1    
    39   18  143 1    
    40   19   20 am   BACKBONE|DICT|INTERRES
    41   19  144 1    
    42   20   21 2    
    43   20   22 1    
    44   22   23 1    
    45   22   24 1    
    46   22  145 1    
    47   23  146 1    
    48   23  147 1    
    49   23  148 1    
    50   24   25 am   BACKBONE|DICT|INTERRES
    51   24  149 1    
    52   25   26 2    
    53   25   27 1    
    54   27   28 1    
    55   27   29 1    
    56   27  150 1    
    57   28  151 1    
    58   28  152 1    
    59   28  153 1    
    60   29   30 am   BACKBONE|DICT|INTERRES
    61   29  154 1    
    62   30   31 2    
    63   30   32 1    
    64   32   33 1    
    65   32   34 1    
    66   32  155 1    
    67   33  156 1    
    68   33  157 1    
    69   33  158 1    
    70   34   35 am   BACKBONE|DICT|INTERRES
    71   34  159 1    
    72   35   36 2    
    73   35   37 1    
    74   37   38 1    
    75   37   39 1    
    76   37  160 1    
    77   38  161 1    
    78   38  162 1    
    79   38  163 1    
    80   39   40 am   BACKBONE|DICT|INTERRES
    81   39  164 1    
    82   40   41 2    
    83   40   42 1    
    84   42   43 1    
    85   42   44 1    
    86   42  165 1    
    87   43  166 1    
    88   43  167 1    
    89   43  168 1    
    90   44   45 am   BACKBONE|DICT|INTERRES
    91   44  169 1    
    92   45   46 2    
    93   45   47 1    
    94   47   48 1    
    95   47   49 1    
    96   47  170 1    
    97   48  171 1    
    98   48  172 1    
    99   48  173 1    
   100   49   50 am   BACKBONE|DICT|INTERRES
   101   49  174 1    
   102   50   51 2    
   103   50   52 1    
   104   52   53 1    
   105   52   54 1    
   106   52  175 1    
   107   53  176 1    
   108   53  177 1    
   109   53  178 1    
   110   54   55 am   BACKBONE|DICT|INTERRES
   111   54  179 1    
   112   55   56 2    
   113   55   57 1    
   114   57   58 1    
   115   57   59 1    
   116   57  180 1    
   117   58  181 1    
   118   58  182 1    
   119   58  183 1    
   120   59   60 am   BACKBONE|DICT|INTERRES
   121   59  184 1    
   122   60   61 2    
   123   60   62 1    
   124   62   63 1    
   125   62   64 1    
   126   62  185 1    
   127   63  186 1    
   128   63  187 1    
   129   63  188 1    
   130   64   65 am   BACKBONE|DICT|INTERRES
   131   64  189 1    
   132   65   66 2    
   133   67   68 2    
   134   67   69 am   BACKBONE|DICT|INTERRES
   135   69   70 1    
   136   69  190 1    
   137   70   71 1    
   138   70   72 1    
   139   70  191 1    
   140   71  192 1    
   141   71  193 1    
   142   71  194 1    
   143   72   73 2    
   144   72   74 am   BACKBONE|DICT|INTERRES
   145   74   75 1    
   146   74  195 1    
   147   75   76 1    
   148   75   77 1    
   149   75  196 1    
   150   76  197 1    
   151   76  198 1    
   152   76  199 1    
   153   77   78 2    
   154   77   79 am   BACKBONE|DICT|INTERRES
   155   79   80 1    
   156   79  200 1    
   157   80   81 1    
   158   80   82 1    
   159   80  201 1    
   160   81  202 1    
   161   81  203 1    
   162   81  204 1    
   163   82   83 2    
   164   82   84 am   BACKBONE|DICT|INTERRES
   165   84   85 1    
   166   84  205 1    
   167   85   86 1    
   168   85   87 1    
   169   85  206 1    
   170   86  207 1    
   171   86  208 1    
   172   86  209 1    
   173   87   88 2    
   174   87   89 am   BACKBONE|DICT|INTERRES
   175   89   90 1    
   176   89  210 1    
   177   90   91 1    
   178   90   92 1    
   179   90  211 1    
   180   91  212 1    
   181   91  213 1    
   182   91  214 1    
   183   92   93 2    
   184   92   94 am   BACKBONE|DICT|INTERRES
   185   94   95 1    
   186   94  215 1    
   187   95   96 1    
   188   95   97 1    
   189   95  216 1    
   190   96  217 1    
   191   96  218 1    
   192   96  219 1    
   193   97   98 2    
   194   97   99 am   BACKBONE|DICT|INTERRES
   195   99  100 1    
   196   99  220 1    
   197  100  101 1    
   198  100  102 1    
   199  100  221 1    
   200  101  222 1    
   201  101  223 1    
   202  101  224 1    
   203  102  103 2    
   204  102  104 am   BACKBONE|DICT|INTERRES
   205  104  105 1    
   206  104  225 1    
   207  105  106 1    
   208  105  107 1    
   209  105  226 1    
   210  106  227 1    
   211  106  228 1    
   212  106  229 1    
   213  107  108 2    
   214  107  109 am   BACKBONE|DICT|INTERRES
   215  109  110 1    
   216  109  230 1    
   217  110  111 1    
   218  110  112 1    
   219  110  231 1    
   220  111  232 1    
   221  111  233 1    
   222  111  234 1    
   223  112  113 2    
   224  112  114 am   BACKBONE|DICT|INTERRES
   225  114  115 1    
   226  114  235 1    
   227  115  116 1    
   228  115  117 1    
   229  115  236 1    
   230  116  237 1    
   231  116  238 1    
   232  116  239 1    
   233  117  118 2    
   234  117  119 am   BACKBONE|DICT|INTERRES
   235  119  120 1    
   236  119  240 1    
   237  120  121 1    
   238  120  124 1    
   239  120  241 1    
   240  121  122 am   BACKBONE|DICT|INTERRES
   241  121  123 2    
   242  122  242 1    
   243  122  243 1    
   244  124  125 1    
   245  124  244 1    
   246  124  245 1    
   247  125  126 1    
   248  126  246 1    
   249  126  247 1    
@<TRIPOS>SUBSTRUCTURE
     1 UNK         1 GROUP             0       ****    0 ROOT    
