@<TRIPOS>MOLECULE
3R540
247   249    1
SMALL
USER_CHARGES


@<TRIPOS>ATOM
      1 CA          7.7704  -13.8009  -42.8322 C.3       0 UNK        -0.1800 
      2 C           7.0685  -14.1475  -44.1380 C.2       0 UNK         0.5000 
      3 O           7.6717  -14.0290  -45.2049 O.2       0 UNK        -0.5000 
      4 N           5.8035  -14.5813  -44.0507 N.am      1 UNK        -0.5000 
      5 CA          4.9166  -14.9071  -45.1750 C.3       1 UNK         0.1400 
      6 C6          5.4755  -16.0476  -46.0746 C.3       23 UNK        -0.0398 
      7 S7          4.1547  -17.0888  -46.7782 S.3       23 UNK        -0.2404 
      8 C8          4.5693  -17.0746  -48.5511 C.3       23 UNK        -0.0205 
      9 C9          3.5856  -17.9251  -49.3387 C.ar      23 UNK        -0.0193 
     10 C10         2.6349  -17.3353  -50.1780 C.ar      23 UNK        -0.1150 
     11 C11         1.7226  -18.1287  -50.8819 C.ar      23 UNK        -0.0193 
     12 C12         1.7533  -19.5173  -50.7233 C.ar      23 UNK        -0.1150 
     13 C13         2.7024  -20.1202  -49.8919 C.ar      23 UNK        -0.0193 
     14 C14         3.6276  -19.3160  -49.2193 C.ar      23 UNK        -0.1150 
     15 C15         2.7161  -21.6387  -49.7396 C.3       23 UNK        -0.0205 
     16 S16         3.0267  -22.2296  -48.0365 S.3       23 UNK        -0.2404 
     17 C17         1.7199  -21.3748  -47.0882 C.3       23 UNK        -0.0398 
     18 CA          0.4835  -22.2501  -46.7819 C.3       11 UNK         0.1400 
     19 N          -0.4113  -21.5915  -45.8299 N.am      11 UNK        -0.5000 
     20 C          -1.4483  -22.1808  -45.2194 C.2       10 UNK         0.5000 
     21 O          -1.7023  -23.3815  -45.3092 O.2       10 UNK        -0.5000 
     22 CA         -2.3756  -21.2707  -44.3937 C.3       10 UNK         0.1400 
     23 CB         -1.8327  -21.0984  -42.9675 C.3       10 UNK        -0.1800 
     24 N          -2.5703  -19.9550  -45.0056 N.am      10 UNK        -0.5000 
     25 C          -3.2048  -19.7419  -46.1671 C.2       9 UNK         0.5000 
     26 O          -3.7458  -20.6256  -46.8325 O.2       9 UNK        -0.5000 
     27 CA         -3.2075  -18.3020  -46.7055 C.3       9 UNK         0.1400 
     28 CB         -4.3180  -17.4689  -46.0497 C.3       9 UNK        -0.1800 
     29 N          -1.9230  -17.6244  -46.5551 N.am      9 UNK        -0.5000 
     30 C          -0.7906  -18.0082  -47.1604 C.2       8 UNK         0.5000 
     31 O          -0.7148  -18.9803  -47.9097 O.2       8 UNK        -0.5000 
     32 CA          0.4798  -17.2165  -46.8118 C.3       8 UNK         0.1400 
     33 CB          0.5243  -15.8625  -47.5364 C.3       8 UNK        -0.1800 
     34 N           0.5993  -16.9946  -45.3724 N.am      8 UNK        -0.5000 
     35 C           0.8031  -17.9621  -44.4680 C.2       7 UNK         0.5000 
     36 O           0.9370  -19.1522  -44.7505 O.2       7 UNK        -0.5000 
     37 CA          0.8094  -17.5235  -42.9931 C.3       7 UNK         0.1400 
     38 CB          2.1870  -16.9721  -42.5960 C.3       7 UNK        -0.1800 
     39 N          -0.2148  -16.5181  -42.7046 N.am      7 UNK        -0.5000 
     40 C          -1.5351  -16.7381  -42.7772 C.2       6 UNK         0.5000 
     41 O          -2.0364  -17.8216  -43.0755 O.2       6 UNK        -0.5000 
     42 CA         -2.4424  -15.5227  -42.5267 C.3       6 UNK         0.1400 
     43 CB         -2.5862  -15.2467  -41.0228 C.3       6 UNK        -0.1800 
     44 N          -1.9659  -14.3140  -43.2013 N.am      6 UNK        -0.5000 
     45 C          -1.8740  -14.1592  -44.5271 C.2       5 UNK         0.5000 
     46 O          -2.1329  -15.0519  -45.3327 O.2       5 UNK        -0.5000 
     47 CA         -1.4051  -12.7905  -45.0487 C.3       5 UNK         0.1400 
     48 CB         -2.4570  -11.6956  -44.7891 C.3       5 UNK        -0.1800 
     49 N          -0.0777  -12.3796  -44.5809 N.am      5 UNK        -0.5000 
     50 C           0.3306  -12.0682  -43.3397 C.2       4 UNK         0.5000 
     51 O          -0.3768  -12.1669  -42.3363 O.2       4 UNK        -0.5000 
     52 CA          1.7777  -11.5491  -43.1889 C.3       4 UNK         0.1400 
     53 CB          2.7005  -12.6899  -42.7336 C.3       4 UNK        -0.1800 
     54 N           2.3167  -10.9552  -44.4168 N.am      4 UNK        -0.5000 
     55 C           1.8288   -9.8571  -45.0162 C.2       3 UNK         0.5000 
     56 O           0.9607   -9.1408  -44.5161 O.2       3 UNK        -0.5000 
     57 CA          2.3624   -9.5127  -46.4235 C.3       3 UNK         0.1400 
     58 CB          3.3432   -8.3323  -46.3520 C.3       3 UNK        -0.1800 
     59 N           3.0155  -10.6241  -47.1213 N.am      3 UNK        -0.5000 
     60 C           2.4633  -11.8032  -47.4419 C.2       2 UNK         0.5000 
     61 O           1.2956  -12.1051  -47.1929 O.2       2 UNK        -0.5000 
     62 CA          3.3894  -12.8501  -48.0932 C.3       2 UNK         0.1400 
     63 CB          4.5902  -12.2353  -48.8444 C.3       2 UNK        -0.1800 
     64 N           3.8605  -13.8512  -47.1296 N.am      2 UNK        -0.5000 
     65 C           4.4867  -13.6437  -45.9616 C.2       1 UNK         0.5000 
     66 O           4.6882  -12.5231  -45.4854 O.2       1 UNK        -0.5000 
     67 C          -0.2806  -22.6496  -48.0598 C.2       11 UNK         0.5000 
     68 O          -0.2166  -23.8098  -48.4686 O.2       11 UNK        -0.5000 
     69 N          -1.0251  -21.6996  -48.6452 N.am      12 UNK        -0.5000 
     70 CA         -1.8436  -21.8965  -49.8425 C.3       12 UNK         0.1400 
     71 CB         -2.4866  -20.5667  -50.2555 C.3       12 UNK        -0.1800 
     72 C          -2.9064  -22.9992  -49.6827 C.2       12 UNK         0.5000 
     73 O          -3.0926  -23.7807  -50.6136 O.2       12 UNK        -0.5000 
     74 N          -3.5020  -23.0947  -48.4843 N.am      13 UNK        -0.5000 
     75 CA         -4.4534  -24.1341  -48.0744 C.3       13 UNK         0.1400 
     76 CB         -5.0233  -23.7701  -46.6925 C.3       13 UNK        -0.1800 
     77 C          -3.8832  -25.5693  -48.0386 C.2       13 UNK         0.5000 
     78 O          -4.6604  -26.5119  -47.8749 O.2       13 UNK        -0.5000 
     79 N          -2.5588  -25.7203  -48.1615 N.am      14 UNK        -0.5000 
     80 CA         -1.8760  -27.0033  -48.2811 C.3       14 UNK         0.1400 
     81 CB         -0.8491  -27.1348  -47.1443 C.3       14 UNK        -0.1800 
     82 C          -1.1924  -27.1345  -49.6514 C.2       14 UNK         0.5000 
     83 O          -1.3352  -28.1710  -50.3016 O.2       14 UNK        -0.5000 
     84 N          -0.4320  -26.1068  -50.0509 N.am      15 UNK        -0.5000 
     85 CA          0.4821  -26.1652  -51.1893 C.3       15 UNK         0.1400 
     86 CB          1.6801  -25.2475  -50.9018 C.3       15 UNK        -0.1800 
     87 C          -0.1554  -25.7818  -52.5347 C.2       15 UNK         0.5000 
     88 O           0.2613  -26.3252  -53.5590 O.2       15 UNK        -0.5000 
     89 N          -1.1054  -24.8366  -52.5337 N.am      16 UNK        -0.5000 
     90 CA         -1.6633  -24.2593  -53.7600 C.3       16 UNK         0.1400 
     91 CB         -1.8636  -22.7445  -53.5824 C.3       16 UNK        -0.1800 
     92 C          -2.9771  -24.9400  -54.1687 C.2       16 UNK         0.5000 
     93 O          -3.1653  -25.2302  -55.3511 O.2       16 UNK        -0.5000 
     94 N          -3.8582  -25.1855  -53.1947 N.am      17 UNK        -0.5000 
     95 CA         -5.1776  -25.7832  -53.3760 C.3       17 UNK         0.1400 
     96 CB         -6.1473  -24.7361  -53.9641 C.3       17 UNK        -0.1800 
     97 C          -5.6806  -26.3071  -52.0234 C.2       17 UNK         0.5000 
     98 O          -5.0059  -26.1354  -51.0090 O.2       17 UNK        -0.5000 
     99 N          -6.8697  -26.9228  -52.0207 N.am      18 UNK        -0.5000 
    100 CA        -7.5863  -27.2878  -50.7945 C.3       18 UNK         0.1400 
    101 CB        -8.6725  -28.3205  -51.1330 C.3       18 UNK        -0.1800 
    102 C         -8.2045  -26.0591  -50.0946 C.2       18 UNK         0.5000 
    103 O         -8.3593  -26.0653  -48.8729 O.2       18 UNK        -0.5000 
    104 N         -8.5465  -25.0309  -50.8827 N.am      19 UNK        -0.5000 
    105 CA        -9.0210  -23.7343  -50.4092 C.3       19 UNK         0.1400 
    106 CB        -9.8303  -23.0629  -51.5296 C.3       19 UNK        -0.1800 
    107 C         -7.8368  -22.8447  -49.9949 C.2       19 UNK         0.5000 
    108 O         -6.7830  -22.8902  -50.6327 O.2       19 UNK        -0.5000 
    109 N         -8.0447  -22.0365  -48.9506 N.am      20 UNK        -0.5000 
    110 CA        -7.0797  -21.0555  -48.4569 C.3       20 UNK         0.1400 
    111 CB        -7.4551  -20.6908  -47.0098 C.3       20 UNK        -0.1800 
    112 C         -7.0191  -19.7941  -49.3398 C.2       20 UNK         0.5000 
    113 O         -7.9058  -19.5727  -50.1686 O.2       20 UNK        -0.5000 
    114 N         -5.9846  -18.9816  -49.0840 N.am      21 UNK        -0.5000 
    115 CA        -5.6007  -17.7326  -49.7550 C.3       21 UNK         0.1400 
    116 CB        -6.7754  -16.7433  -49.8900 C.3       21 UNK        -0.1800 
    117 C         -4.8964  -17.9749  -51.1023 C.2       21 UNK         0.5000 
    118 O         -5.2024  -18.9320  -51.8149 O.2       21 UNK        -0.5000 
    119 N         -3.9454  -17.0887  -51.4156 N.am      22 UNK        -0.5000 
    120 CA        -3.0916  -17.1500  -52.6149 C.3       22 UNK         0.1400 
    121 C         -3.7935  -16.7244  -53.9395 C.2       22 UNK         0.5000 
    122 N         -5.0035  -16.1788  -53.9121 N.am      22 UNK        -0.7600 
    123 O         -3.2292  -16.8976  -55.0161 O.2       22 UNK        -0.5000 
    124 C124       -1.7783  -16.3509  -52.4088 C.3       23 UNK        -0.0398 
    125 S125       -0.7936  -16.9643  -50.9973 S.3       23 UNK        -0.2404 
    126 C126        0.7268  -17.4938  -51.8413 C.3       23 UNK        -0.0205 
    127 H127        7.1238  -13.9596  -41.9688 H         1 UNK         0.0600 
    128 H128        8.0775  -12.7551  -42.8386 H         1 UNK         0.0600 
    129 H129        8.6602  -14.4183  -42.7087 H         1 UNK         0.0600 
    130 H130        5.3740  -14.6317  -43.1381 H         1 UNK         0.3000 
    131 H131        4.0067  -15.2726  -44.6989 H         1 UNK         0.0600 
    132 H132        6.1255  -15.6561  -46.8594 H         1 UNK         0.0800 
    133 H133        6.1033  -16.7150  -45.4826 H         1 UNK         0.0800 
    134 H134        5.5780  -17.4667  -48.6905 H         1 UNK         0.0800 
    135 H135        4.5792  -16.0504  -48.9263 H         1 UNK         0.0800 
    136 H136        2.6041  -16.2605  -50.2878 H         1 UNK         0.1150 
    137 H137        1.0398  -20.1295  -51.2569 H         1 UNK         0.1150 
    138 H138        4.3687  -19.7691  -48.5761 H         1 UNK         0.1150 
    139 H139        1.7674  -22.0528  -50.0799 H         1 UNK         0.0800 
    140 H140        3.4839  -22.0479  -50.3971 H         1 UNK         0.0800 
    141 H141        1.4287  -20.4494  -47.5837 H         1 UNK         0.0800 
    142 H142        2.1791  -21.0644  -46.1491 H         1 UNK         0.0800 
    143 H143        0.8348  -23.1704  -46.3103 H         1 UNK         0.0600 
    144 H144       -0.2366  -20.6080  -45.6545 H         1 UNK         0.3000 
    145 H145       -3.3502  -21.7595  -44.3318 H         1 UNK         0.0600 
    146 H146       -2.5252  -20.5269  -42.3494 H         1 UNK         0.0600 
    147 H147       -0.8737  -20.5791  -42.9627 H         1 UNK         0.0600 
    148 H148       -1.6871  -22.0653  -42.4842 H         1 UNK         0.0600 
    149 H149       -2.2049  -19.1579  -44.4920 H         1 UNK         0.3000 
    150 H150       -3.4057  -18.3627  -47.7751 H         1 UNK         0.0600 
    151 H151       -5.2917  -17.9457  -46.1669 H         1 UNK         0.0600 
    152 H152       -4.3846  -16.4783  -46.5001 H         1 UNK         0.0600 
    153 H153       -4.1421  -17.3372  -44.9815 H         1 UNK         0.0600 
    154 H154       -1.9143  -16.7876  -45.9766 H         1 UNK         0.3000 
    155 H155        1.3355  -17.8094  -47.1398 H         1 UNK         0.0600 
    156 H156       -0.3420  -15.2431  -47.3050 H         1 UNK         0.0600 
    157 H157        0.5460  -16.0012  -48.6158 H         1 UNK         0.0600 
    158 H158        1.4168  -15.3000  -47.2672 H         1 UNK         0.0600 
    159 H159        0.4428  -16.0546  -45.0442 H         1 UNK         0.3000 
    160 H160        0.6031  -18.4057  -42.3834 H         1 UNK         0.0600 
    161 H161        2.4140  -16.0434  -43.1187 H         1 UNK         0.0600 
    162 H162        2.9782  -17.6854  -42.8316 H         1 UNK         0.0600 
    163 H163        2.2372  -16.7736  -41.5253 H         1 UNK         0.0600 
    164 H164        0.1041  -15.5949  -42.4514 H         1 UNK         0.3000 
    165 H165       -3.4307  -15.7604  -42.9258 H         1 UNK         0.0600 
    166 H166       -3.3007  -14.4446  -40.8371 H         1 UNK         0.0600 
    167 H167       -2.9468  -16.1311  -40.4958 H         1 UNK         0.0600 
    168 H168       -1.6357  -14.9587  -40.5719 H         1 UNK         0.0600 
    169 H169       -1.6596  -13.5393  -42.6187 H         1 UNK         0.3000 
    170 H170       -1.3094  -12.8906  -46.1313 H         1 UNK         0.0600 
    171 H171       -3.4207  -11.9730  -45.2179 H         1 UNK         0.0600 
    172 H172       -2.6135  -11.5180  -43.7249 H         1 UNK         0.0600 
    173 H173       -2.1586  -10.7510  -45.2441 H         1 UNK         0.0600 
    174 H174        0.5955  -12.2636  -45.3325 H         1 UNK         0.3000 
    175 H175        1.7745  -10.7777  -42.4163 H         1 UNK         0.0600 
    176 H176        2.7070  -13.5083  -43.4529 H         1 UNK         0.0600 
    177 H177        3.7266  -12.3437  -42.6070 H         1 UNK         0.0600 
    178 H178        2.3740  -13.0981  -41.7762 H         1 UNK         0.0600 
    179 H179        3.0707  -11.4575  -44.8749 H         1 UNK         0.3000 
    180 H180        1.5036   -9.2096  -47.0255 H         1 UNK         0.0600 
    181 H181        3.6549   -8.0162  -47.3477 H         1 UNK         0.0600 
    182 H182        4.2384   -8.5891  -45.7841 H         1 UNK         0.0600 
    183 H183        2.8837   -7.4691  -45.8684 H         1 UNK         0.0600 
    184 H184        3.9990  -10.5041  -47.3159 H         1 UNK         0.3000 
    185 H185        2.7802  -13.3822  -48.8257 H         1 UNK         0.0600 
    186 H186        4.2623  -11.4830  -49.5631 H         1 UNK         0.0600 
    187 H187        5.3055  -11.7640  -48.1695 H         1 UNK         0.0600 
    188 H188        5.1273  -13.0006  -49.4048 H         1 UNK         0.0600 
    189 H189        3.6899  -14.8125  -47.3916 H         1 UNK         0.3000 
    190 H190       -0.9974  -20.7524  -48.2711 H         1 UNK         0.3000 
    191 H191       -1.1680  -22.2055  -50.6423 H         1 UNK         0.0600 
    192 H192       -1.7294  -19.8099  -50.4595 H         1 UNK         0.0600 
    193 H193       -3.1452  -20.1804  -49.4786 H         1 UNK         0.0600 
    194 H194       -3.0815  -20.6844  -51.1618 H         1 UNK         0.0600 
    195 H195       -3.2984  -22.3801  -47.7935 H         1 UNK         0.3000 
    196 H196       -5.2698  -24.1342  -48.7979 H         1 UNK         0.0600 
    197 H197       -5.4099  -22.7543  -46.6643 H         1 UNK         0.0600 
    198 H198       -4.2659  -23.8540  -45.9134 H         1 UNK         0.0600 
    199 H199       -5.8443  -24.4355  -46.4230 H         1 UNK         0.0600 
    200 H200       -1.9853  -24.8930  -48.2710 H         1 UNK         0.3000 
    201 H201       -2.5827  -27.8307  -48.1914 H         1 UNK         0.0600 
    202 H202       -1.3389  -27.1121  -46.1707 H         1 UNK         0.0600 
    203 H203       -0.1143  -26.3289  -47.1647 H         1 UNK         0.0600 
    204 H204       -0.3063  -28.0782  -47.2146 H         1 UNK         0.0600 
    205 H205       -0.3532  -25.2845  -49.4552 H         1 UNK         0.3000 
    206 H206        0.8653  -27.1837  -51.2849 H         1 UNK         0.0600 
    207 H207        1.3694  -24.2067  -50.8176 H         1 UNK         0.0600 
    208 H208        2.1790  -25.5239  -49.9727 H         1 UNK         0.0600 
    209 H209        2.4209  -25.3059  -51.7003 H         1 UNK         0.0600 
    210 H210       -1.4864  -24.5032  -51.6560 H         1 UNK         0.3000 
    211 H211       -0.9566  -24.3883  -54.5828 H         1 UNK         0.0600 
    212 H212       -2.6375  -22.5155  -52.8508 H         1 UNK         0.0600 
    213 H213       -2.1668  -22.2840  -54.5234 H         1 UNK         0.0600 
    214 H214       -0.9421  -22.2565  -53.2647 H         1 UNK         0.0600 
    215 H215       -3.6380  -24.9384  -52.2317 H         1 UNK         0.3000 
    216 H216       -5.0955  -26.6339  -54.0553 H         1 UNK         0.0600 
    217 H217       -7.1357  -25.1599  -54.1423 H         1 UNK         0.0600 
    218 H218       -5.7916  -24.3540  -54.9209 H         1 UNK         0.0600 
    219 H219       -6.2687  -23.8855  -53.2917 H         1 UNK         0.0600 
    220 H220       -7.3571  -27.0680  -52.8931 H         1 UNK         0.3000 
    221 H221       -6.8826  -27.7489  -50.0975 H         1 UNK         0.0600 
    222 H222       -9.4067  -27.9198  -51.8331 H         1 UNK         0.0600 
    223 H223       -8.2393  -29.2175  -51.5759 H         1 UNK         0.0600 
    224 H224       -9.2095  -28.6292  -50.2352 H         1 UNK         0.0600 
    225 H225       -8.3367  -25.0951  -51.8666 H         1 UNK         0.3000 
    226 H226       -9.6772  -23.8849  -49.5490 H         1 UNK         0.0600 
    227 H227      -10.6861  -23.6731  -51.8190 H         1 UNK         0.0600 
    228 H228      -10.2151  -22.0948  -51.2061 H         1 UNK         0.0600 
    229 H229       -9.2220  -22.8925  -52.4190 H         1 UNK         0.0600 
    230 H230       -8.9544  -22.0246  -48.5135 H         1 UNK         0.3000 
    231 H231       -6.0877  -21.5104  -48.4628 H         1 UNK         0.0600 
    232 H232       -6.7004  -20.0482  -46.5555 H         1 UNK         0.0600 
    233 H233       -7.5354  -21.5799  -46.3842 H         1 UNK         0.0600 
    234 H234       -8.4084  -20.1629  -46.9628 H         1 UNK         0.0600 
    235 H235       -5.3262  -19.3063  -48.3908 H         1 UNK         0.3000 
    236 H236       -4.8752  -17.2608  -49.0927 H         1 UNK         0.0600 
    237 H237       -7.5014  -17.0663  -50.6364 H         1 UNK         0.0600 
    238 H238       -7.2982  -16.6171  -48.9418 H         1 UNK         0.0600 
    239 H239       -6.4189  -15.7595  -50.1967 H         1 UNK         0.0600 
    240 H240       -3.7502  -16.3265  -50.7834 H         1 UNK         0.3000 
    241 H241       -2.8120  -18.1957  -52.7595 H         1 UNK         0.0600 
    242 H242       -5.4474  -15.9121  -54.7770 H         1 UNK         0.3800 
    243 H243       -5.4833  -16.0383  -53.0381 H         1 UNK         0.3800 
    244 H244       -1.9993  -15.2961  -52.2380 H         1 UNK         0.0800 
    245 H245       -1.1642  -16.3848  -53.3104 H         1 UNK         0.0800 
    246 H246        1.1855  -16.6337  -52.3315 H         1 UNK         0.0800 
    247 H247        0.4713  -18.1998  -52.6332 H         1 UNK         0.0800 
@<TRIPOS>BOND
     1    1    2 1    
     2    1  127 1    
     3    1  128 1    
     4    1  129 1    
     5    2    3 2    
     6    2    4 am   BACKBONE|DICT|INTERRES
     7    4    5 1    
     8    4  130 1    
     9    5    6 1    
    10    5   65 1    
    11    5  131 1    
    12    6    7 1    
    13    6  132 1    
    14    6  133 1    
    15    7    8 1    
    16    8    9 1    
    17    8  134 1    
    18    8  135 1    
    19    9   10 ar   
    20    9   14 ar   
    21   10   11 ar   
    22   10  136 1    
    23   11   12 ar   
    24   11  126 1    
    25   12   13 ar   
    26   12  137 1    
    27   13   14 ar   
    28   13   15 1    
    29   14  138 1    
    30   15   16 1    
    31   15  139 1    
    32   15  140 1    
    33   16   17 1    
    34   17   18 1    
    35   17  141 1    
    36   17  142 1    
    37   18   19 1    
    38   18   67 1    
    39   18  143 1    
    40   19   20 am   BACKBONE|DICT|INTERRES
    41   19  144 1    
    42   20   21 2    
    43   20   22 1    
    44   22   23 1    
    45   22   24 1    
    46   22  145 1    
    47   23  146 1    
    48   23  147 1    
    49   23  148 1    
    50   24   25 am   BACKBONE|DICT|INTERRES
    51   24  149 1    
    52   25   26 2    
    53   25   27 1    
    54   27   28 1    
    55   27   29 1    
    56   27  150 1    
    57   28  151 1    
    58   28  152 1    
    59   28  153 1    
    60   29   30 am   BACKBONE|DICT|INTERRES
    61   29  154 1    
    62   30   31 2    
    63   30   32 1    
    64   32   33 1    
    65   32   34 1    
    66   32  155 1    
    67   33  156 1    
    68   33  157 1    
    69   33  158 1    
    70   34   35 am   BACKBONE|DICT|INTERRES
    71   34  159 1    
    72   35   36 2    
    73   35   37 1    
    74   37   38 1    
    75   37   39 1    
    76   37  160 1    
    77   38  161 1    
    78   38  162 1    
    79   38  163 1    
    80   39   40 am   BACKBONE|DICT|INTERRES
    81   39  164 1    
    82   40   41 2    
    83   40   42 1    
    84   42   43 1    
    85   42   44 1    
    86   42  165 1    
    87   43  166 1    
    88   43  167 1    
    89   43  168 1    
    90   44   45 am   BACKBONE|DICT|INTERRES
    91   44  169 1    
    92   45   46 2    
    93   45   47 1    
    94   47   48 1    
    95   47   49 1    
    96   47  170 1    
    97   48  171 1    
    98   48  172 1    
    99   48  173 1    
   100   49   50 am   BACKBONE|DICT|INTERRES
   101   49  174 1    
   102   50   51 2    
   103   50   52 1    
   104   52   53 1    
   105   52   54 1    
   106   52  175 1    
   107   53  176 1    
   108   53  177 1    
   109   53  178 1    
   110   54   55 am   BACKBONE|DICT|INTERRES
   111   54  179 1    
   112   55   56 2    
   113   55   57 1    
   114   57   58 1    
   115   57   59 1    
   116   57  180 1    
   117   58  181 1    
   118   58  182 1    
   119   58  183 1    
   120   59   60 am   BACKBONE|DICT|INTERRES
   121   59  184 1    
   122   60   61 2    
   123   60   62 1    
   124   62   63 1    
   125   62   64 1    
   126   62  185 1    
   127   63  186 1    
   128   63  187 1    
   129   63  188 1    
   130   64   65 am   BACKBONE|DICT|INTERRES
   131   64  189 1    
   132   65   66 2    
   133   67   68 2    
   134   67   69 am   BACKBONE|DICT|INTERRES
   135   69   70 1    
   136   69  190 1    
   137   70   71 1    
   138   70   72 1    
   139   70  191 1    
   140   71  192 1    
   141   71  193 1    
   142   71  194 1    
   143   72   73 2    
   144   72   74 am   BACKBONE|DICT|INTERRES
   145   74   75 1    
   146   74  195 1    
   147   75   76 1    
   148   75   77 1    
   149   75  196 1    
   150   76  197 1    
   151   76  198 1    
   152   76  199 1    
   153   77   78 2    
   154   77   79 am   BACKBONE|DICT|INTERRES
   155   79   80 1    
   156   79  200 1    
   157   80   81 1    
   158   80   82 1    
   159   80  201 1    
   160   81  202 1    
   161   81  203 1    
   162   81  204 1    
   163   82   83 2    
   164   82   84 am   BACKBONE|DICT|INTERRES
   165   84   85 1    
   166   84  205 1    
   167   85   86 1    
   168   85   87 1    
   169   85  206 1    
   170   86  207 1    
   171   86  208 1    
   172   86  209 1    
   173   87   88 2    
   174   87   89 am   BACKBONE|DICT|INTERRES
   175   89   90 1    
   176   89  210 1    
   177   90   91 1    
   178   90   92 1    
   179   90  211 1    
   180   91  212 1    
   181   91  213 1    
   182   91  214 1    
   183   92   93 2    
   184   92   94 am   BACKBONE|DICT|INTERRES
   185   94   95 1    
   186   94  215 1    
   187   95   96 1    
   188   95   97 1    
   189   95  216 1    
   190   96  217 1    
   191   96  218 1    
   192   96  219 1    
   193   97   98 2    
   194   97   99 am   BACKBONE|DICT|INTERRES
   195   99  100 1    
   196   99  220 1    
   197  100  101 1    
   198  100  102 1    
   199  100  221 1    
   200  101  222 1    
   201  101  223 1    
   202  101  224 1    
   203  102  103 2    
   204  102  104 am   BACKBONE|DICT|INTERRES
   205  104  105 1    
   206  104  225 1    
   207  105  106 1    
   208  105  107 1    
   209  105  226 1    
   210  106  227 1    
   211  106  228 1    
   212  106  229 1    
   213  107  108 2    
   214  107  109 am   BACKBONE|DICT|INTERRES
   215  109  110 1    
   216  109  230 1    
   217  110  111 1    
   218  110  112 1    
   219  110  231 1    
   220  111  232 1    
   221  111  233 1    
   222  111  234 1    
   223  112  113 2    
   224  112  114 am   BACKBONE|DICT|INTERRES
   225  114  115 1    
   226  114  235 1    
   227  115  116 1    
   228  115  117 1    
   229  115  236 1    
   230  116  237 1    
   231  116  238 1    
   232  116  239 1    
   233  117  118 2    
   234  117  119 am   BACKBONE|DICT|INTERRES
   235  119  120 1    
   236  119  240 1    
   237  120  121 1    
   238  120  124 1    
   239  120  241 1    
   240  121  122 am   BACKBONE|DICT|INTERRES
   241  121  123 2    
   242  122  242 1    
   243  122  243 1    
   244  124  125 1    
   245  124  244 1    
   246  124  245 1    
   247  125  126 1    
   248  126  246 1    
   249  126  247 1    
@<TRIPOS>SUBSTRUCTURE
     1 UNK         1 GROUP             0       ****    0 ROOT    
