@<TRIPOS>MOLECULE
3R540
247   249    1
SMALL
USER_CHARGES


@<TRIPOS>ATOM
      1 CA          3.7613  -10.1425  -49.0320 C.3       0 UNK        -0.1800 
      2 C           2.7932  -11.3092  -49.1549 C.2       0 UNK         0.5000 
      3 O           1.8266  -11.3864  -48.3936 O.2       0 UNK        -0.5000 
      4 N           3.0313  -12.2062  -50.1223 N.am      1 UNK        -0.5000 
      5 CA          2.2899  -13.4516  -50.3904 C.3       1 UNK         0.1400 
      6 C6          3.1344  -14.4489  -51.2299 C.3       23 UNK        -0.0398 
      7 S7          4.6292  -14.9931  -50.3256 S.3       23 UNK        -0.2404 
      8 C8          4.5792  -16.8164  -50.5043 C.3       23 UNK        -0.0205 
      9 C9          3.3204  -17.5169  -49.9861 C.ar      23 UNK        -0.0193 
     10 C10         2.4572  -16.9215  -49.0585 C.ar      23 UNK        -0.1150 
     11 C11         1.2793  -17.5585  -48.6659 C.ar      23 UNK        -0.0193 
     12 C12         0.9927  -18.8333  -49.1550 C.ar      23 UNK        -0.1150 
     13 C13         1.8676  -19.4682  -50.0372 C.ar      23 UNK        -0.0193 
     14 C14         3.0206  -18.7995  -50.4598 C.ar      23 UNK        -0.1150 
     15 C15         1.5557  -20.8724  -50.5344 C.3       23 UNK        -0.0205 
     16 S16         2.5965  -22.1383  -49.7355 S.3       23 UNK        -0.2404 
     17 C17         2.1698  -21.9667  -47.9668 C.3       23 UNK        -0.0398 
     18 CA          1.2033  -23.0637  -47.4529 C.3       11 UNK         0.1400 
     19 N           1.2308  -23.1977  -45.9954 N.am      11 UNK        -0.5000 
     20 C           2.1616  -23.9020  -45.3357 C.2       10 UNK         0.5000 
     21 O           3.0264  -24.5693  -45.9060 O.2       10 UNK        -0.5000 
     22 CA          2.1483  -23.8601  -43.7948 C.3       10 UNK         0.1400 
     23 CB          3.5700  -23.7665  -43.2109 C.3       10 UNK        -0.1800 
     24 N           1.3624  -22.7408  -43.2775 N.am      10 UNK        -0.5000 
     25 C           0.4325  -22.8321  -42.3169 C.2       9 UNK         0.5000 
     26 O           0.1082  -23.8940  -41.7840 O.2       9 UNK        -0.5000 
     27 CA         -0.2581  -21.5293  -41.8554 C.3       9 UNK         0.1400 
     28 CB          0.2886  -21.0913  -40.4877 C.3       9 UNK        -0.1800 
     29 N          -0.1370  -20.4010  -42.7794 N.am      9 UNK        -0.5000 
     30 C          -0.5852  -20.3757  -44.0395 C.2       8 UNK         0.5000 
     31 O          -1.1347  -21.3256  -44.5987 O.2       8 UNK        -0.5000 
     32 CA         -0.2851  -19.1001  -44.8407 C.3       8 UNK         0.1400 
     33 CB         -1.3207  -18.0112  -44.5207 C.3       8 UNK        -0.1800 
     34 N           1.0643  -18.5732  -44.6300 N.am      8 UNK        -0.5000 
     35 C           2.2123  -19.2523  -44.7784 C.2       7 UNK         0.5000 
     36 O           2.2699  -20.4463  -45.0681 O.2       7 UNK        -0.5000 
     37 CA          3.5116  -18.4724  -44.5303 C.3       7 UNK         0.1400 
     38 CB          3.9218  -17.6892  -45.7873 C.3       7 UNK        -0.1800 
     39 N           3.3648  -17.5548  -43.4015 N.am      7 UNK        -0.5000 
     40 C           3.5082  -17.9105  -42.1173 C.2       6 UNK         0.5000 
     41 O           3.8598  -19.0333  -41.7540 O.2       6 UNK        -0.5000 
     42 CA          3.1964  -16.8374  -41.0555 C.3       6 UNK         0.1400 
     43 CB          4.4584  -16.0269  -40.7235 C.3       6 UNK        -0.1800 
     44 N           2.1293  -15.9183  -41.4559 N.am      6 UNK        -0.5000 
     45 C           0.8416  -16.2619  -41.5969 C.2       5 UNK         0.5000 
     46 O           0.4075  -17.3940  -41.3780 O.2       5 UNK        -0.5000 
     47 CA         -0.1152  -15.1630  -42.1067 C.3       5 UNK         0.1400 
     48 CB         -0.6730  -14.3519  -40.9279 C.3       5 UNK        -0.1800 
     49 N           0.4598  -14.2397  -43.0949 N.am      5 UNK        -0.5000 
     50 C           1.0783  -14.5910  -44.2297 C.2       4 UNK         0.5000 
     51 O           1.3153  -15.7584  -44.5374 O.2       4 UNK        -0.5000 
     52 CA          1.4766  -13.4547  -45.1884 C.3       4 UNK         0.1400 
     53 CB          2.6790  -13.8416  -46.0676 C.3       4 UNK        -0.1800 
     54 N           0.3489  -13.0901  -46.0468 N.am      4 UNK        -0.5000 
     55 C          -0.6795  -12.3218  -45.6640 C.2       3 UNK         0.5000 
     56 O          -0.7530  -11.8097  -44.5449 O.2       3 UNK        -0.5000 
     57 CA         -1.7979  -12.0797  -46.6967 C.3       3 UNK         0.1400 
     58 CB         -2.6582  -10.8422  -46.3640 C.3       3 UNK        -0.1800 
     59 N          -1.2605  -11.9697  -48.0551 N.am      3 UNK        -0.5000 
     60 C          -1.9747  -12.1877  -49.1720 C.2       2 UNK         0.5000 
     61 O          -3.1531  -12.5458  -49.1602 O.2       2 UNK        -0.5000 
     62 CA         -1.2700  -12.0082  -50.5300 C.3       2 UNK         0.1400 
     63 CB         -1.4919  -10.5859  -51.0656 C.3       2 UNK        -0.1800 
     64 N           0.1601  -12.2499  -50.3952 N.am      2 UNK        -0.5000 
     65 C           0.8679  -13.2260  -50.9664 C.2       1 UNK         0.5000 
     66 O           0.4335  -13.9409  -51.8706 O.2       1 UNK        -0.5000 
     67 C          -0.2426  -22.8811  -47.9348 C.2       11 UNK         0.5000 
     68 O          -0.7697  -23.7752  -48.5949 O.2       11 UNK        -0.5000 
     69 N          -0.8867  -21.7620  -47.5679 N.am      12 UNK        -0.5000 
     70 CA         -2.2796  -21.4688  -47.9334 C.3       12 UNK         0.1400 
     71 CB         -2.6649  -20.0407  -47.5268 C.3       12 UNK        -0.1800 
     72 C          -3.2753  -22.4718  -47.3284 C.2       12 UNK         0.5000 
     73 O          -4.2244  -22.8628  -48.0052 O.2       12 UNK        -0.5000 
     74 N          -3.0098  -22.8981  -46.0862 N.am      13 UNK        -0.5000 
     75 CA         -3.7572  -23.9316  -45.3718 C.3       13 UNK         0.1400 
     76 CB         -3.2476  -24.0066  -43.9242 C.3       13 UNK        -0.1800 
     77 C          -3.6688  -25.3098  -46.0545 C.2       13 UNK         0.5000 
     78 O          -4.6808  -26.0032  -46.1551 O.2       13 UNK        -0.5000 
     79 N          -2.4727  -25.6627  -46.5483 N.am      14 UNK        -0.5000 
     80 CA         -2.2146  -26.8910  -47.3061 C.3       14 UNK         0.1400 
     81 CB         -0.6987  -27.1281  -47.3917 C.3       14 UNK        -0.1800 
     82 C          -2.8477  -26.8510  -48.7102 C.2       14 UNK         0.5000 
     83 O          -3.3601  -27.8650  -49.1837 O.2       14 UNK        -0.5000 
     84 N          -2.8403  -25.6615  -49.3240 N.am      15 UNK        -0.5000 
     85 CA         -3.4877  -25.3372  -50.5953 C.3       15 UNK         0.1400 
     86 CB         -2.8373  -24.0555  -51.1362 C.3       15 UNK        -0.1800 
     87 C          -5.0187  -25.1586  -50.4917 C.2       15 UNK         0.5000 
     88 O          -5.6581  -24.8769  -51.5093 O.2       15 UNK        -0.5000 
     89 N          -5.5690  -25.2673  -49.2712 N.am      16 UNK        -0.5000 
     90 CA         -6.9783  -25.1192  -48.8855 C.3       16 UNK         0.1400 
     91 CB         -7.8061  -26.2874  -49.4593 C.3       16 UNK        -0.1800 
     92 C          -7.5846  -23.7428  -49.2394 C.2       16 UNK         0.5000 
     93 O          -8.8000  -23.6366  -49.4115 O.2       16 UNK        -0.5000 
     94 N          -6.7197  -22.7260  -49.3837 N.am      17 UNK        -0.5000 
     95 CA         -6.9857  -21.3861  -49.9215 C.3       17 UNK         0.1400 
     96 CB         -7.8232  -20.5628  -48.9224 C.3       17 UNK        -0.1800 
     97 C          -7.5918  -21.3983  -51.3468 C.2       17 UNK         0.5000 
     98 O          -8.2755  -20.4465  -51.7290 O.2       17 UNK        -0.5000 
     99 N          -7.3468  -22.4815  -52.0979 N.am      18 UNK        -0.5000 
    100 CA        -7.8851  -22.7248  -53.4332 C.3       18 UNK         0.1400 
    101 CB        -8.6909  -24.0341  -53.4199 C.3       18 UNK        -0.1800 
    102 C         -6.7512  -22.7921  -54.4631 C.2       18 UNK         0.5000 
    103 O         -6.8368  -22.1358  -55.5015 O.2       18 UNK        -0.5000 
    104 N         -5.6958  -23.5590  -54.1521 N.am      19 UNK        -0.5000 
    105 CA        -4.5077  -23.7010  -55.0000 C.3       19 UNK         0.1400 
    106 CB        -3.8836  -25.0877  -54.7686 C.3       19 UNK        -0.1800 
    107 C         -3.4800  -22.5657  -54.7998 C.2       19 UNK         0.5000 
    108 O         -2.5079  -22.4943  -55.5528 O.2       19 UNK        -0.5000 
    109 N         -3.7119  -21.6969  -53.8083 N.am      20 UNK        -0.5000 
    110 CA        -2.9501  -20.4854  -53.5316 C.3       20 UNK         0.1400 
    111 CB        -2.0222  -20.7176  -52.3265 C.3       20 UNK        -0.1800 
    112 C         -3.9557  -19.3647  -53.2395 C.2       20 UNK         0.5000 
    113 O         -4.9496  -19.6095  -52.5525 O.2       20 UNK        -0.5000 
    114 N         -3.6788  -18.1628  -53.7585 N.am      21 UNK        -0.5000 
    115 CA        -4.5356  -16.9797  -53.6200 C.3       21 UNK         0.1400 
    116 CB        -4.3030  -16.0656  -54.8343 C.3       21 UNK        -0.1800 
    117 C         -4.3037  -16.2006  -52.3088 C.2       21 UNK         0.5000 
    118 O         -5.0921  -15.3090  -51.9927 O.2       21 UNK        -0.5000 
    119 N         -3.2201  -16.5257  -51.5930 N.am      22 UNK        -0.5000 
    120 CA        -2.8193  -15.9335  -50.3101 C.3       22 UNK         0.1400 
    121 C         -3.8812  -16.1414  -49.1921 C.2       22 UNK         0.5000 
    122 N         -4.2752  -15.0855  -48.4936 N.am      22 UNK        -0.7600 
    123 O         -4.3255  -17.2582  -48.9389 O.2       22 UNK        -0.5000 
    124 C124       -1.4345  -16.4854  -49.8973 C.3       23 UNK        -0.0398 
    125 S125       -0.6113  -15.5356  -48.5733 S.3       23 UNK        -0.2404 
    126 C126        0.3060  -16.8591  -47.7326 C.3       23 UNK        -0.0205 
    127 H127        4.2118  -10.1349  -48.0395 H         1 UNK         0.0600 
    128 H128        3.2325   -9.2004  -49.1752 H         1 UNK         0.0600 
    129 H129        4.5622  -10.2004  -49.7694 H         1 UNK         0.0600 
    130 H130        3.8323  -12.0603  -50.7200 H         1 UNK         0.3000 
    131 H131        2.1126  -13.9175  -49.4201 H         1 UNK         0.0600 
    132 H132        2.5481  -15.3303  -51.4939 H         1 UNK         0.0800 
    133 H133        3.4368  -13.9956  -52.1749 H         1 UNK         0.0800 
    134 H134        5.4411  -17.2349  -49.9833 H         1 UNK         0.0800 
    135 H135        4.7141  -17.0525  -51.5610 H         1 UNK         0.0800 
    136 H136        2.6803  -15.9477  -48.6551 H         1 UNK         0.1150 
    137 H137        0.0896  -19.3376  -48.8488 H         1 UNK         0.1150 
    138 H138        3.6885  -19.2841  -51.1584 H         1 UNK         0.1150 
    139 H139        0.5043  -21.1167  -50.3746 H         1 UNK         0.0800 
    140 H140        1.7145  -20.9150  -51.6128 H         1 UNK         0.0800 
    141 H141        1.7974  -20.9696  -47.7397 H         1 UNK         0.0800 
    142 H142        3.1144  -22.0377  -47.4259 H         1 UNK         0.0800 
    143 H143        1.5324  -24.0155  -47.8770 H         1 UNK         0.0600 
    144 H144        0.5327  -22.6883  -45.4696 H         1 UNK         0.3000 
    145 H145        1.7121  -24.8091  -43.4776 H         1 UNK         0.0600 
    146 H146        3.5485  -23.7669  -42.1210 H         1 UNK         0.0600 
    147 H147        4.1840  -24.6130  -43.5204 H         1 UNK         0.0600 
    148 H148        4.0740  -22.8551  -43.5353 H         1 UNK         0.0600 
    149 H149        1.5718  -21.8342  -43.6829 H         1 UNK         0.3000 
    150 H150       -1.3215  -21.7517  -41.7467 H         1 UNK         0.0600 
    151 H151        0.1875  -21.8878  -39.7492 H         1 UNK         0.0600 
    152 H152       -0.2514  -20.2246  -40.1057 H         1 UNK         0.0600 
    153 H153        1.3457  -20.8275  -40.5460 H         1 UNK         0.0600 
    154 H154        0.3091  -19.5675  -42.4174 H         1 UNK         0.3000 
    155 H155       -0.3589  -19.3544  -45.8970 H         1 UNK         0.0600 
    156 H156       -1.3308  -17.7750  -43.4576 H         1 UNK         0.0600 
    157 H157       -2.3281  -18.3333  -44.7840 H         1 UNK         0.0600 
    158 H158       -1.1219  -17.0888  -45.0658 H         1 UNK         0.0600 
    159 H159        1.1297  -17.5779  -44.4298 H         1 UNK         0.3000 
    160 H160        4.3013  -19.1944  -44.3115 H         1 UNK         0.0600 
    161 H161        3.1780  -16.9420  -46.0618 H         1 UNK         0.0600 
    162 H162        4.0418  -18.3570  -46.6417 H         1 UNK         0.0600 
    163 H163        4.8715  -17.1754  -45.6393 H         1 UNK         0.0600 
    164 H164        2.9948  -16.6373  -43.6153 H         1 UNK         0.3000 
    165 H165        2.8747  -17.3544  -40.1489 H         1 UNK         0.0600 
    166 H166        4.2713  -15.3177  -39.9170 H         1 UNK         0.0600 
    167 H167        5.2680  -16.6814  -40.3976 H         1 UNK         0.0600 
    168 H168        4.8169  -15.4669  -41.5881 H         1 UNK         0.0600 
    169 H169        2.3973  -14.9673  -41.6621 H         1 UNK         0.3000 
    170 H170       -0.9540  -15.6622  -42.5927 H         1 UNK         0.0600 
    171 H171       -1.1333  -15.0055  -40.1855 H         1 UNK         0.0600 
    172 H172        0.1100  -13.7830  -40.4250 H         1 UNK         0.0600 
    173 H173       -1.4385  -13.6497  -41.2590 H         1 UNK         0.0600 
    174 H174        0.2598  -13.2577  -42.9565 H         1 UNK         0.3000 
    175 H175        1.7723  -12.5918  -44.5879 H         1 UNK         0.0600 
    176 H176        2.4208  -14.6144  -46.7897 H         1 UNK         0.0600 
    177 H177        3.0551  -12.9816  -46.6195 H         1 UNK         0.0600 
    178 H178        3.5043  -14.2192  -45.4625 H         1 UNK         0.0600 
    179 H179        0.3230  -13.5156  -46.9620 H         1 UNK         0.3000 
    180 H180       -2.4381  -12.9631  -46.6482 H         1 UNK         0.0600 
    181 H181       -2.0656   -9.9273  -46.3916 H         1 UNK         0.0600 
    182 H182       -3.0979  -10.9221  -45.3691 H         1 UNK         0.0600 
    183 H183       -3.4838  -10.7271  -47.0662 H         1 UNK         0.0600 
    184 H184       -0.2889  -11.6880  -48.1165 H         1 UNK         0.3000 
    185 H185       -1.7123  -12.7184  -51.2313 H         1 UNK         0.0600 
    186 H186       -2.5557  -10.3731  -51.1794 H         1 UNK         0.0600 
    187 H187       -1.0744   -9.8329  -50.3958 H         1 UNK         0.0600 
    188 H188       -1.0278  -10.4583  -52.0437 H         1 UNK         0.0600 
    189 H189        0.6402  -11.7299  -49.6651 H         1 UNK         0.3000 
    190 H190       -0.4232  -21.0999  -46.9666 H         1 UNK         0.3000 
    191 H191       -2.3542  -21.5335  -49.0195 H         1 UNK         0.0600 
    192 H192       -1.9873  -19.2995  -47.9441 H         1 UNK         0.0600 
    193 H193       -2.6829  -19.9225  -46.4449 H         1 UNK         0.0600 
    194 H194       -3.6641  -19.7966  -47.8902 H         1 UNK         0.0600 
    195 H195       -2.2460  -22.4565  -45.5806 H         1 UNK         0.3000 
    196 H196       -4.8077  -23.6341  -45.3532 H         1 UNK         0.0600 
    197 H197       -3.7966  -24.7568  -43.3538 H         1 UNK         0.0600 
    198 H198       -3.3738  -23.0520  -43.4128 H         1 UNK         0.0600 
    199 H199       -2.1894  -24.2684  -43.8812 H         1 UNK         0.0600 
    200 H200       -1.7048  -25.0147  -46.4594 H         1 UNK         0.3000 
    201 H201       -2.6592  -27.7279  -46.7633 H         1 UNK         0.0600 
    202 H202       -0.2546  -27.2054  -46.3992 H         1 UNK         0.0600 
    203 H203       -0.1904  -26.3238  -47.9241 H         1 UNK         0.0600 
    204 H204       -0.4801  -28.0577  -47.9186 H         1 UNK         0.0600 
    205 H205       -2.3211  -24.9045  -48.8889 H         1 UNK         0.3000 
    206 H206       -3.3014  -26.1480  -51.3020 H         1 UNK         0.0600 
    207 H207       -1.7679  -24.1898  -51.2996 H         1 UNK         0.0600 
    208 H208       -3.2752  -23.7536  -52.0832 H         1 UNK         0.0600 
    209 H209       -2.9693  -23.2236  -50.4475 H         1 UNK         0.0600 
    210 H210       -4.9367  -25.4403  -48.5017 H         1 UNK         0.3000 
    211 H211       -7.0051  -25.1919  -47.7975 H         1 UNK         0.0600 
    212 H212       -7.8750  -26.2364  -50.5465 H         1 UNK         0.0600 
    213 H213       -8.8231  -26.2803  -49.0658 H         1 UNK         0.0600 
    214 H214       -7.3654  -27.2488  -49.1956 H         1 UNK         0.0600 
    215 H215       -5.7527  -22.9034  -49.1208 H         1 UNK         0.3000 
    216 H216       -6.0130  -20.9006  -50.0150 H         1 UNK         0.0600 
    217 H217       -7.9041  -19.5233  -49.2421 H         1 UNK         0.0600 
    218 H218       -7.3645  -20.5608  -47.9336 H         1 UNK         0.0600 
    219 H219       -8.8353  -20.9558  -48.8234 H         1 UNK         0.0600 
    220 H220       -6.7828  -23.2257  -51.7014 H         1 UNK         0.3000 
    221 H221       -8.5569  -21.9180  -53.7332 H         1 UNK         0.0600 
    222 H222       -8.0788  -24.8856  -53.1192 H         1 UNK         0.0600 
    223 H223       -9.5298  -23.9689  -52.7267 H         1 UNK         0.0600 
    224 H224       -9.0993  -24.2526  -54.4073 H         1 UNK         0.0600 
    225 H225       -5.6984  -24.0807  -53.2802 H         1 UNK         0.3000 
    226 H226       -4.8146  -23.6584  -56.0472 H         1 UNK         0.0600 
    227 H227       -4.5848  -25.8786  -55.0349 H         1 UNK         0.0600 
    228 H228       -2.9939  -25.2262  -55.3841 H         1 UNK         0.0600 
    229 H229       -3.5916  -25.2435  -53.7321 H         1 UNK         0.0600 
    230 H230       -4.5698  -21.7839  -53.2805 H         1 UNK         0.3000 
    231 H231       -2.3504  -20.2080  -54.4013 H         1 UNK         0.0600 
    232 H232       -1.3374  -21.5459  -52.5096 H         1 UNK         0.0600 
    233 H233       -2.5882  -20.9450  -51.4228 H         1 UNK         0.0600 
    234 H234       -1.4170  -19.8338  -52.1213 H         1 UNK         0.0600 
    235 H235       -2.8435  -18.0456  -54.3146 H         1 UNK         0.3000 
    236 H236       -5.5817  -17.2938  -53.6296 H         1 UNK         0.0600 
    237 H237       -4.9513  -15.1892  -54.7955 H         1 UNK         0.0600 
    238 H238       -3.2730  -15.7095  -54.8791 H         1 UNK         0.0600 
    239 H239       -4.5204  -16.5859  -55.7673 H         1 UNK         0.0600 
    240 H240       -2.6503  -17.2845  -51.9319 H         1 UNK         0.3000 
    241 H241       -2.7137  -14.8638  -50.4923 H         1 UNK         0.0600 
    242 H242       -4.9579  -15.2056  -47.7634 H         1 UNK         0.3800 
    243 H243       -3.9236  -14.1541  -48.7072 H         1 UNK         0.3800 
    244 H244       -1.5261  -17.5320  -49.6049 H         1 UNK         0.0800 
    245 H245       -0.7569  -16.4700  -50.7527 H         1 UNK         0.0800 
    246 H246       -0.4108  -17.5652  -47.3198 H         1 UNK         0.0800 
    247 H247        0.8513  -16.4400  -46.8912 H         1 UNK         0.0800 
@<TRIPOS>BOND
     1    1    2 1    
     2    1  127 1    
     3    1  128 1    
     4    1  129 1    
     5    2    3 2    
     6    2    4 am   BACKBONE|DICT|INTERRES
     7    4    5 1    
     8    4  130 1    
     9    5    6 1    
    10    5   65 1    
    11    5  131 1    
    12    6    7 1    
    13    6  132 1    
    14    6  133 1    
    15    7    8 1    
    16    8    9 1    
    17    8  134 1    
    18    8  135 1    
    19    9   10 ar   
    20    9   14 ar   
    21   10   11 ar   
    22   10  136 1    
    23   11   12 ar   
    24   11  126 1    
    25   12   13 ar   
    26   12  137 1    
    27   13   14 ar   
    28   13   15 1    
    29   14  138 1    
    30   15   16 1    
    31   15  139 1    
    32   15  140 1    
    33   16   17 1    
    34   17   18 1    
    35   17  141 1    
    36   17  142 1    
    37   18   19 1    
    38   18   67 1    
    39   18  143 1    
    40   19   20 am   BACKBONE|DICT|INTERRES
    41   19  144 1    
    42   20   21 2    
    43   20   22 1    
    44   22   23 1    
    45   22   24 1    
    46   22  145 1    
    47   23  146 1    
    48   23  147 1    
    49   23  148 1    
    50   24   25 am   BACKBONE|DICT|INTERRES
    51   24  149 1    
    52   25   26 2    
    53   25   27 1    
    54   27   28 1    
    55   27   29 1    
    56   27  150 1    
    57   28  151 1    
    58   28  152 1    
    59   28  153 1    
    60   29   30 am   BACKBONE|DICT|INTERRES
    61   29  154 1    
    62   30   31 2    
    63   30   32 1    
    64   32   33 1    
    65   32   34 1    
    66   32  155 1    
    67   33  156 1    
    68   33  157 1    
    69   33  158 1    
    70   34   35 am   BACKBONE|DICT|INTERRES
    71   34  159 1    
    72   35   36 2    
    73   35   37 1    
    74   37   38 1    
    75   37   39 1    
    76   37  160 1    
    77   38  161 1    
    78   38  162 1    
    79   38  163 1    
    80   39   40 am   BACKBONE|DICT|INTERRES
    81   39  164 1    
    82   40   41 2    
    83   40   42 1    
    84   42   43 1    
    85   42   44 1    
    86   42  165 1    
    87   43  166 1    
    88   43  167 1    
    89   43  168 1    
    90   44   45 am   BACKBONE|DICT|INTERRES
    91   44  169 1    
    92   45   46 2    
    93   45   47 1    
    94   47   48 1    
    95   47   49 1    
    96   47  170 1    
    97   48  171 1    
    98   48  172 1    
    99   48  173 1    
   100   49   50 am   BACKBONE|DICT|INTERRES
   101   49  174 1    
   102   50   51 2    
   103   50   52 1    
   104   52   53 1    
   105   52   54 1    
   106   52  175 1    
   107   53  176 1    
   108   53  177 1    
   109   53  178 1    
   110   54   55 am   BACKBONE|DICT|INTERRES
   111   54  179 1    
   112   55   56 2    
   113   55   57 1    
   114   57   58 1    
   115   57   59 1    
   116   57  180 1    
   117   58  181 1    
   118   58  182 1    
   119   58  183 1    
   120   59   60 am   BACKBONE|DICT|INTERRES
   121   59  184 1    
   122   60   61 2    
   123   60   62 1    
   124   62   63 1    
   125   62   64 1    
   126   62  185 1    
   127   63  186 1    
   128   63  187 1    
   129   63  188 1    
   130   64   65 am   BACKBONE|DICT|INTERRES
   131   64  189 1    
   132   65   66 2    
   133   67   68 2    
   134   67   69 am   BACKBONE|DICT|INTERRES
   135   69   70 1    
   136   69  190 1    
   137   70   71 1    
   138   70   72 1    
   139   70  191 1    
   140   71  192 1    
   141   71  193 1    
   142   71  194 1    
   143   72   73 2    
   144   72   74 am   BACKBONE|DICT|INTERRES
   145   74   75 1    
   146   74  195 1    
   147   75   76 1    
   148   75   77 1    
   149   75  196 1    
   150   76  197 1    
   151   76  198 1    
   152   76  199 1    
   153   77   78 2    
   154   77   79 am   BACKBONE|DICT|INTERRES
   155   79   80 1    
   156   79  200 1    
   157   80   81 1    
   158   80   82 1    
   159   80  201 1    
   160   81  202 1    
   161   81  203 1    
   162   81  204 1    
   163   82   83 2    
   164   82   84 am   BACKBONE|DICT|INTERRES
   165   84   85 1    
   166   84  205 1    
   167   85   86 1    
   168   85   87 1    
   169   85  206 1    
   170   86  207 1    
   171   86  208 1    
   172   86  209 1    
   173   87   88 2    
   174   87   89 am   BACKBONE|DICT|INTERRES
   175   89   90 1    
   176   89  210 1    
   177   90   91 1    
   178   90   92 1    
   179   90  211 1    
   180   91  212 1    
   181   91  213 1    
   182   91  214 1    
   183   92   93 2    
   184   92   94 am   BACKBONE|DICT|INTERRES
   185   94   95 1    
   186   94  215 1    
   187   95   96 1    
   188   95   97 1    
   189   95  216 1    
   190   96  217 1    
   191   96  218 1    
   192   96  219 1    
   193   97   98 2    
   194   97   99 am   BACKBONE|DICT|INTERRES
   195   99  100 1    
   196   99  220 1    
   197  100  101 1    
   198  100  102 1    
   199  100  221 1    
   200  101  222 1    
   201  101  223 1    
   202  101  224 1    
   203  102  103 2    
   204  102  104 am   BACKBONE|DICT|INTERRES
   205  104  105 1    
   206  104  225 1    
   207  105  106 1    
   208  105  107 1    
   209  105  226 1    
   210  106  227 1    
   211  106  228 1    
   212  106  229 1    
   213  107  108 2    
   214  107  109 am   BACKBONE|DICT|INTERRES
   215  109  110 1    
   216  109  230 1    
   217  110  111 1    
   218  110  112 1    
   219  110  231 1    
   220  111  232 1    
   221  111  233 1    
   222  111  234 1    
   223  112  113 2    
   224  112  114 am   BACKBONE|DICT|INTERRES
   225  114  115 1    
   226  114  235 1    
   227  115  116 1    
   228  115  117 1    
   229  115  236 1    
   230  116  237 1    
   231  116  238 1    
   232  116  239 1    
   233  117  118 2    
   234  117  119 am   BACKBONE|DICT|INTERRES
   235  119  120 1    
   236  119  240 1    
   237  120  121 1    
   238  120  124 1    
   239  120  241 1    
   240  121  122 am   BACKBONE|DICT|INTERRES
   241  121  123 2    
   242  122  242 1    
   243  122  243 1    
   244  124  125 1    
   245  124  244 1    
   246  124  245 1    
   247  125  126 1    
   248  126  246 1    
   249  126  247 1    
@<TRIPOS>SUBSTRUCTURE
     1 UNK         1 GROUP             0       ****    0 ROOT    
