@<TRIPOS>MOLECULE
3R540
247   249    1
SMALL
USER_CHARGES


@<TRIPOS>ATOM
      1 CA         -3.2354  -21.1485  -43.0041 C.3       0 UNK        -0.1800 
      2 C          -3.4848  -19.7994  -43.6616 C.2       0 UNK         0.5000 
      3 O          -4.5521  -19.2132  -43.4818 O.2       0 UNK        -0.5000 
      4 N          -2.5056  -19.2997  -44.4260 N.am      1 UNK        -0.5000 
      5 CA         -2.5288  -17.9836  -45.0721 C.3       1 UNK         0.1400 
      6 C6         -1.6234  -17.9482  -46.3282 C.3       23 UNK        -0.0398 
      7 S7         -2.3736  -18.9139  -47.6830 S.3       23 UNK        -0.2404 
      8 C8         -2.1157  -17.8447  -49.1389 C.3       23 UNK        -0.0205 
      9 C9         -0.8757  -18.2373  -49.9284 C.ar      23 UNK        -0.0193 
     10 C10        -0.9715  -18.5379  -51.2906 C.ar      23 UNK        -0.1150 
     11 C11         0.1656  -18.8931  -52.0222 C.ar      23 UNK        -0.0193 
     12 C12         1.4035  -18.9725  -51.3752 C.ar      23 UNK        -0.1150 
     13 C13         1.5141  -18.6688  -50.0146 C.ar      23 UNK        -0.0193 
     14 C14         0.3731  -18.2823  -49.3065 C.ar      23 UNK        -0.1150 
     15 C15         2.8695  -18.7042  -49.3206 C.3       23 UNK        -0.0205 
     16 S16         2.8234  -19.5828  -47.7251 S.3       23 UNK        -0.2404 
     17 C17         3.0405  -21.3199  -48.2384 C.3       23 UNK        -0.0398 
     18 CA          3.1003  -22.3347  -47.0623 C.3       11 UNK         0.1400 
     19 N           3.8634  -21.8697  -45.9036 N.am      11 UNK        -0.5000 
     20 C           5.1721  -22.0568  -45.7190 C.2       10 UNK         0.5000 
     21 O           5.8992  -22.6452  -46.5207 O.2       10 UNK        -0.5000 
     22 CA          5.7838  -21.4861  -44.4263 C.3       10 UNK         0.1400 
     23 CB          6.5427  -20.1853  -44.7343 C.3       10 UNK        -0.1800 
     24 N           4.8126  -21.2268  -43.3574 N.am      10 UNK        -0.5000 
     25 C           4.2051  -22.1702  -42.6239 C.2       9 UNK         0.5000 
     26 O           4.3208  -23.3761  -42.8432 O.2       9 UNK        -0.5000 
     27 CA          3.3400  -21.7039  -41.4390 C.3       9 UNK         0.1400 
     28 CB          4.2214  -21.4293  -40.2103 C.3       9 UNK        -0.1800 
     29 N           2.5668  -20.4989  -41.7451 N.am      9 UNK        -0.5000 
     30 C           1.2343  -20.3931  -41.6270 C.2       8 UNK         0.5000 
     31 O           0.5073  -21.3119  -41.2496 O.2       8 UNK        -0.5000 
     32 CA          0.5783  -19.0405  -41.9825 C.3       8 UNK         0.1400 
     33 CB          0.1857  -18.2826  -40.7063 C.3       8 UNK        -0.1800 
     34 N           1.4047  -18.1648  -42.8094 N.am      8 UNK        -0.5000 
     35 C           1.8305  -18.4416  -44.0472 C.2       7 UNK         0.5000 
     36 O           1.5173  -19.4614  -44.6634 O.2       7 UNK        -0.5000 
     37 CA          2.8261  -17.4457  -44.6702 C.3       7 UNK         0.1400 
     38 CB          2.0908  -16.4213  -45.5457 C.3       7 UNK        -0.1800 
     39 N           3.6604  -16.7424  -43.6876 N.am      7 UNK        -0.5000 
     40 C           4.5154  -17.3321  -42.8380 C.2       6 UNK         0.5000 
     41 O           4.6413  -18.5509  -42.7331 O.2       6 UNK        -0.5000 
     42 CA          5.3295  -16.4071  -41.9194 C.3       6 UNK         0.1400 
     43 CB          6.3841  -15.6240  -42.7165 C.3       6 UNK        -0.1800 
     44 N           4.4635  -15.4773  -41.1999 N.am      6 UNK        -0.5000 
     45 C           3.6222  -15.8332  -40.2185 C.2       5 UNK         0.5000 
     46 O           3.5632  -16.9665  -39.7420 O.2       5 UNK        -0.5000 
     47 CA          2.6652  -14.7420  -39.7021 C.3       5 UNK         0.1400 
     48 CB          3.2745  -14.0171  -38.4926 C.3       5 UNK        -0.1800 
     49 N           2.3037  -13.7554  -40.7255 N.am      5 UNK        -0.5000 
     50 C           1.6012  -14.0360  -41.8303 C.2       4 UNK         0.5000 
     51 O           1.2018  -15.1663  -42.1191 O.2       4 UNK        -0.5000 
     52 CA          1.3331  -12.8680  -42.7860 C.3       4 UNK         0.1400 
     53 CB          2.4254  -12.7669  -43.8633 C.3       4 UNK        -0.1800 
     54 N           0.0347  -13.0801  -43.4108 N.am      4 UNK        -0.5000 
     55 C          -0.8395  -12.1140  -43.7182 C.2       3 UNK         0.5000 
     56 O          -0.5815  -10.9116  -43.6463 O.2       3 UNK        -0.5000 
     57 CA         -2.2532  -12.5559  -44.1527 C.3       3 UNK         0.1400 
     58 CB         -2.3614  -12.5772  -45.6852 C.3       3 UNK        -0.1800 
     59 N          -2.6376  -13.8707  -43.6356 N.am      3 UNK        -0.5000 
     60 C          -2.7686  -14.2003  -42.3434 C.2       2 UNK         0.5000 
     61 O          -2.6948  -13.3782  -41.4290 O.2       2 UNK        -0.5000 
     62 CA         -3.0023  -15.6897  -42.0000 C.3       2 UNK         0.1400 
     63 CB         -4.2548  -15.8652  -41.1253 C.3       2 UNK        -0.1800 
     64 N          -3.1088  -16.6068  -43.1413 N.am      2 UNK        -0.5000 
     65 C          -2.1588  -16.9030  -44.0375 C.2       1 UNK         0.5000 
     66 O          -1.0506  -16.3714  -44.0610 O.2       1 UNK        -0.5000 
     67 C           1.7263  -22.8384  -46.5959 C.2       11 UNK         0.5000 
     68 O           1.3542  -23.9568  -46.9532 O.2       11 UNK        -0.5000 
     69 N           1.0357  -22.0511  -45.7525 N.am      12 UNK        -0.5000 
     70 CA         -0.1729  -22.4176  -45.0016 C.3       12 UNK         0.1400 
     71 CB          0.1878  -23.4261  -43.8920 C.3       12 UNK        -0.1800 
     72 C          -1.3432  -22.9071  -45.8843 C.2       12 UNK         0.5000 
     73 O          -2.0878  -23.8041  -45.4872 O.2       12 UNK        -0.5000 
     74 N          -1.4708  -22.3198  -47.0804 N.am      13 UNK        -0.5000 
     75 CA         -2.3399  -22.8039  -48.1546 C.3       13 UNK         0.1400 
     76 CB         -1.7996  -22.2725  -49.4901 C.3       13 UNK        -0.1800 
     77 C          -3.8374  -22.4727  -47.9846 C.2       13 UNK         0.5000 
     78 O          -4.6373  -22.9197  -48.8070 O.2       13 UNK        -0.5000 
     79 N          -4.1943  -21.6935  -46.9511 N.am      14 UNK        -0.5000 
     80 CA         -5.5547  -21.2804  -46.5772 C.3       14 UNK         0.1400 
     81 CB         -6.3530  -22.4848  -46.0383 C.3       14 UNK        -0.1800 
     82 C          -6.2752  -20.5353  -47.7198 C.2       14 UNK         0.5000 
     83 O          -7.3510  -20.9448  -48.1580 O.2       14 UNK        -0.5000 
     84 N          -5.6101  -19.4824  -48.2156 N.am      15 UNK        -0.5000 
     85 CA         -5.9511  -18.6419  -49.3725 C.3       15 UNK         0.1400 
     86 CB         -7.3807  -18.0705  -49.2813 C.3       15 UNK        -0.1800 
     87 C          -5.6890  -19.3124  -50.7367 C.2       15 UNK         0.5000 
     88 O          -5.8407  -18.6482  -51.7639 O.2       15 UNK        -0.5000 
     89 N          -5.2899  -20.5950  -50.7408 N.am      16 UNK        -0.5000 
     90 CA         -4.9162  -21.4044  -51.9063 C.3       16 UNK         0.1400 
     91 CB         -3.5824  -20.8957  -52.4891 C.3       16 UNK        -0.1800 
     92 C          -6.0270  -21.4978  -52.9729 C.2       16 UNK         0.5000 
     93 O          -5.7254  -21.5331  -54.1655 O.2       16 UNK        -0.5000 
     94 N          -7.2938  -21.4920  -52.5295 N.am      17 UNK        -0.5000 
     95 CA         -8.5040  -21.4245  -53.3590 C.3       17 UNK         0.1400 
     96 CB         -8.6973  -22.7381  -54.1465 C.3       17 UNK        -0.1800 
     97 C          -8.5265  -20.1655  -54.2566 C.2       17 UNK         0.5000 
     98 O          -8.8310  -20.2557  -55.4462 O.2       17 UNK        -0.5000 
     99 N          -8.1594  -19.0204  -53.6606 N.am      18 UNK        -0.5000 
    100 CA        -7.9436  -17.7137  -54.2915 C.3       18 UNK         0.1400 
    101 CB        -9.2432  -17.1631  -54.9165 C.3       18 UNK        -0.1800 
    102 C         -6.7510  -17.7472  -55.2691 C.2       18 UNK         0.5000 
    103 O         -6.8732  -17.3238  -56.4196 O.2       18 UNK        -0.5000 
    104 N         -5.6216  -18.2799  -54.7779 N.am      19 UNK        -0.5000 
    105 CA        -4.3304  -18.4540  -55.4607 C.3       19 UNK         0.1400 
    106 CB        -3.7405  -17.0934  -55.8849 C.3       19 UNK        -0.1800 
    107 C         -4.3260  -19.4746  -56.6204 C.2       19 UNK         0.5000 
    108 O         -3.3012  -19.6114  -57.2897 O.2       19 UNK        -0.5000 
    109 N         -5.4345  -20.1961  -56.8326 N.am      20 UNK        -0.5000 
    110 CA        -5.5873  -21.2031  -57.8822 C.3       20 UNK         0.1400 
    111 CB        -7.0701  -21.5762  -58.0189 C.3       20 UNK        -0.1800 
    112 C         -4.7334  -22.4598  -57.6383 C.2       20 UNK         0.5000 
    113 O         -4.1553  -22.9927  -58.5868 O.2       20 UNK        -0.5000 
    114 N         -4.6341  -22.8942  -56.3735 N.am      21 UNK        -0.5000 
    115 CA        -3.8573  -24.0667  -55.9570 C.3       21 UNK         0.1400 
    116 CB        -4.2404  -24.4543  -54.5205 C.3       21 UNK        -0.1800 
    117 C         -2.3348  -23.8612  -56.0801 C.2       21 UNK         0.5000 
    118 O         -1.5987  -24.8431  -56.1855 O.2       21 UNK        -0.5000 
    119 N         -1.8974  -22.5962  -56.0938 N.am      22 UNK        -0.5000 
    120 CA        -0.5163  -22.1856  -56.3854 C.3       22 UNK         0.1400 
    121 C         -0.1750  -22.1661  -57.9070 C.2       22 UNK         0.5000 
    122 N         -1.1121  -22.4086  -58.8177 N.am      22 UNK        -0.7600 
    123 O          0.9755  -21.9402  -58.2724 O.2       22 UNK        -0.5000 
    124 C124       -0.1700  -20.8302  -55.7180 C.3       23 UNK        -0.0398 
    125 S125       -0.2612  -20.8915  -53.8969 S.3       23 UNK        -0.2404 
    126 C126        0.0644  -19.1448  -53.5189 C.3       23 UNK        -0.0205 
    127 H127       -3.7656  -21.2090  -42.0536 H         1 UNK         0.0600 
    128 H128       -2.1762  -21.3065  -42.8025 H         1 UNK         0.0600 
    129 H129       -3.5937  -21.9537  -43.6456 H         1 UNK         0.0600 
    130 H130       -1.6329  -19.7966  -44.5098 H         1 UNK         0.3000 
    131 H131       -3.5481  -17.7636  -45.3988 H         1 UNK         0.0600 
    132 H132       -1.4722  -16.9211  -46.6635 H         1 UNK         0.0800 
    133 H133       -0.6321  -18.3468  -46.1080 H         1 UNK         0.0800 
    134 H134       -2.0514  -16.7952  -48.8510 H         1 UNK         0.0800 
    135 H135       -2.9940  -17.9278  -49.7780 H         1 UNK         0.0800 
    136 H136       -1.9287  -18.4804  -51.7885 H         1 UNK         0.1150 
    137 H137        2.2837  -19.2487  -51.9387 H         1 UNK         0.1150 
    138 H138        0.4573  -18.0272  -48.2610 H         1 UNK         0.1150 
    139 H139        3.6303  -19.1517  -49.9618 H         1 UNK         0.0800 
    140 H140        3.1855  -17.6763  -49.1387 H         1 UNK         0.0800 
    141 H141        3.9781  -21.3757  -48.7930 H         1 UNK         0.0800 
    142 H142        2.2585  -21.5860  -48.9522 H         1 UNK         0.0800 
    143 H143        3.5982  -23.2258  -47.4520 H         1 UNK         0.0600 
    144 H144        3.3429  -21.3872  -45.1857 H         1 UNK         0.3000 
    145 H145        6.5039  -22.2190  -44.0567 H         1 UNK         0.0600 
    146 H146        7.3163  -20.3506  -45.4852 H         1 UNK         0.0600 
    147 H147        5.8741  -19.4129  -45.1169 H         1 UNK         0.0600 
    148 H148        7.0340  -19.7933  -43.8435 H         1 UNK         0.0600 
    149 H149        4.7001  -20.2475  -43.0992 H         1 UNK         0.3000 
    150 H150        2.6729  -22.5328  -41.1938 H         1 UNK         0.0600 
    151 H151        4.8229  -22.3027  -39.9549 H         1 UNK         0.0600 
    152 H152        3.6137  -21.1864  -39.3384 H         1 UNK         0.0600 
    153 H153        4.9043  -20.5963  -40.3834 H         1 UNK         0.0600 
    154 H154        3.0927  -19.6920  -42.0617 H         1 UNK         0.3000 
    155 H155       -0.3318  -19.2571  -42.5429 H         1 UNK         0.0600 
    156 H156       -0.2931  -17.3335  -40.9436 H         1 UNK         0.0600 
    157 H157        1.0555  -18.0695  -40.0843 H         1 UNK         0.0600 
    158 H158       -0.5159  -18.8624  -40.1055 H         1 UNK         0.0600 
    159 H159        1.6433  -17.2611  -42.4171 H         1 UNK         0.3000 
    160 H160        3.4990  -18.0206  -45.3084 H         1 UNK         0.0600 
    161 H161        1.4192  -15.7981  -44.9548 H         1 UNK         0.0600 
    162 H162        1.4896  -16.9193  -46.3067 H         1 UNK         0.0600 
    163 H163        2.7918  -15.7677  -46.0647 H         1 UNK         0.0600 
    164 H164        3.5795  -15.7379  -43.6701 H         1 UNK         0.3000 
    165 H165        5.8507  -17.0316  -41.1904 H         1 UNK         0.0600 
    166 H166        7.0148  -15.0301  -42.0547 H         1 UNK         0.0600 
    167 H167        7.0391  -16.3019  -43.2656 H         1 UNK         0.0600 
    168 H168        5.9298  -14.9473  -43.4412 H         1 UNK         0.0600 
    169 H169        4.4526  -14.5193  -41.5158 H         1 UNK         0.3000 
    170 H170        1.7484  -15.2391  -39.3772 H         1 UNK         0.0600 
    171 H171        3.5327  -14.7243  -37.7032 H         1 UNK         0.0600 
    172 H172        4.1842  -13.4787  -38.7615 H         1 UNK         0.0600 
    173 H173        2.5721  -13.3001  -38.0671 H         1 UNK         0.0600 
    174 H174        2.6023  -12.8051  -40.5587 H         1 UNK         0.3000 
    175 H175        1.3156  -11.9454  -42.2017 H         1 UNK         0.0600 
    176 H176        2.2456  -11.9193  -44.5248 H         1 UNK         0.0600 
    177 H177        3.4088  -12.6245  -43.4139 H         1 UNK         0.0600 
    178 H178        2.4702  -13.6646  -44.4792 H         1 UNK         0.0600 
    179 H179       -0.2538  -14.0515  -43.4634 H         1 UNK         0.3000 
    180 H180       -2.9625  -11.8220  -43.7649 H         1 UNK         0.0600 
    181 H181       -1.6872  -13.3135  -46.1251 H         1 UNK         0.0600 
    182 H182       -2.1068  -11.6046  -46.1084 H         1 UNK         0.0600 
    183 H183       -3.3756  -12.8146  -46.0067 H         1 UNK         0.0600 
    184 H184       -2.6832  -14.6199  -44.3093 H         1 UNK         0.3000 
    185 H185       -2.1378  -16.0024  -41.4133 H         1 UNK         0.0600 
    186 H186       -4.1960  -15.2581  -40.2210 H         1 UNK         0.0600 
    187 H187       -5.1595  -15.5730  -41.6597 H         1 UNK         0.0600 
    188 H188       -4.3721  -16.9017  -40.8079 H         1 UNK         0.0600 
    189 H189       -3.9679  -17.1419  -43.1929 H         1 UNK         0.3000 
    190 H190        1.3817  -21.1142  -45.5549 H         1 UNK         0.3000 
    191 H191       -0.5102  -21.5022  -44.5174 H         1 UNK         0.0600 
    192 H192       -0.6469  -23.5695  -43.2050 H         1 UNK         0.0600 
    193 H193        0.4479  -24.4021  -44.3032 H         1 UNK         0.0600 
    194 H194        1.0360  -23.0793  -43.3024 H         1 UNK         0.0600 
    195 H195       -0.8282  -21.5802  -47.3253 H         1 UNK         0.3000 
    196 H196       -2.2639  -23.8930  -48.1815 H         1 UNK         0.0600 
    197 H197       -2.3410  -22.7136  -50.3272 H         1 UNK         0.0600 
    198 H198       -0.7475  -22.5259  -49.6222 H         1 UNK         0.0600 
    199 H199       -1.8934  -21.1890  -49.5624 H         1 UNK         0.0600 
    200 H200       -3.4485  -21.3468  -46.3671 H         1 UNK         0.3000 
    201 H201       -5.4561  -20.5633  -45.7623 H         1 UNK         0.0600 
    202 H202       -5.8346  -22.9570  -45.2037 H         1 UNK         0.0600 
    203 H203       -6.5125  -23.2433  -46.8054 H         1 UNK         0.0600 
    204 H204       -7.3336  -22.1729  -45.6772 H         1 UNK         0.0600 
    205 H205       -4.7058  -19.2806  -47.8076 H         1 UNK         0.3000 
    206 H206       -5.2716  -17.7911  -49.3230 H         1 UNK         0.0600 
    207 H207       -7.5616  -17.6101  -48.3102 H         1 UNK         0.0600 
    208 H208       -7.5389  -17.3013  -50.0383 H         1 UNK         0.0600 
    209 H209       -8.1408  -18.8355  -49.4397 H         1 UNK         0.0600 
    210 H210       -5.2347  -21.0795  -49.8532 H         1 UNK         0.3000 
    211 H211       -4.7576  -22.4222  -51.5484 H         1 UNK         0.0600 
    212 H212       -2.7796  -20.9532  -51.7585 H         1 UNK         0.0600 
    213 H213       -3.6548  -19.8558  -52.7945 H         1 UNK         0.0600 
    214 H214       -3.2663  -21.4755  -53.3561 H         1 UNK         0.0600 
    215 H215       -7.4399  -21.4578  -51.5301 H         1 UNK         0.3000 
    216 H216       -9.3468  -21.3245  -52.6736 H         1 UNK         0.0600 
    217 H217       -9.6410  -22.7315  -54.6929 H         1 UNK         0.0600 
    218 H218       -8.7172  -23.5976  -53.4767 H         1 UNK         0.0600 
    219 H219       -7.9008  -22.9007  -54.8726 H         1 UNK         0.0600 
    220 H220       -7.8527  -19.0753  -52.6982 H         1 UNK         0.3000 
    221 H221       -7.6574  -17.0330  -53.4882 H         1 UNK         0.0600 
    222 H222       -9.5678  -17.7512  -55.7751 H         1 UNK         0.0600 
    223 H223      -10.0557  -17.1522  -54.1903 H         1 UNK         0.0600 
    224 H224       -9.1023  -16.1382  -55.2613 H         1 UNK         0.0600 
    225 H225       -5.6447  -18.5913  -53.8116 H         1 UNK         0.3000 
    226 H226       -3.6490  -18.8662  -54.7202 H         1 UNK         0.0600 
    227 H227       -3.7187  -16.3950  -55.0483 H         1 UNK         0.0600 
    228 H228       -2.7145  -17.2045  -56.2377 H         1 UNK         0.0600 
    229 H229       -4.3125  -16.6353  -56.6919 H         1 UNK         0.0600 
    230 H230       -6.2157  -20.0706  -56.2036 H         1 UNK         0.3000 
    231 H231       -5.2623  -20.7578  -58.8249 H         1 UNK         0.0600 
    232 H232       -7.4551  -22.0316  -57.1063 H         1 UNK         0.0600 
    233 H233       -7.2208  -22.2888  -58.8308 H         1 UNK         0.0600 
    234 H234       -7.6797  -20.6990  -58.2368 H         1 UNK         0.0600 
    235 H235       -5.1094  -22.3757  -55.6353 H         1 UNK         0.3000 
    236 H236       -4.1293  -24.8961  -56.6130 H         1 UNK         0.0600 
    237 H237       -5.3174  -24.5906  -54.4199 H         1 UNK         0.0600 
    238 H238       -3.7645  -25.3922  -54.2318 H         1 UNK         0.0600 
    239 H239       -3.9279  -23.6979  -53.8020 H         1 UNK         0.0600 
    240 H240       -2.5773  -21.8535  -56.0266 H         1 UNK         0.3000 
    241 H241        0.1514  -22.9330  -55.9526 H         1 UNK         0.0600 
    242 H242       -0.8621  -22.3952  -59.7938 H         1 UNK         0.3800 
    243 H243       -2.0699  -22.6022  -58.5534 H         1 UNK         0.3800 
    244 H244        0.8428  -20.5207  -55.9822 H         1 UNK         0.0800 
    245 H245       -0.8359  -20.0465  -56.0832 H         1 UNK         0.0800 
    246 H246       -0.7292  -18.5304  -53.9475 H         1 UNK         0.0800 
    247 H247        0.9897  -18.8350  -54.0072 H         1 UNK         0.0800 
@<TRIPOS>BOND
     1    1    2 1    
     2    1  127 1    
     3    1  128 1    
     4    1  129 1    
     5    2    3 2    
     6    2    4 am   BACKBONE|DICT|INTERRES
     7    4    5 1    
     8    4  130 1    
     9    5    6 1    
    10    5   65 1    
    11    5  131 1    
    12    6    7 1    
    13    6  132 1    
    14    6  133 1    
    15    7    8 1    
    16    8    9 1    
    17    8  134 1    
    18    8  135 1    
    19    9   10 ar   
    20    9   14 ar   
    21   10   11 ar   
    22   10  136 1    
    23   11   12 ar   
    24   11  126 1    
    25   12   13 ar   
    26   12  137 1    
    27   13   14 ar   
    28   13   15 1    
    29   14  138 1    
    30   15   16 1    
    31   15  139 1    
    32   15  140 1    
    33   16   17 1    
    34   17   18 1    
    35   17  141 1    
    36   17  142 1    
    37   18   19 1    
    38   18   67 1    
    39   18  143 1    
    40   19   20 am   BACKBONE|DICT|INTERRES
    41   19  144 1    
    42   20   21 2    
    43   20   22 1    
    44   22   23 1    
    45   22   24 1    
    46   22  145 1    
    47   23  146 1    
    48   23  147 1    
    49   23  148 1    
    50   24   25 am   BACKBONE|DICT|INTERRES
    51   24  149 1    
    52   25   26 2    
    53   25   27 1    
    54   27   28 1    
    55   27   29 1    
    56   27  150 1    
    57   28  151 1    
    58   28  152 1    
    59   28  153 1    
    60   29   30 am   BACKBONE|DICT|INTERRES
    61   29  154 1    
    62   30   31 2    
    63   30   32 1    
    64   32   33 1    
    65   32   34 1    
    66   32  155 1    
    67   33  156 1    
    68   33  157 1    
    69   33  158 1    
    70   34   35 am   BACKBONE|DICT|INTERRES
    71   34  159 1    
    72   35   36 2    
    73   35   37 1    
    74   37   38 1    
    75   37   39 1    
    76   37  160 1    
    77   38  161 1    
    78   38  162 1    
    79   38  163 1    
    80   39   40 am   BACKBONE|DICT|INTERRES
    81   39  164 1    
    82   40   41 2    
    83   40   42 1    
    84   42   43 1    
    85   42   44 1    
    86   42  165 1    
    87   43  166 1    
    88   43  167 1    
    89   43  168 1    
    90   44   45 am   BACKBONE|DICT|INTERRES
    91   44  169 1    
    92   45   46 2    
    93   45   47 1    
    94   47   48 1    
    95   47   49 1    
    96   47  170 1    
    97   48  171 1    
    98   48  172 1    
    99   48  173 1    
   100   49   50 am   BACKBONE|DICT|INTERRES
   101   49  174 1    
   102   50   51 2    
   103   50   52 1    
   104   52   53 1    
   105   52   54 1    
   106   52  175 1    
   107   53  176 1    
   108   53  177 1    
   109   53  178 1    
   110   54   55 am   BACKBONE|DICT|INTERRES
   111   54  179 1    
   112   55   56 2    
   113   55   57 1    
   114   57   58 1    
   115   57   59 1    
   116   57  180 1    
   117   58  181 1    
   118   58  182 1    
   119   58  183 1    
   120   59   60 am   BACKBONE|DICT|INTERRES
   121   59  184 1    
   122   60   61 2    
   123   60   62 1    
   124   62   63 1    
   125   62   64 1    
   126   62  185 1    
   127   63  186 1    
   128   63  187 1    
   129   63  188 1    
   130   64   65 am   BACKBONE|DICT|INTERRES
   131   64  189 1    
   132   65   66 2    
   133   67   68 2    
   134   67   69 am   BACKBONE|DICT|INTERRES
   135   69   70 1    
   136   69  190 1    
   137   70   71 1    
   138   70   72 1    
   139   70  191 1    
   140   71  192 1    
   141   71  193 1    
   142   71  194 1    
   143   72   73 2    
   144   72   74 am   BACKBONE|DICT|INTERRES
   145   74   75 1    
   146   74  195 1    
   147   75   76 1    
   148   75   77 1    
   149   75  196 1    
   150   76  197 1    
   151   76  198 1    
   152   76  199 1    
   153   77   78 2    
   154   77   79 am   BACKBONE|DICT|INTERRES
   155   79   80 1    
   156   79  200 1    
   157   80   81 1    
   158   80   82 1    
   159   80  201 1    
   160   81  202 1    
   161   81  203 1    
   162   81  204 1    
   163   82   83 2    
   164   82   84 am   BACKBONE|DICT|INTERRES
   165   84   85 1    
   166   84  205 1    
   167   85   86 1    
   168   85   87 1    
   169   85  206 1    
   170   86  207 1    
   171   86  208 1    
   172   86  209 1    
   173   87   88 2    
   174   87   89 am   BACKBONE|DICT|INTERRES
   175   89   90 1    
   176   89  210 1    
   177   90   91 1    
   178   90   92 1    
   179   90  211 1    
   180   91  212 1    
   181   91  213 1    
   182   91  214 1    
   183   92   93 2    
   184   92   94 am   BACKBONE|DICT|INTERRES
   185   94   95 1    
   186   94  215 1    
   187   95   96 1    
   188   95   97 1    
   189   95  216 1    
   190   96  217 1    
   191   96  218 1    
   192   96  219 1    
   193   97   98 2    
   194   97   99 am   BACKBONE|DICT|INTERRES
   195   99  100 1    
   196   99  220 1    
   197  100  101 1    
   198  100  102 1    
   199  100  221 1    
   200  101  222 1    
   201  101  223 1    
   202  101  224 1    
   203  102  103 2    
   204  102  104 am   BACKBONE|DICT|INTERRES
   205  104  105 1    
   206  104  225 1    
   207  105  106 1    
   208  105  107 1    
   209  105  226 1    
   210  106  227 1    
   211  106  228 1    
   212  106  229 1    
   213  107  108 2    
   214  107  109 am   BACKBONE|DICT|INTERRES
   215  109  110 1    
   216  109  230 1    
   217  110  111 1    
   218  110  112 1    
   219  110  231 1    
   220  111  232 1    
   221  111  233 1    
   222  111  234 1    
   223  112  113 2    
   224  112  114 am   BACKBONE|DICT|INTERRES
   225  114  115 1    
   226  114  235 1    
   227  115  116 1    
   228  115  117 1    
   229  115  236 1    
   230  116  237 1    
   231  116  238 1    
   232  116  239 1    
   233  117  118 2    
   234  117  119 am   BACKBONE|DICT|INTERRES
   235  119  120 1    
   236  119  240 1    
   237  120  121 1    
   238  120  124 1    
   239  120  241 1    
   240  121  122 am   BACKBONE|DICT|INTERRES
   241  121  123 2    
   242  122  242 1    
   243  122  243 1    
   244  124  125 1    
   245  124  244 1    
   246  124  245 1    
   247  125  126 1    
   248  126  246 1    
   249  126  247 1    
@<TRIPOS>SUBSTRUCTURE
     1 UNK         1 GROUP             0       ****    0 ROOT    
