@<TRIPOS>MOLECULE
3R540
247   249    1
SMALL
USER_CHARGES


@<TRIPOS>ATOM
      1 CA          0.9931  -15.8436  -51.9483 C.3       0 UNK        -0.1800 
      2 C           2.0019  -15.0731  -51.1145 C.2       0 UNK         0.5000 
      3 O           2.2062  -13.8809  -51.3442 O.2       0 UNK        -0.5000 
      4 N           2.6346  -15.7492  -50.1473 N.am      1 UNK        -0.5000 
      5 CA          3.6512  -15.1724  -49.2546 C.3       1 UNK         0.1400 
      6 C6          4.5067  -16.2526  -48.5499 C.3       23 UNK        -0.0398 
      7 S7          5.3338  -17.3722  -49.7336 S.3       23 UNK        -0.2404 
      8 C8          4.6028  -18.9865  -49.3170 C.3       23 UNK        -0.0205 
      9 C9          3.1454  -19.0945  -49.7418 C.ar      23 UNK        -0.0193 
     10 C10         2.8167  -19.4737  -51.0482 C.ar      23 UNK        -0.1150 
     11 C11         1.4791  -19.6295  -51.4249 C.ar      23 UNK        -0.0193 
     12 C12         0.4739  -19.3921  -50.4872 C.ar      23 UNK        -0.1150 
     13 C13         0.7850  -18.9941  -49.1862 C.ar      23 UNK        -0.0193 
     14 C14         2.1242  -18.8508  -48.8184 C.ar      23 UNK        -0.1150 
     15 C15        -0.3313  -18.7302  -48.1885 C.3       23 UNK        -0.0205 
     16 S16        -1.2142  -20.2583  -47.7387 S.3       23 UNK        -0.2404 
     17 C17        -0.1401  -21.0138  -46.4740 C.3       23 UNK        -0.0398 
     18 CA          1.0314  -21.8645  -47.0385 C.3       11 UNK         0.1400 
     19 N           2.1551  -21.9295  -46.0941 N.am      11 UNK        -0.5000 
     20 C           2.1262  -22.4979  -44.8788 C.2       10 UNK         0.5000 
     21 O           1.1669  -23.1381  -44.4486 O.2       10 UNK        -0.5000 
     22 CA          3.3615  -22.2879  -43.9806 C.3       10 UNK         0.1400 
     23 CB          4.6599  -22.0250  -44.7689 C.3       10 UNK        -0.1800 
     24 N           3.1194  -21.1632  -43.0803 N.am      10 UNK        -0.5000 
     25 C           2.3975  -21.2020  -41.9536 C.2       9 UNK         0.5000 
     26 O           1.9632  -22.2427  -41.4585 O.2       9 UNK        -0.5000 
     27 CA          2.0865  -19.8598  -41.2591 C.3       9 UNK         0.1400 
     28 CB          3.1384  -19.5215  -40.1859 C.3       9 UNK        -0.1800 
     29 N           1.8636  -18.7326  -42.1746 N.am      9 UNK        -0.5000 
     30 C           2.7370  -18.0795  -42.9538 C.2       8 UNK         0.5000 
     31 O           3.9301  -18.3685  -43.0421 O.2       8 UNK        -0.5000 
     32 CA          2.1711  -16.9386  -43.8195 C.3       8 UNK         0.1400 
     33 CB          1.7482  -17.4892  -45.1865 C.3       8 UNK        -0.1800 
     34 N           1.0332  -16.2585  -43.1980 N.am      8 UNK        -0.5000 
     35 C           1.1352  -15.4251  -42.1526 C.2       7 UNK         0.5000 
     36 O           2.2060  -15.0833  -41.6497 O.2       7 UNK        -0.5000 
     37 CA         -0.1831  -14.9094  -41.5495 C.3       7 UNK         0.1400 
     38 CB         -0.6968  -13.6754  -42.3078 C.3       7 UNK        -0.1800 
     39 N          -1.2161  -15.9457  -41.5356 N.am      7 UNK        -0.5000 
     40 C          -1.2496  -16.9643  -40.6635 C.2       6 UNK         0.5000 
     41 O          -0.4396  -17.1075  -39.7477 O.2       6 UNK        -0.5000 
     42 CA         -2.3670  -18.0089  -40.8498 C.3       6 UNK         0.1400 
     43 CB         -3.5941  -17.6390  -40.0030 C.3       6 UNK        -0.1800 
     44 N          -2.7805  -18.1689  -42.2446 N.am      6 UNK        -0.5000 
     45 C          -2.0204  -18.7061  -43.2088 C.2       5 UNK         0.5000 
     46 O          -0.8855  -19.1431  -43.0229 O.2       5 UNK        -0.5000 
     47 CA         -2.6088  -18.6936  -44.6310 C.3       5 UNK         0.1400 
     48 CB         -3.4795  -19.9354  -44.8768 C.3       5 UNK        -0.1800 
     49 N          -3.3902  -17.4880  -44.9165 N.am      5 UNK        -0.5000 
     50 C          -2.8778  -16.2521  -44.9526 C.2       4 UNK         0.5000 
     51 O          -1.6913  -15.9942  -44.7301 O.2       4 UNK        -0.5000 
     52 CA         -3.8657  -15.1132  -45.2243 C.3       4 UNK         0.1400 
     53 CB         -4.4238  -14.5565  -43.9047 C.3       4 UNK        -0.1800 
     54 N          -3.1679  -14.0531  -45.9394 N.am      4 UNK        -0.5000 
     55 C          -3.6568  -13.3588  -46.9732 C.2       3 UNK         0.5000 
     56 O          -4.7983  -13.5034  -47.4119 O.2       3 UNK        -0.5000 
     57 CA         -2.7273  -12.3196  -47.6341 C.3       3 UNK         0.1400 
     58 CB         -3.1883  -10.8942  -47.2906 C.3       3 UNK        -0.1800 
     59 N          -1.3153  -12.4557  -47.2648 N.am      3 UNK        -0.5000 
     60 C          -0.5046  -13.4320  -47.6889 C.2       2 UNK         0.5000 
     61 O          -0.8626  -14.3519  -48.4306 O.2       2 UNK        -0.5000 
     62 CA          0.9430  -13.3705  -47.1811 C.3       2 UNK         0.1400 
     63 CB          1.0292  -13.7272  -45.6872 C.3       2 UNK        -0.1800 
     64 N           1.7406  -14.2975  -47.9718 N.am      2 UNK        -0.5000 
     65 C           3.0506  -14.1934  -48.2206 C.2       1 UNK         0.5000 
     66 O           3.7800  -13.3561  -47.6873 O.2       1 UNK        -0.5000 
     67 C           0.6113  -23.2513  -47.5854 C.2       11 UNK         0.5000 
     68 O          -0.5556  -23.4727  -47.9074 O.2       11 UNK        -0.5000 
     69 N           1.5850  -24.1649  -47.7208 N.am      12 UNK        -0.5000 
     70 CA          1.3913  -25.5252  -48.2373 C.3       12 UNK         0.1400 
     71 CB          2.6878  -26.3243  -48.0395 C.3       12 UNK        -0.1800 
     72 C           0.9477  -25.5699  -49.7145 C.2       12 UNK         0.5000 
     73 O           0.2735  -26.5148  -50.1231 O.2       12 UNK        -0.5000 
     74 N           1.3058  -24.5308  -50.4791 N.am      13 UNK        -0.5000 
     75 CA          0.9273  -24.3367  -51.8796 C.3       13 UNK         0.1400 
     76 CB          1.9943  -23.4569  -52.5494 C.3       13 UNK        -0.1800 
     77 C          -0.4984  -23.7686  -52.0706 C.2       13 UNK         0.5000 
     78 O          -0.9199  -23.5802  -53.2140 O.2       13 UNK        -0.5000 
     79 N          -1.2218  -23.5103  -50.9731 N.am      14 UNK        -0.5000 
     80 CA         -2.6237  -23.0938  -50.9646 C.3       14 UNK         0.1400 
     81 CB         -2.7166  -21.5605  -51.0149 C.3       14 UNK        -0.1800 
     82 C          -3.3372  -23.7048  -49.7440 C.2       14 UNK         0.5000 
     83 O          -4.1594  -23.0404  -49.1077 O.2       14 UNK        -0.5000 
     84 N          -3.0056  -24.9726  -49.4453 N.am      15 UNK        -0.5000 
     85 CA         -3.3870  -25.7312  -48.2449 C.3       15 UNK         0.1400 
     86 CB         -2.6884  -27.0993  -48.2796 C.3       15 UNK        -0.1800 
     87 C          -4.9006  -25.9128  -48.0080 C.2       15 UNK         0.5000 
     88 O          -5.3000  -26.2546  -46.8946 O.2       15 UNK        -0.5000 
     89 N          -5.7195  -25.6443  -49.0327 N.am      16 UNK        -0.5000 
     90 CA         -7.1805  -25.5516  -48.9582 C.3       16 UNK         0.1400 
     91 CB         -7.7379  -25.6141  -50.3904 C.3       16 UNK        -0.1800 
     92 C          -7.6890  -24.2839  -48.2288 C.2       16 UNK         0.5000 
     93 O          -8.9025  -24.0972  -48.1343 O.2       16 UNK        -0.5000 
     94 N          -6.7637  -23.4323  -47.7579 N.am      17 UNK        -0.5000 
     95 CA         -6.9611  -22.1077  -47.1621 C.3       17 UNK         0.1400 
     96 CB         -7.8852  -22.1500  -45.9269 C.3       17 UNK        -0.1800 
     97 C          -7.3797  -21.0684  -48.2190 C.2       17 UNK         0.5000 
     98 O          -8.1372  -20.1433  -47.9225 O.2       17 UNK        -0.5000 
     99 N          -6.8527  -21.2384  -49.4398 N.am      18 UNK        -0.5000 
    100 CA        -7.0532  -20.3358  -50.5743 C.3       18 UNK         0.1400 
    101 CB        -6.8498  -21.1291  -51.8739 C.3       18 UNK        -0.1800 
    102 C         -6.1415  -19.0915  -50.5119 C.2       18 UNK         0.5000 
    103 O         -6.3865  -18.1272  -51.2387 O.2       18 UNK        -0.5000 
    104 N         -5.1298  -19.1264  -49.6294 N.am      19 UNK        -0.5000 
    105 CA        -4.1891  -18.0542  -49.3023 C.3       19 UNK         0.1400 
    106 CB        -4.8967  -16.9510  -48.4880 C.3       19 UNK        -0.1800 
    107 C         -3.4413  -17.5387  -50.5467 C.2       19 UNK         0.5000 
    108 O         -2.6421  -18.2819  -51.1093 O.2       19 UNK        -0.5000 
    109 N         -3.7130  -16.2956  -50.9648 N.am      20 UNK        -0.5000 
    110 CA        -3.0824  -15.6443  -52.1143 C.3       20 UNK         0.1400 
    111 CB        -3.5044  -14.1677  -52.1420 C.3       20 UNK        -0.1800 
    112 C         -3.3678  -16.3228  -53.4711 C.2       20 UNK         0.5000 
    113 O         -2.5859  -16.1459  -54.4068 O.2       20 UNK        -0.5000 
    114 N         -4.4604  -17.0937  -53.5635 N.am      21 UNK        -0.5000 
    115 CA        -4.8039  -17.9108  -54.7253 C.3       21 UNK         0.1400 
    116 CB        -6.3323  -18.0739  -54.7910 C.3       21 UNK        -0.1800 
    117 C         -4.0524  -19.2564  -54.6723 C.2       21 UNK         0.5000 
    118 O         -4.6532  -20.2934  -54.3869 O.2       21 UNK        -0.5000 
    119 N         -2.7388  -19.1975  -54.9196 N.am      22 UNK        -0.5000 
    120 CA        -1.8137  -20.3408  -54.9656 C.3       22 UNK         0.1400 
    121 C         -2.1904  -21.4089  -56.0297 C.2       22 UNK         0.5000 
    122 N         -1.9818  -22.6851  -55.7338 N.am      22 UNK        -0.7600 
    123 O         -2.6207  -21.0888  -57.1360 O.2       22 UNK        -0.5000 
    124 C124       -0.3523  -19.8710  -55.1766 C.3       23 UNK        -0.0398 
    125 S125        0.2522  -18.8419  -53.7973 S.3       23 UNK        -0.2404 
    126 C126        1.1063  -20.1116  -52.8182 C.3       23 UNK        -0.0205 
    127 H127        1.5028  -16.3528  -52.7654 H         1 UNK         0.0600 
    128 H128        0.4655  -16.5864  -51.3495 H         1 UNK         0.0600 
    129 H129        0.2556  -15.1663  -52.3779 H         1 UNK         0.0600 
    130 H130        2.4565  -16.7381  -50.0327 H         1 UNK         0.3000 
    131 H131        4.3279  -14.5818  -49.8763 H         1 UNK         0.0600 
    132 H132        3.9057  -16.8249  -47.8435 H         1 UNK         0.0800 
    133 H133        5.2901  -15.7796  -47.9549 H         1 UNK         0.0800 
    134 H134        5.1814  -19.7679  -49.8119 H         1 UNK         0.0800 
    135 H135        4.7071  -19.1699  -48.2464 H         1 UNK         0.0800 
    136 H136        3.6040  -19.6689  -51.7628 H         1 UNK         0.1150 
    137 H137       -0.5575  -19.5292  -50.7721 H         1 UNK         0.1150 
    138 H138        2.3715  -18.5681  -47.8078 H         1 UNK         0.1150 
    139 H139        0.0405  -18.2338  -47.2941 H         1 UNK         0.0800 
    140 H140       -1.0383  -18.0348  -48.6411 H         1 UNK         0.0800 
    141 H141       -0.7619  -21.6167  -45.8105 H         1 UNK         0.0800 
    142 H142        0.2482  -20.2097  -45.8501 H         1 UNK         0.0800 
    143 H143        1.4330  -21.3446  -47.9061 H         1 UNK         0.0600 
    144 H144        2.9931  -21.4382  -46.3699 H         1 UNK         0.3000 
    145 H145        3.5016  -23.1988  -43.3949 H         1 UNK         0.0600 
    146 H146        5.5190  -22.0013  -44.0980 H         1 UNK         0.0600 
    147 H147        4.8457  -22.8149  -45.4979 H         1 UNK         0.0600 
    148 H148        4.6373  -21.0730  -45.3008 H         1 UNK         0.0600 
    149 H149        3.4697  -20.2563  -43.3693 H         1 UNK         0.3000 
    150 H150        1.1335  -19.9962  -40.7452 H         1 UNK         0.0600 
    151 H151        3.1959  -20.3130  -39.4378 H         1 UNK         0.0600 
    152 H152        2.8847  -18.5985  -39.6642 H         1 UNK         0.0600 
    153 H153        4.1354  -19.4056  -40.6112 H         1 UNK         0.0600 
    154 H154        0.8852  -18.4922  -42.2935 H         1 UNK         0.3000 
    155 H155        2.9718  -16.2127  -43.9760 H         1 UNK         0.0600 
    156 H156        1.5336  -16.6894  -45.8937 H         1 UNK         0.0600 
    157 H157        0.8583  -18.1110  -45.0979 H         1 UNK         0.0600 
    158 H158        2.5408  -18.1006  -45.6178 H         1 UNK         0.0600 
    159 H159        0.1154  -16.4457  -43.5837 H         1 UNK         0.3000 
    160 H160        0.0196  -14.6065  -40.5198 H         1 UNK         0.0600 
    161 H161       -0.9500  -13.9074  -43.3412 H         1 UNK         0.0600 
    162 H162        0.0572  -12.8875  -42.3249 H         1 UNK         0.0600 
    163 H163       -1.5857  -13.2631  -41.8305 H         1 UNK         0.0600 
    164 H164       -1.8924  -15.9233  -42.2841 H         1 UNK         0.3000 
    165 H165       -1.9837  -18.9688  -40.4968 H         1 UNK         0.0600 
    166 H166       -4.0354  -16.6944  -40.3238 H         1 UNK         0.0600 
    167 H167       -4.3636  -18.4086  -40.0660 H         1 UNK         0.0600 
    168 H168       -3.3256  -17.5354  -38.9508 H         1 UNK         0.0600 
    169 H169       -3.7008  -17.8336  -42.4875 H         1 UNK         0.3000 
    170 H170       -1.7689  -18.7141  -45.3262 H         1 UNK         0.0600 
    171 H171       -2.9166  -20.8504  -44.6881 H         1 UNK         0.0600 
    172 H172       -4.3566  -19.9500  -44.2288 H         1 UNK         0.0600 
    173 H173       -3.8241  -19.9767  -45.9104 H         1 UNK         0.0600 
    174 H174       -4.3766  -17.6205  -45.0858 H         1 UNK         0.3000 
    175 H175       -4.6887  -15.5026  -45.8265 H         1 UNK         0.0600 
    176 H176       -5.1366  -13.7526  -44.0896 H         1 UNK         0.0600 
    177 H177       -4.9466  -15.3297  -43.3404 H         1 UNK         0.0600 
    178 H178       -3.6332  -14.1596  -43.2670 H         1 UNK         0.0600 
    179 H179       -2.1982  -13.9330  -45.6814 H         1 UNK         0.3000 
    180 H180       -2.8118  -12.4537  -48.7148 H         1 UNK         0.0600 
    181 H181       -3.1180  -10.6959  -46.2204 H         1 UNK         0.0600 
    182 H182       -4.2265  -10.7358  -47.5859 H         1 UNK         0.0600 
    183 H183       -2.5880  -10.1482  -47.8119 H         1 UNK         0.0600 
    184 H184       -0.9450  -11.7421  -46.6534 H         1 UNK         0.3000 
    185 H185        1.3167  -12.3564  -47.3379 H         1 UNK         0.0600 
    186 H186        2.0621  -13.8271  -45.3537 H         1 UNK         0.0600 
    187 H187        0.5672  -12.9528  -45.0750 H         1 UNK         0.0600 
    188 H188        0.5147  -14.6624  -45.4722 H         1 UNK         0.0600 
    189 H189        1.1890  -14.9653  -48.4967 H         1 UNK         0.3000 
    190 H190        2.5200  -23.9176  -47.4319 H         1 UNK         0.3000 
    191 H191        0.6051  -25.9976  -47.6449 H         1 UNK         0.0600 
    192 H192        2.9668  -26.3700  -46.9866 H         1 UNK         0.0600 
    193 H193        2.5705  -27.3515  -48.3877 H         1 UNK         0.0600 
    194 H194        3.5203  -25.8841  -48.5899 H         1 UNK         0.0600 
    195 H195        1.8567  -23.7985  -50.0566 H         1 UNK         0.3000 
    196 H196        0.9375  -25.3057  -52.3831 H         1 UNK         0.0600 
    197 H197        1.7127  -23.1833  -53.5671 H         1 UNK         0.0600 
    198 H198        2.9467  -23.9836  -52.6112 H         1 UNK         0.0600 
    199 H199        2.1654  -22.5395  -51.9877 H         1 UNK         0.0600 
    200 H200       -0.8128  -23.6609  -50.0571 H         1 UNK         0.3000 
    201 H201       -3.1258  -23.4953  -51.8471 H         1 UNK         0.0600 
    202 H202       -2.1199  -21.1461  -51.8238 H         1 UNK         0.0600 
    203 H203       -2.3653  -21.1100  -50.0914 H         1 UNK         0.0600 
    204 H204       -3.7414  -21.2285  -51.1662 H         1 UNK         0.0600 
    205 H205       -2.3357  -25.4298  -50.0475 H         1 UNK         0.3000 
    206 H206       -3.0027  -25.1775  -47.3859 H         1 UNK         0.0600 
    207 H207       -1.6053  -26.9885  -48.2684 H         1 UNK         0.0600 
    208 H208       -2.9546  -27.7023  -47.4104 H         1 UNK         0.0600 
    209 H209       -2.9609  -27.6672  -49.1699 H         1 UNK         0.0600 
    210 H210       -5.2968  -25.3712  -49.9073 H         1 UNK         0.3000 
    211 H211       -7.5544  -26.4156  -48.4053 H         1 UNK         0.0600 
    212 H212       -7.4098  -24.7615  -50.9865 H         1 UNK         0.0600 
    213 H213       -8.8287  -25.6130  -50.3892 H         1 UNK         0.0600 
    214 H214       -7.4186  -26.5238  -50.8993 H         1 UNK         0.0600 
    215 H215       -5.7953  -23.6600  -47.9525 H         1 UNK         0.3000 
    216 H216       -5.9759  -21.7939  -46.8134 H         1 UNK         0.0600 
    217 H217       -7.5689  -22.9201  -45.2235 H         1 UNK         0.0600 
    218 H218       -8.9229  -22.3453  -46.1976 H         1 UNK         0.0600 
    219 H219       -7.8645  -21.1977  -45.3959 H         1 UNK         0.0600 
    220 H220       -6.2172  -22.0130  -49.5795 H         1 UNK         0.3000 
    221 H221       -8.0851  -19.9787  -50.5600 H         1 UNK         0.0600 
    222 H222       -5.8356  -21.5147  -51.9659 H         1 UNK         0.0600 
    223 H223       -7.5337  -21.9764  -51.9274 H         1 UNK         0.0600 
    224 H224       -7.0428  -20.5072  -52.7472 H         1 UNK         0.0600 
    225 H225       -4.9914  -19.9899  -49.1256 H         1 UNK         0.3000 
    226 H226       -3.4338  -18.4987  -48.6548 H         1 UNK         0.0600 
    227 H227       -5.3189  -17.3586  -47.5696 H         1 UNK         0.0600 
    228 H228       -4.1928  -16.1697  -48.2001 H         1 UNK         0.0600 
    229 H229       -5.7106  -16.4821  -49.0420 H         1 UNK         0.0600 
    230 H230       -4.4078  -15.7604  -50.4654 H         1 UNK         0.3000 
    231 H231       -2.0039  -15.6864  -51.9575 H         1 UNK         0.0600 
    232 H232       -3.0265  -13.6400  -52.9685 H         1 UNK         0.0600 
    233 H233       -3.2152  -13.6577  -51.2227 H         1 UNK         0.0600 
    234 H234       -4.5830  -14.0605  -52.2632 H         1 UNK         0.0600 
    235 H235       -5.0250  -17.2366  -52.7338 H         1 UNK         0.3000 
    236 H236       -4.4956  -17.3974  -55.6386 H         1 UNK         0.0600 
    237 H237       -6.6226  -18.7062  -55.6309 H         1 UNK         0.0600 
    238 H238       -6.7318  -18.5255  -53.8845 H         1 UNK         0.0600 
    239 H239       -6.8233  -17.1100  -54.9246 H         1 UNK         0.0600 
    240 H240       -2.3264  -18.2871  -55.0780 H         1 UNK         0.3000 
    241 H241       -1.8734  -20.8281  -53.9935 H         1 UNK         0.0600 
    242 H242       -1.6137  -22.9732  -54.8284 H         1 UNK         0.3800 
    243 H243       -2.2045  -23.3894  -56.4189 H         1 UNK         0.3800 
    244 H244        0.3176  -20.7248  -55.2962 H         1 UNK         0.0800 
    245 H245       -0.2686  -19.2939  -56.0990 H         1 UNK         0.0800 
    246 H246        0.4479  -20.9748  -52.7195 H         1 UNK         0.0800 
    247 H247        1.9902  -20.4472  -53.3625 H         1 UNK         0.0800 
@<TRIPOS>BOND
     1    1    2 1    
     2    1  127 1    
     3    1  128 1    
     4    1  129 1    
     5    2    3 2    
     6    2    4 am   BACKBONE|DICT|INTERRES
     7    4    5 1    
     8    4  130 1    
     9    5    6 1    
    10    5   65 1    
    11    5  131 1    
    12    6    7 1    
    13    6  132 1    
    14    6  133 1    
    15    7    8 1    
    16    8    9 1    
    17    8  134 1    
    18    8  135 1    
    19    9   10 ar   
    20    9   14 ar   
    21   10   11 ar   
    22   10  136 1    
    23   11   12 ar   
    24   11  126 1    
    25   12   13 ar   
    26   12  137 1    
    27   13   14 ar   
    28   13   15 1    
    29   14  138 1    
    30   15   16 1    
    31   15  139 1    
    32   15  140 1    
    33   16   17 1    
    34   17   18 1    
    35   17  141 1    
    36   17  142 1    
    37   18   19 1    
    38   18   67 1    
    39   18  143 1    
    40   19   20 am   BACKBONE|DICT|INTERRES
    41   19  144 1    
    42   20   21 2    
    43   20   22 1    
    44   22   23 1    
    45   22   24 1    
    46   22  145 1    
    47   23  146 1    
    48   23  147 1    
    49   23  148 1    
    50   24   25 am   BACKBONE|DICT|INTERRES
    51   24  149 1    
    52   25   26 2    
    53   25   27 1    
    54   27   28 1    
    55   27   29 1    
    56   27  150 1    
    57   28  151 1    
    58   28  152 1    
    59   28  153 1    
    60   29   30 am   BACKBONE|DICT|INTERRES
    61   29  154 1    
    62   30   31 2    
    63   30   32 1    
    64   32   33 1    
    65   32   34 1    
    66   32  155 1    
    67   33  156 1    
    68   33  157 1    
    69   33  158 1    
    70   34   35 am   BACKBONE|DICT|INTERRES
    71   34  159 1    
    72   35   36 2    
    73   35   37 1    
    74   37   38 1    
    75   37   39 1    
    76   37  160 1    
    77   38  161 1    
    78   38  162 1    
    79   38  163 1    
    80   39   40 am   BACKBONE|DICT|INTERRES
    81   39  164 1    
    82   40   41 2    
    83   40   42 1    
    84   42   43 1    
    85   42   44 1    
    86   42  165 1    
    87   43  166 1    
    88   43  167 1    
    89   43  168 1    
    90   44   45 am   BACKBONE|DICT|INTERRES
    91   44  169 1    
    92   45   46 2    
    93   45   47 1    
    94   47   48 1    
    95   47   49 1    
    96   47  170 1    
    97   48  171 1    
    98   48  172 1    
    99   48  173 1    
   100   49   50 am   BACKBONE|DICT|INTERRES
   101   49  174 1    
   102   50   51 2    
   103   50   52 1    
   104   52   53 1    
   105   52   54 1    
   106   52  175 1    
   107   53  176 1    
   108   53  177 1    
   109   53  178 1    
   110   54   55 am   BACKBONE|DICT|INTERRES
   111   54  179 1    
   112   55   56 2    
   113   55   57 1    
   114   57   58 1    
   115   57   59 1    
   116   57  180 1    
   117   58  181 1    
   118   58  182 1    
   119   58  183 1    
   120   59   60 am   BACKBONE|DICT|INTERRES
   121   59  184 1    
   122   60   61 2    
   123   60   62 1    
   124   62   63 1    
   125   62   64 1    
   126   62  185 1    
   127   63  186 1    
   128   63  187 1    
   129   63  188 1    
   130   64   65 am   BACKBONE|DICT|INTERRES
   131   64  189 1    
   132   65   66 2    
   133   67   68 2    
   134   67   69 am   BACKBONE|DICT|INTERRES
   135   69   70 1    
   136   69  190 1    
   137   70   71 1    
   138   70   72 1    
   139   70  191 1    
   140   71  192 1    
   141   71  193 1    
   142   71  194 1    
   143   72   73 2    
   144   72   74 am   BACKBONE|DICT|INTERRES
   145   74   75 1    
   146   74  195 1    
   147   75   76 1    
   148   75   77 1    
   149   75  196 1    
   150   76  197 1    
   151   76  198 1    
   152   76  199 1    
   153   77   78 2    
   154   77   79 am   BACKBONE|DICT|INTERRES
   155   79   80 1    
   156   79  200 1    
   157   80   81 1    
   158   80   82 1    
   159   80  201 1    
   160   81  202 1    
   161   81  203 1    
   162   81  204 1    
   163   82   83 2    
   164   82   84 am   BACKBONE|DICT|INTERRES
   165   84   85 1    
   166   84  205 1    
   167   85   86 1    
   168   85   87 1    
   169   85  206 1    
   170   86  207 1    
   171   86  208 1    
   172   86  209 1    
   173   87   88 2    
   174   87   89 am   BACKBONE|DICT|INTERRES
   175   89   90 1    
   176   89  210 1    
   177   90   91 1    
   178   90   92 1    
   179   90  211 1    
   180   91  212 1    
   181   91  213 1    
   182   91  214 1    
   183   92   93 2    
   184   92   94 am   BACKBONE|DICT|INTERRES
   185   94   95 1    
   186   94  215 1    
   187   95   96 1    
   188   95   97 1    
   189   95  216 1    
   190   96  217 1    
   191   96  218 1    
   192   96  219 1    
   193   97   98 2    
   194   97   99 am   BACKBONE|DICT|INTERRES
   195   99  100 1    
   196   99  220 1    
   197  100  101 1    
   198  100  102 1    
   199  100  221 1    
   200  101  222 1    
   201  101  223 1    
   202  101  224 1    
   203  102  103 2    
   204  102  104 am   BACKBONE|DICT|INTERRES
   205  104  105 1    
   206  104  225 1    
   207  105  106 1    
   208  105  107 1    
   209  105  226 1    
   210  106  227 1    
   211  106  228 1    
   212  106  229 1    
   213  107  108 2    
   214  107  109 am   BACKBONE|DICT|INTERRES
   215  109  110 1    
   216  109  230 1    
   217  110  111 1    
   218  110  112 1    
   219  110  231 1    
   220  111  232 1    
   221  111  233 1    
   222  111  234 1    
   223  112  113 2    
   224  112  114 am   BACKBONE|DICT|INTERRES
   225  114  115 1    
   226  114  235 1    
   227  115  116 1    
   228  115  117 1    
   229  115  236 1    
   230  116  237 1    
   231  116  238 1    
   232  116  239 1    
   233  117  118 2    
   234  117  119 am   BACKBONE|DICT|INTERRES
   235  119  120 1    
   236  119  240 1    
   237  120  121 1    
   238  120  124 1    
   239  120  241 1    
   240  121  122 am   BACKBONE|DICT|INTERRES
   241  121  123 2    
   242  122  242 1    
   243  122  243 1    
   244  124  125 1    
   245  124  244 1    
   246  124  245 1    
   247  125  126 1    
   248  126  246 1    
   249  126  247 1    
@<TRIPOS>SUBSTRUCTURE
     1 UNK         1 GROUP             0       ****    0 ROOT    
