@<TRIPOS>MOLECULE
3R540
247   249    1
SMALL
USER_CHARGES


@<TRIPOS>ATOM
      1 CA          0.4724  -13.4129  -49.3133 C.3       0 UNK        -0.1800 
      2 C           1.7561  -13.5559  -48.5095 C.2       0 UNK         0.5000 
      3 O           1.7735  -14.2293  -47.4778 O.2       0 UNK        -0.5000 
      4 N           2.8231  -12.9108  -48.9941 N.am      1 UNK        -0.5000 
      5 CA          4.2029  -12.8747  -48.4854 C.3       1 UNK         0.1400 
      6 C6          4.9152  -14.2499  -48.3812 C.3       23 UNK        -0.0398 
      7 S7          4.7240  -15.3339  -49.8405 S.3       23 UNK        -0.2404 
      8 C8          3.7747  -16.6774  -49.0645 C.3       23 UNK        -0.0205 
      9 C9          3.4094  -17.8045  -50.0127 C.ar      23 UNK        -0.0193 
     10 C10         2.6345  -17.5610  -51.1489 C.ar      23 UNK        -0.1150 
     11 C11         2.2096  -18.6172  -51.9615 C.ar      23 UNK        -0.0193 
     12 C12         2.5776  -19.9267  -51.6290 C.ar      23 UNK        -0.1150 
     13 C13         3.3713  -20.1792  -50.5052 C.ar      23 UNK        -0.0193 
     14 C14         3.7858  -19.1126  -49.7058 C.ar      23 UNK        -0.1150 
     15 C15         3.8016  -21.5958  -50.1517 C.3       23 UNK        -0.0205 
     16 S16         3.1746  -22.1194  -48.5230 S.3       23 UNK        -0.2404 
     17 C17         1.4152  -22.3886  -48.9010 C.3       23 UNK        -0.0398 
     18 CA          0.7068  -23.1764  -47.7747 C.3       11 UNK         0.1400 
     19 N           0.5115  -22.3866  -46.5528 N.am      11 UNK        -0.5000 
     20 C           0.0924  -22.8977  -45.3854 C.2       10 UNK         0.5000 
     21 O          -0.0974  -24.0999  -45.1981 O.2       10 UNK        -0.5000 
     22 CA         -0.2334  -21.8999  -44.2573 C.3       10 UNK         0.1400 
     23 CB          1.0363  -21.4684  -43.5090 C.3       10 UNK        -0.1800 
     24 N          -0.9553  -20.7233  -44.7454 N.am      10 UNK        -0.5000 
     25 C          -2.1870  -20.7654  -45.2746 C.2       9 UNK         0.5000 
     26 O          -2.8664  -21.7891  -45.3302 O.2       9 UNK        -0.5000 
     27 CA         -2.7354  -19.4687  -45.8966 C.3       9 UNK         0.1400 
     28 CB         -3.4204  -18.5953  -44.8364 C.3       9 UNK        -0.1800 
     29 N          -1.7062  -18.6962  -46.5917 N.am      9 UNK        -0.5000 
     30 C          -1.0354  -19.1218  -47.6718 C.2       8 UNK         0.5000 
     31 O          -1.2711  -20.1866  -48.2410 O.2       8 UNK        -0.5000 
     32 CA          0.1274  -18.2429  -48.1641 C.3       8 UNK         0.1400 
     33 CB         -0.3793  -17.1298  -49.0809 C.3       8 UNK        -0.1800 
     34 N           0.8833  -17.6561  -47.0589 N.am      8 UNK        -0.5000 
     35 C           1.6671  -18.3648  -46.2359 C.2       7 UNK         0.5000 
     36 O           1.8676  -19.5724  -46.3607 O.2       7 UNK        -0.5000 
     37 CA          2.2801  -17.6086  -45.0429 C.3       7 UNK         0.1400 
     38 CB          3.5818  -16.9002  -45.4327 C.3       7 UNK        -0.1800 
     39 N           1.3550  -16.6275  -44.4781 N.am      7 UNK        -0.5000 
     40 C           0.2652  -16.9556  -43.7741 C.2       6 UNK         0.5000 
     41 O          -0.0602  -18.1154  -43.5200 O.2       6 UNK        -0.5000 
     42 CA         -0.6224  -15.7938  -43.3007 C.3       6 UNK         0.1400 
     43 CB         -0.0933  -15.2093  -41.9836 C.3       6 UNK        -0.1800 
     44 N          -0.7550  -14.7221  -44.2887 N.am      6 UNK        -0.5000 
     45 C          -1.3725  -14.8474  -45.4712 C.2       5 UNK         0.5000 
     46 O          -1.7798  -15.9234  -45.9088 O.2       5 UNK        -0.5000 
     47 CA         -1.5781  -13.5508  -46.2820 C.3       5 UNK         0.1400 
     48 CB         -2.6171  -13.7026  -47.4138 C.3       5 UNK        -0.1800 
     49 N          -1.8936  -12.3920  -45.4406 N.am      5 UNK        -0.5000 
     50 C          -2.9381  -12.2368  -44.6136 C.2       4 UNK         0.5000 
     51 O          -3.8410  -13.0649  -44.4827 O.2       4 UNK        -0.5000 
     52 CA         -2.9395  -10.9469  -43.7636 C.3       4 UNK         0.1400 
     53 CB         -4.0987  -10.8995  -42.7516 C.3       4 UNK        -0.1800 
     54 N          -1.6771  -10.7927  -43.0370 N.am      4 UNK        -0.5000 
     55 C          -0.5400  -10.3059  -43.5487 C.2       3 UNK         0.5000 
     56 O          -0.4592   -9.8527  -44.6930 O.2       3 UNK        -0.5000 
     57 CA          0.7204  -10.3572  -42.6566 C.3       3 UNK         0.1400 
     58 CB          0.5978  -11.3192  -41.4545 C.3       3 UNK        -0.1800 
     59 N           1.9368  -10.6641  -43.4174 N.am      3 UNK        -0.5000 
     60 C           2.1611  -11.7218  -44.2113 C.2       2 UNK         0.5000 
     61 O           1.3472  -12.6255  -44.4257 O.2       2 UNK        -0.5000 
     62 CA          3.5629  -11.7936  -44.8296 C.3       2 UNK         0.1400 
     63 CB          4.4966  -12.6440  -43.9506 C.3       2 UNK        -0.1800 
     64 N           3.5018  -12.3662  -46.1703 N.am      2 UNK        -0.5000 
     65 C           4.3618  -12.0972  -47.1599 C.2       1 UNK         0.5000 
     66 O           5.2754  -11.2768  -47.0577 O.2       1 UNK        -0.5000 
     67 C          -0.6151  -23.7868  -48.2806 C.2       11 UNK         0.5000 
     68 O          -0.6302  -24.9632  -48.6385 O.2       11 UNK        -0.5000 
     69 N          -1.7055  -23.0074  -48.2673 N.am      12 UNK        -0.5000 
     70 CA         -3.0461  -23.4684  -48.6316 C.3       12 UNK         0.1400 
     71 CB         -4.0090  -22.2763  -48.7105 C.3       12 UNK        -0.1800 
     72 C          -3.5852  -24.5578  -47.6868 C.2       12 UNK         0.5000 
     73 O          -4.1883  -25.5211  -48.1583 O.2       12 UNK        -0.5000 
     74 N          -3.3248  -24.4182  -46.3801 N.am      13 UNK        -0.5000 
     75 CA         -3.6366  -25.4238  -45.3646 C.3       13 UNK         0.1400 
     76 CB         -3.3954  -24.8447  -43.9626 C.3       13 UNK        -0.1800 
     77 C          -2.8433  -26.7266  -45.5734 C.2       13 UNK         0.5000 
     78 O          -3.4366  -27.8051  -45.5440 O.2       13 UNK        -0.5000 
     79 N          -1.5338  -26.6046  -45.8381 N.am      14 UNK        -0.5000 
     80 CA         -0.6372  -27.7220  -46.1527 C.3       14 UNK         0.1400 
     81 CB          0.8119  -27.2158  -46.2076 C.3       14 UNK        -0.1800 
     82 C          -1.0101  -28.4550  -47.4575 C.2       14 UNK         0.5000 
     83 O          -0.8677  -29.6757  -47.5320 O.2       14 UNK        -0.5000 
     84 N          -1.5188  -27.7049  -48.4438 N.am      15 UNK        -0.5000 
     85 CA         -2.0459  -28.2075  -49.7144 C.3       15 UNK         0.1400 
     86 CB         -2.0983  -27.0463  -50.7217 C.3       15 UNK        -0.1800 
     87 C          -3.4303  -28.8822  -49.5980 C.2       15 UNK         0.5000 
     88 O          -3.9021  -29.4333  -50.5932 O.2       15 UNK        -0.5000 
     89 N          -4.0524  -28.8289  -48.4093 N.am      16 UNK        -0.5000 
     90 CA         -5.3928  -29.3236  -48.0809 C.3       16 UNK         0.1400 
     91 CB         -5.4856  -30.8558  -48.2450 C.3       16 UNK        -0.1800 
     92 C          -6.4914  -28.5487  -48.8370 C.2       16 UNK         0.5000 
     93 O          -7.3602  -29.1553  -49.4663 O.2       16 UNK        -0.5000 
     94 N          -6.4095  -27.2154  -48.7287 N.am      17 UNK        -0.5000 
     95 CA         -7.2073  -26.1658  -49.3637 C.3       17 UNK         0.1400 
     96 CB         -8.7240  -26.4404  -49.3388 C.3       17 UNK        -0.1800 
     97 C          -6.6903  -25.8494  -50.7762 C.2       17 UNK         0.5000 
     98 O          -6.5618  -26.7428  -51.6154 O.2       17 UNK        -0.5000 
     99 N          -6.4200  -24.5630  -51.0076 N.am      18 UNK        -0.5000 
    100 CA        -5.9538  -23.9684  -52.2543 C.3       18 UNK         0.1400 
    101 CB        -4.4652  -24.2972  -52.4854 C.3       18 UNK        -0.1800 
    102 C         -6.1891  -22.4516  -52.1589 C.2       18 UNK         0.5000 
    103 O         -6.6280  -21.9631  -51.1124 O.2       18 UNK        -0.5000 
    104 N         -5.8970  -21.7269  -53.2444 N.am      19 UNK        -0.5000 
    105 CA        -5.9845  -20.2693  -53.3075 C.3       19 UNK         0.1400 
    106 CB        -5.9268  -19.8218  -54.7779 C.3       19 UNK        -0.1800 
    107 C         -4.8694  -19.6099  -52.4727 C.2       19 UNK         0.5000 
    108 O         -3.7172  -19.5837  -52.9065 O.2       19 UNK        -0.5000 
    109 N         -5.2348  -19.0912  -51.2936 N.am      20 UNK        -0.5000 
    110 CA        -4.3411  -18.3637  -50.3861 C.3       20 UNK         0.1400 
    111 CB        -4.9211  -18.4217  -48.9642 C.3       20 UNK        -0.1800 
    112 C         -4.1063  -16.8992  -50.8115 C.2       20 UNK         0.5000 
    113 O         -3.2464  -16.2330  -50.2369 O.2       20 UNK        -0.5000 
    114 N         -4.8609  -16.4099  -51.8055 N.am      21 UNK        -0.5000 
    115 CA        -4.7779  -15.0605  -52.3711 C.3       21 UNK         0.1400 
    116 CB        -6.1124  -14.7421  -53.0700 C.3       21 UNK        -0.1800 
    117 C         -3.5571  -14.8763  -53.3028 C.2       21 UNK         0.5000 
    118 O         -3.7057  -14.4425  -54.4472 O.2       21 UNK        -0.5000 
    119 N         -2.3717  -15.2305  -52.7994 N.am      22 UNK        -0.5000 
    120 CA        -1.0719  -15.0760  -53.4634 C.3       22 UNK         0.1400 
    121 C         -0.6487  -13.5860  -53.5932 C.2       22 UNK         0.5000 
    122 N          0.0459  -13.2251  -54.6635 N.am      22 UNK        -0.7600 
    123 O         -0.9055  -12.7639  -52.7164 O.2       22 UNK        -0.5000 
    124 C124        0.0226  -15.8896  -52.7304 C.3       23 UNK        -0.0398 
    125 S125       -0.2823  -17.6910  -52.8106 S.3       23 UNK        -0.2404 
    126 C126        1.3724  -18.3479  -53.2069 C.3       23 UNK        -0.0205 
    127 H127       -0.1744  -14.2749  -49.1660 H         1 UNK         0.0600 
    128 H128        0.6819  -13.3316  -50.3800 H         1 UNK         0.0600 
    129 H129       -0.0712  -12.5212  -49.0023 H         1 UNK         0.0600 
    130 H130        2.6915  -12.3658  -49.8344 H         1 UNK         0.3000 
    131 H131        4.7480  -12.3007  -49.2367 H         1 UNK         0.0600 
    132 H132        4.5782  -14.7787  -47.4911 H         1 UNK         0.0800 
    133 H133        5.9856  -14.0958  -48.2338 H         1 UNK         0.0800 
    134 H134        4.3576  -17.0674  -48.2304 H         1 UNK         0.0800 
    135 H135        2.8540  -16.2791  -48.6427 H         1 UNK         0.0800 
    136 H136        2.3514  -16.5465  -51.3851 H         1 UNK         0.1150 
    137 H137        2.2557  -20.7495  -52.2518 H         1 UNK         0.1150 
    138 H138        4.3809  -19.3110  -48.8253 H         1 UNK         0.1150 
    139 H139        3.4833  -22.3074  -50.9150 H         1 UNK         0.0800 
    140 H140        4.8916  -21.6348  -50.1347 H         1 UNK         0.0800 
    141 H141        1.3616  -22.9348  -49.8449 H         1 UNK         0.0800 
    142 H142        0.9336  -21.4257  -49.0743 H         1 UNK         0.0800 
    143 H143        1.3468  -24.0207  -47.5086 H         1 UNK         0.0600 
    144 H144        0.6953  -21.3920  -46.6170 H         1 UNK         0.3000 
    145 H145       -0.8822  -22.4112  -43.5431 H         1 UNK         0.0600 
    146 H146        0.7989  -20.7932  -42.6867 H         1 UNK         0.0600 
    147 H147        1.5479  -22.3326  -43.0839 H         1 UNK         0.0600 
    148 H148        1.7435  -20.9613  -44.1640 H         1 UNK         0.0600 
    149 H149       -0.4819  -19.8297  -44.6760 H         1 UNK         0.3000 
    150 H150       -3.4885  -19.7513  -46.6332 H         1 UNK         0.0600 
    151 H151       -4.2141  -19.1464  -44.3308 H         1 UNK         0.0600 
    152 H152       -3.8736  -17.7121  -45.2871 H         1 UNK         0.0600 
    153 H153       -2.7174  -18.2592  -44.0748 H         1 UNK         0.0600 
    154 H154       -1.5148  -17.7656  -46.2290 H         1 UNK         0.3000 
    155 H155        0.8028  -18.8755  -48.7445 H         1 UNK         0.0600 
    156 H156       -1.0553  -16.4550  -48.5570 H         1 UNK         0.0600 
    157 H157        0.4478  -16.5453  -49.4800 H         1 UNK         0.0600 
    158 H158       -0.9224  -17.5492  -49.9272 H         1 UNK         0.0600 
    159 H159        0.7490  -16.6710  -46.8800 H         1 UNK         0.3000 
    160 H160        2.5162  -18.3459  -44.2723 H         1 UNK         0.0600 
    161 H161        3.3901  -16.0978  -46.1422 H         1 UNK         0.0600 
    162 H162        4.2883  -17.5961  -45.8864 H         1 UNK         0.0600 
    163 H163        4.0689  -16.4638  -44.5607 H         1 UNK         0.0600 
    164 H164        1.5376  -15.6513  -44.6653 H         1 UNK         0.3000 
    165 H165       -1.6195  -16.1978  -43.1144 H         1 UNK         0.0600 
    166 H166       -0.7793  -14.4635  -41.5822 H         1 UNK         0.0600 
    167 H167        0.0170  -15.9871  -41.2268 H         1 UNK         0.0600 
    168 H168        0.8818  -14.7384  -42.1158 H         1 UNK         0.0600 
    169 H169       -0.3424  -13.8256  -44.0579 H         1 UNK         0.3000 
    170 H170       -0.6146  -13.3285  -46.7344 H         1 UNK         0.0600 
    171 H171       -3.6048  -13.9532  -47.0264 H         1 UNK         0.0600 
    172 H172       -2.7061  -12.7841  -47.9934 H         1 UNK         0.0600 
    173 H173       -2.3357  -14.4947  -48.1073 H         1 UNK         0.0600 
    174 H174       -1.1998  -11.6518  -45.4395 H         1 UNK         0.3000 
    175 H175       -3.0652  -10.1073  -44.4505 H         1 UNK         0.0600 
    176 H176       -4.0934   -9.9650  -42.1901 H         1 UNK         0.0600 
    177 H177       -4.0437  -11.7210  -42.0362 H         1 UNK         0.0600 
    178 H178       -5.0630  -10.9663  -43.2570 H         1 UNK         0.0600 
    179 H179       -1.6562  -11.1711  -42.1011 H         1 UNK         0.3000 
    180 H180        0.8512   -9.3485  -42.2625 H         1 UNK         0.0600 
    181 H181        0.3925  -12.3395  -41.7752 H         1 UNK         0.0600 
    182 H182       -0.1969  -11.0129  -40.7735 H         1 UNK         0.0600 
    183 H183        1.5202  -11.3370  -40.8737 H         1 UNK         0.0600 
    184 H184        2.6710   -9.9753  -43.3340 H         1 UNK         0.3000 
    185 H185        3.9586  -10.7775  -44.8906 H         1 UNK         0.0600 
    186 H186        4.5492  -12.2479  -42.9357 H         1 UNK         0.0600 
    187 H187        4.1513  -13.6767  -43.8837 H         1 UNK         0.0600 
    188 H188        5.5121  -12.6558  -44.3469 H         1 UNK         0.0600 
    189 H189        2.7444  -13.0248  -46.3402 H         1 UNK         0.3000 
    190 H190       -1.6051  -22.0247  -48.0244 H         1 UNK         0.3000 
    191 H191       -2.9766  -23.9113  -49.6253 H         1 UNK         0.0600 
    192 H192       -3.6741  -21.5449  -49.4466 H         1 UNK         0.0600 
    193 H193       -5.0069  -22.6011  -49.0046 H         1 UNK         0.0600 
    194 H194       -4.1026  -21.7703  -47.7507 H         1 UNK         0.0600 
    195 H195       -2.8915  -23.5578  -46.0559 H         1 UNK         0.3000 
    196 H196       -4.6983  -25.6644  -45.4504 H         1 UNK         0.0600 
    197 H197       -3.6505  -25.5721  -43.1911 H         1 UNK         0.0600 
    198 H198       -4.0090  -23.9600  -43.7920 H         1 UNK         0.0600 
    199 H199       -2.3538  -24.5608  -43.8143 H         1 UNK         0.0600 
    200 H200       -1.1137  -25.6798  -45.8104 H         1 UNK         0.3000 
    201 H201       -0.7127  -28.4445  -45.3376 H         1 UNK         0.0600 
    202 H202        1.1052  -26.7563  -45.2636 H         1 UNK         0.0600 
    203 H203        0.9505  -26.4763  -46.9963 H         1 UNK         0.0600 
    204 H204        1.5051  -28.0355  -46.4003 H         1 UNK         0.0600 
    205 H205       -1.5171  -26.6958  -48.3282 H         1 UNK         0.3000 
    206 H206       -1.3526  -28.9582  -50.0987 H         1 UNK         0.0600 
    207 H207       -1.1159  -26.5933  -50.8554 H         1 UNK         0.0600 
    208 H208       -2.4320  -27.3891  -51.7018 H         1 UNK         0.0600 
    209 H209       -2.7870  -26.2662  -50.3976 H         1 UNK         0.0600 
    210 H210       -3.5787  -28.3477  -47.6543 H         1 UNK         0.3000 
    211 H211       -5.5422  -29.1054  -47.0224 H         1 UNK         0.0600 
    212 H212       -5.4080  -31.1630  -49.2880 H         1 UNK         0.0600 
    213 H213       -6.4387  -31.2281  -47.8680 H         1 UNK         0.0600 
    214 H214       -4.6967  -31.3597  -47.6867 H         1 UNK         0.0600 
    215 H215       -5.5824  -26.8462  -48.2665 H         1 UNK         0.3000 
    216 H216       -7.0388  -25.2848  -48.7419 H         1 UNK         0.0600 
    217 H217       -9.2790  -25.5514  -49.6400 H         1 UNK         0.0600 
    218 H218       -9.0624  -26.7130  -48.3391 H         1 UNK         0.0600 
    219 H219       -9.0075  -27.2401  -50.0234 H         1 UNK         0.0600 
    220 H220       -6.6138  -23.8685  -50.2956 H         1 UNK         0.3000 
    221 H221       -6.5528  -24.3594  -53.0791 H         1 UNK         0.0600 
    222 H222       -3.8302  -23.8291  -51.7345 H         1 UNK         0.0600 
    223 H223       -4.2803  -25.3710  -52.4584 H         1 UNK         0.0600 
    224 H224       -4.1308  -23.9416  -53.4603 H         1 UNK         0.0600 
    225 H225       -5.5174  -22.1885  -54.0580 H         1 UNK         0.3000 
    226 H226       -6.9531  -19.9612  -52.9074 H         1 UNK         0.0600 
    227 H227       -6.7616  -20.2312  -55.3471 H         1 UNK         0.0600 
    228 H228       -5.9817  -18.7353  -54.8573 H         1 UNK         0.0600 
    229 H229       -5.0031  -20.1397  -55.2633 H         1 UNK         0.0600 
    230 H230       -6.1907  -19.2064  -50.9863 H         1 UNK         0.3000 
    231 H231       -3.3676  -18.8596  -50.3746 H         1 UNK         0.0600 
    232 H232       -5.8914  -17.9273  -48.9045 H         1 UNK         0.0600 
    233 H233       -4.2576  -17.9289  -48.2518 H         1 UNK         0.0600 
    234 H234       -5.0480  -19.4514  -48.6309 H         1 UNK         0.0600 
    235 H235       -5.5282  -17.0318  -52.2351 H         1 UNK         0.3000 
    236 H236       -4.6581  -14.3499  -51.5506 H         1 UNK         0.0600 
    237 H237       -6.9503  -14.8271  -52.3779 H         1 UNK         0.0600 
    238 H238       -6.1187  -13.7229  -53.4584 H         1 UNK         0.0600 
    239 H239       -6.2987  -15.4155  -53.9076 H         1 UNK         0.0600 
    240 H240       -2.3545  -15.5747  -51.8450 H         1 UNK         0.3000 
    241 H241       -1.1741  -15.4778  -54.4736 H         1 UNK         0.0600 
    242 H242        0.2731  -13.8803  -55.3958 H         1 UNK         0.3800 
    243 H243        0.3387  -12.2645  -54.7542 H         1 UNK         0.3800 
    244 H244        0.9998  -15.6760  -53.1660 H         1 UNK         0.0800 
    245 H245        0.0836  -15.5894  -51.6837 H         1 UNK         0.0800 
    246 H246        1.2376  -19.2709  -53.7726 H         1 UNK         0.0800 
    247 H247        1.9070  -17.6688  -53.8719 H         1 UNK         0.0800 
@<TRIPOS>BOND
     1    1    2 1    
     2    1  127 1    
     3    1  128 1    
     4    1  129 1    
     5    2    3 2    
     6    2    4 am   BACKBONE|DICT|INTERRES
     7    4    5 1    
     8    4  130 1    
     9    5    6 1    
    10    5   65 1    
    11    5  131 1    
    12    6    7 1    
    13    6  132 1    
    14    6  133 1    
    15    7    8 1    
    16    8    9 1    
    17    8  134 1    
    18    8  135 1    
    19    9   10 ar   
    20    9   14 ar   
    21   10   11 ar   
    22   10  136 1    
    23   11   12 ar   
    24   11  126 1    
    25   12   13 ar   
    26   12  137 1    
    27   13   14 ar   
    28   13   15 1    
    29   14  138 1    
    30   15   16 1    
    31   15  139 1    
    32   15  140 1    
    33   16   17 1    
    34   17   18 1    
    35   17  141 1    
    36   17  142 1    
    37   18   19 1    
    38   18   67 1    
    39   18  143 1    
    40   19   20 am   BACKBONE|DICT|INTERRES
    41   19  144 1    
    42   20   21 2    
    43   20   22 1    
    44   22   23 1    
    45   22   24 1    
    46   22  145 1    
    47   23  146 1    
    48   23  147 1    
    49   23  148 1    
    50   24   25 am   BACKBONE|DICT|INTERRES
    51   24  149 1    
    52   25   26 2    
    53   25   27 1    
    54   27   28 1    
    55   27   29 1    
    56   27  150 1    
    57   28  151 1    
    58   28  152 1    
    59   28  153 1    
    60   29   30 am   BACKBONE|DICT|INTERRES
    61   29  154 1    
    62   30   31 2    
    63   30   32 1    
    64   32   33 1    
    65   32   34 1    
    66   32  155 1    
    67   33  156 1    
    68   33  157 1    
    69   33  158 1    
    70   34   35 am   BACKBONE|DICT|INTERRES
    71   34  159 1    
    72   35   36 2    
    73   35   37 1    
    74   37   38 1    
    75   37   39 1    
    76   37  160 1    
    77   38  161 1    
    78   38  162 1    
    79   38  163 1    
    80   39   40 am   BACKBONE|DICT|INTERRES
    81   39  164 1    
    82   40   41 2    
    83   40   42 1    
    84   42   43 1    
    85   42   44 1    
    86   42  165 1    
    87   43  166 1    
    88   43  167 1    
    89   43  168 1    
    90   44   45 am   BACKBONE|DICT|INTERRES
    91   44  169 1    
    92   45   46 2    
    93   45   47 1    
    94   47   48 1    
    95   47   49 1    
    96   47  170 1    
    97   48  171 1    
    98   48  172 1    
    99   48  173 1    
   100   49   50 am   BACKBONE|DICT|INTERRES
   101   49  174 1    
   102   50   51 2    
   103   50   52 1    
   104   52   53 1    
   105   52   54 1    
   106   52  175 1    
   107   53  176 1    
   108   53  177 1    
   109   53  178 1    
   110   54   55 am   BACKBONE|DICT|INTERRES
   111   54  179 1    
   112   55   56 2    
   113   55   57 1    
   114   57   58 1    
   115   57   59 1    
   116   57  180 1    
   117   58  181 1    
   118   58  182 1    
   119   58  183 1    
   120   59   60 am   BACKBONE|DICT|INTERRES
   121   59  184 1    
   122   60   61 2    
   123   60   62 1    
   124   62   63 1    
   125   62   64 1    
   126   62  185 1    
   127   63  186 1    
   128   63  187 1    
   129   63  188 1    
   130   64   65 am   BACKBONE|DICT|INTERRES
   131   64  189 1    
   132   65   66 2    
   133   67   68 2    
   134   67   69 am   BACKBONE|DICT|INTERRES
   135   69   70 1    
   136   69  190 1    
   137   70   71 1    
   138   70   72 1    
   139   70  191 1    
   140   71  192 1    
   141   71  193 1    
   142   71  194 1    
   143   72   73 2    
   144   72   74 am   BACKBONE|DICT|INTERRES
   145   74   75 1    
   146   74  195 1    
   147   75   76 1    
   148   75   77 1    
   149   75  196 1    
   150   76  197 1    
   151   76  198 1    
   152   76  199 1    
   153   77   78 2    
   154   77   79 am   BACKBONE|DICT|INTERRES
   155   79   80 1    
   156   79  200 1    
   157   80   81 1    
   158   80   82 1    
   159   80  201 1    
   160   81  202 1    
   161   81  203 1    
   162   81  204 1    
   163   82   83 2    
   164   82   84 am   BACKBONE|DICT|INTERRES
   165   84   85 1    
   166   84  205 1    
   167   85   86 1    
   168   85   87 1    
   169   85  206 1    
   170   86  207 1    
   171   86  208 1    
   172   86  209 1    
   173   87   88 2    
   174   87   89 am   BACKBONE|DICT|INTERRES
   175   89   90 1    
   176   89  210 1    
   177   90   91 1    
   178   90   92 1    
   179   90  211 1    
   180   91  212 1    
   181   91  213 1    
   182   91  214 1    
   183   92   93 2    
   184   92   94 am   BACKBONE|DICT|INTERRES
   185   94   95 1    
   186   94  215 1    
   187   95   96 1    
   188   95   97 1    
   189   95  216 1    
   190   96  217 1    
   191   96  218 1    
   192   96  219 1    
   193   97   98 2    
   194   97   99 am   BACKBONE|DICT|INTERRES
   195   99  100 1    
   196   99  220 1    
   197  100  101 1    
   198  100  102 1    
   199  100  221 1    
   200  101  222 1    
   201  101  223 1    
   202  101  224 1    
   203  102  103 2    
   204  102  104 am   BACKBONE|DICT|INTERRES
   205  104  105 1    
   206  104  225 1    
   207  105  106 1    
   208  105  107 1    
   209  105  226 1    
   210  106  227 1    
   211  106  228 1    
   212  106  229 1    
   213  107  108 2    
   214  107  109 am   BACKBONE|DICT|INTERRES
   215  109  110 1    
   216  109  230 1    
   217  110  111 1    
   218  110  112 1    
   219  110  231 1    
   220  111  232 1    
   221  111  233 1    
   222  111  234 1    
   223  112  113 2    
   224  112  114 am   BACKBONE|DICT|INTERRES
   225  114  115 1    
   226  114  235 1    
   227  115  116 1    
   228  115  117 1    
   229  115  236 1    
   230  116  237 1    
   231  116  238 1    
   232  116  239 1    
   233  117  118 2    
   234  117  119 am   BACKBONE|DICT|INTERRES
   235  119  120 1    
   236  119  240 1    
   237  120  121 1    
   238  120  124 1    
   239  120  241 1    
   240  121  122 am   BACKBONE|DICT|INTERRES
   241  121  123 2    
   242  122  242 1    
   243  122  243 1    
   244  124  125 1    
   245  124  244 1    
   246  124  245 1    
   247  125  126 1    
   248  126  246 1    
   249  126  247 1    
@<TRIPOS>SUBSTRUCTURE
     1 UNK         1 GROUP             0       ****    0 ROOT    
