@<TRIPOS>MOLECULE
3R540
247   249    1
SMALL
USER_CHARGES


@<TRIPOS>ATOM
      1 CA          3.4328   -9.7949  -51.1951 C.3       0 UNK        -0.1800 
      2 C           4.1956  -10.3871  -50.0187 C.2       0 UNK         0.5000 
      3 O           5.3915  -10.1332  -49.8737 O.2       0 UNK        -0.5000 
      4 N           3.5093  -11.1744  -49.1802 N.am      1 UNK        -0.5000 
      5 CA          4.0742  -11.8377  -47.9967 C.3       1 UNK         0.1400 
      6 C6          3.1452  -12.9518  -47.4607 C.3       23 UNK        -0.0398 
      7 S7          2.8231  -14.2741  -48.6706 S.3       23 UNK        -0.2404 
      8 C8          1.8113  -15.3955  -47.6559 C.3       23 UNK        -0.0205 
      9 C9          1.3469  -16.5970  -48.4616 C.ar      23 UNK        -0.0193 
     10 C10         0.2008  -16.5015  -49.2554 C.ar      23 UNK        -0.1150 
     11 C11        -0.2374  -17.5947  -50.0067 C.ar      23 UNK        -0.0193 
     12 C12         0.4864  -18.7892  -49.9669 C.ar      23 UNK        -0.1150 
     13 C13         1.6288  -18.9016  -49.1677 C.ar      23 UNK        -0.0193 
     14 C14         2.0546  -17.8017  -48.4163 C.ar      23 UNK        -0.1150 
     15 C15         2.4088  -20.2078  -49.1261 C.3       23 UNK        -0.0205 
     16 S16         1.9123  -21.2566  -47.7237 S.3       23 UNK        -0.2404 
     17 C17         0.1860  -21.6357  -48.1681 C.3       23 UNK        -0.0398 
     18 CA         -0.3946  -22.8123  -47.3540 C.3       11 UNK         0.1400 
     19 N          -0.4947  -22.5094  -45.9186 N.am      11 UNK        -0.5000 
     20 C          -0.9364  -23.3420  -44.9622 C.2       10 UNK         0.5000 
     21 O          -1.3609  -24.4769  -45.1801 O.2       10 UNK        -0.5000 
     22 CA         -0.9684  -22.7928  -43.5289 C.3       10 UNK         0.1400 
     23 CB          0.4469  -22.6552  -42.9455 C.3       10 UNK        -0.1800 
     24 N          -1.6580  -21.5056  -43.4972 N.am      10 UNK        -0.5000 
     25 C          -2.9920  -21.3725  -43.4799 C.2       9 UNK         0.5000 
     26 O          -3.7698  -22.3206  -43.3719 O.2       9 UNK        -0.5000 
     27 CA         -3.5630  -19.9484  -43.6209 C.3       9 UNK         0.1400 
     28 CB         -3.8760  -19.3532  -42.2400 C.3       9 UNK        -0.1800 
     29 N          -2.6751  -19.0373  -44.3424 N.am      9 UNK        -0.5000 
     30 C          -2.3959  -19.1173  -45.6517 C.2       8 UNK         0.5000 
     31 O          -2.8663  -19.9714  -46.4015 O.2       8 UNK        -0.5000 
     32 CA         -1.3686  -18.1057  -46.1938 C.3       8 UNK         0.1400 
     33 CB         -2.0683  -16.7879  -46.5575 C.3       8 UNK        -0.1800 
     34 N          -0.2794  -17.8360  -45.2495 N.am      8 UNK        -0.5000 
     35 C           0.5452  -18.7724  -44.7526 C.2       7 UNK         0.5000 
     36 O           0.4632  -19.9650  -45.0398 O.2       7 UNK        -0.5000 
     37 CA          1.6023  -18.3346  -43.7231 C.3       7 UNK         0.1400 
     38 CB          2.9704  -18.1770  -44.4020 C.3       7 UNK        -0.1800 
     39 N           1.2536  -17.1021  -43.0140 N.am      7 UNK        -0.5000 
     40 C           0.2162  -16.9776  -42.1697 C.2       6 UNK         0.5000 
     41 O          -0.5317  -17.9111  -41.8763 O.2       6 UNK        -0.5000 
     42 CA         -0.0648  -15.5787  -41.5790 C.3       6 UNK         0.1400 
     43 CB          0.5142  -15.4709  -40.1605 C.3       6 UNK        -0.1800 
     44 N           0.4542  -14.4729  -42.3872 N.am      6 UNK        -0.5000 
     45 C           0.1055  -14.2096  -43.6542 C.2       5 UNK         0.5000 
     46 O          -0.7594  -14.8362  -44.2656 O.2       5 UNK        -0.5000 
     47 CA          0.8989  -13.1113  -44.3890 C.3       5 UNK         0.1400 
     48 CB          0.1133  -11.7932  -44.4005 C.3       5 UNK        -0.1800 
     49 N           2.2594  -12.8714  -43.8846 N.am      5 UNK        -0.5000 
     50 C           3.2230  -13.8002  -43.7628 C.2       4 UNK         0.5000 
     51 O           3.0445  -14.9843  -44.0454 O.2       4 UNK        -0.5000 
     52 CA          4.6093  -13.3597  -43.2504 C.3       4 UNK         0.1400 
     53 CB          5.7357  -13.9282  -44.1309 C.3       4 UNK        -0.1800 
     54 N           4.7561  -11.9057  -43.1650 N.am      4 UNK        -0.5000 
     55 C           4.4398  -11.1663  -42.0922 C.2       3 UNK         0.5000 
     56 O           3.9813  -11.6421  -41.0532 O.2       3 UNK        -0.5000 
     57 CA          4.6507   -9.6406  -42.1913 C.3       3 UNK         0.1400 
     58 CB          5.9588   -9.2345  -41.4954 C.3       3 UNK        -0.1800 
     59 N           4.6667   -9.1286  -43.5637 N.am      3 UNK        -0.5000 
     60 C           3.6206   -9.1385  -44.4000 C.2       2 UNK         0.5000 
     61 O           2.5117   -9.5735  -44.0890 O.2       2 UNK        -0.5000 
     62 CA          3.8481   -8.6184  -45.8355 C.3       2 UNK         0.1400 
     63 CB          5.1840   -7.8670  -46.0334 C.3       2 UNK        -0.1800 
     64 N           3.7194   -9.6949  -46.8235 N.am      2 UNK        -0.5000 
     65 C           4.4093  -10.8469  -46.8589 C.2       1 UNK         0.5000 
     66 O           5.2729  -11.1509  -46.0347 O.2       1 UNK        -0.5000 
     67 C          -1.7321  -23.2595  -47.9739 C.2       11 UNK         0.5000 
     68 O          -1.7244  -24.1136  -48.8625 O.2       11 UNK        -0.5000 
     69 N          -2.8504  -22.7225  -47.4645 N.am      12 UNK        -0.5000 
     70 CA         -4.2214  -23.1069  -47.8014 C.3       12 UNK         0.1400 
     71 CB         -5.1958  -22.3526  -46.8848 C.3       12 UNK        -0.1800 
     72 C          -4.4816  -24.6238  -47.7316 C.2       12 UNK         0.5000 
     73 O          -5.1845  -25.1483  -48.5957 O.2       12 UNK        -0.5000 
     74 N          -3.8730  -25.2907  -46.7420 N.am      13 UNK        -0.5000 
     75 CA         -3.9215  -26.7375  -46.5591 C.3       13 UNK         0.1400 
     76 CB         -4.1817  -27.0458  -45.0762 C.3       13 UNK        -0.1800 
     77 C          -2.6187  -27.4072  -47.0271 C.2       13 UNK         0.5000 
     78 O          -2.6799  -28.4001  -47.7514 O.2       13 UNK        -0.5000 
     79 N          -1.4656  -26.8646  -46.6089 N.am      14 UNK        -0.5000 
     80 CA         -0.1416  -27.4702  -46.7825 C.3       14 UNK         0.1400 
     81 CB          0.8780  -26.7264  -45.9059 C.3       14 UNK        -0.1800 
     82 C           0.3424  -27.5200  -48.2414 C.2       14 UNK         0.5000 
     83 O           0.9830  -28.4970  -48.6310 O.2       14 UNK        -0.5000 
     84 N           0.0173  -26.4807  -49.0188 N.am      15 UNK        -0.5000 
     85 CA          0.2956  -26.3909  -50.4542 C.3       15 UNK         0.1400 
     86 CB          0.9529  -25.0295  -50.7449 C.3       15 UNK        -0.1800 
     87 C          -0.9899  -26.5732  -51.2852 C.2       15 UNK         0.5000 
     88 O          -0.9325  -26.4760  -52.5114 O.2       15 UNK        -0.5000 
     89 N          -2.1241  -26.8068  -50.6037 N.am      16 UNK        -0.5000 
     90 CA         -3.4914  -26.8881  -51.1261 C.3       16 UNK         0.1400 
     91 CB         -3.6646  -28.1347  -52.0175 C.3       16 UNK        -0.1800 
     92 C          -3.9497  -25.5872  -51.8200 C.2       16 UNK         0.5000 
     93 O          -4.7796  -25.6354  -52.7304 O.2       16 UNK        -0.5000 
     94 N          -3.4094  -24.4388  -51.3784 N.am      17 UNK        -0.5000 
     95 CA         -3.6068  -23.1282  -52.0039 C.3       17 UNK         0.1400 
     96 CB         -2.6457  -22.1049  -51.3790 C.3       17 UNK        -0.1800 
     97 C          -5.0599  -22.6194  -51.9641 C.2       17 UNK         0.5000 
     98 O          -5.4103  -21.7545  -52.7671 O.2       17 UNK        -0.5000 
     99 N          -5.8963  -23.1895  -51.0824 N.am      18 UNK        -0.5000 
    100 CA        -7.3338  -22.9253  -50.9905 C.3       18 UNK         0.1400 
    101 CB        -7.9212  -23.7042  -49.8056 C.3       18 UNK        -0.1800 
    102 C         -8.1049  -23.2643  -52.2803 C.2       18 UNK         0.5000 
    103 O         -9.0976  -22.5995  -52.5760 O.2       18 UNK        -0.5000 
    104 N         -7.6091  -24.2408  -53.0565 N.am      19 UNK        -0.5000 
    105 CA        -8.1504  -24.6188  -54.3657 C.3       19 UNK         0.1400 
    106 CB        -7.4812  -25.9221  -54.8273 C.3       19 UNK        -0.1800 
    107 C         -7.9858  -23.5194  -55.4363 C.2       19 UNK         0.5000 
    108 O         -8.7573  -23.4888  -56.3955 O.2       19 UNK        -0.5000 
    109 N         -7.0017  -22.6324  -55.2415 N.am      20 UNK        -0.5000 
    110 CA        -6.7286  -21.4614  -56.0737 C.3       20 UNK         0.1400 
    111 CB        -5.2263  -21.4542  -56.4070 C.3       20 UNK        -0.1800 
    112 C         -7.1346  -20.1517  -55.3670 C.2       20 UNK         0.5000 
    113 O         -6.8111  -19.0755  -55.8719 O.2       20 UNK        -0.5000 
    114 N         -7.7802  -20.2512  -54.1921 N.am      21 UNK        -0.5000 
    115 CA        -8.1405  -19.1596  -53.2756 C.3       21 UNK         0.1400 
    116 CB        -9.2819  -18.3125  -53.8741 C.3       21 UNK        -0.1800 
    117 C         -6.9277  -18.3057  -52.8343 C.2       21 UNK         0.5000 
    118 O         -7.0643  -17.1016  -52.6108 O.2       21 UNK        -0.5000 
    119 N         -5.7550  -18.9476  -52.7453 N.am      22 UNK        -0.5000 
    120 CA        -4.4309  -18.3399  -52.5430 C.3       22 UNK         0.1400 
    121 C         -3.9397  -17.4406  -53.7244 C.2       22 UNK         0.5000 
    122 N         -4.5375  -17.4997  -54.9090 N.am      22 UNK        -0.7600 
    123 O         -2.9796  -16.6894  -53.5831 O.2       22 UNK        -0.5000 
    124 C124       -4.2755  -17.6729  -51.1402 C.3       23 UNK        -0.0398 
    125 S125       -2.8966  -18.3602  -50.1576 S.3       23 UNK        -0.2404 
    126 C126       -1.4784  -17.4757  -50.8761 C.3       23 UNK        -0.0205 
    127 H127        3.8867  -10.1117  -52.1342 H         1 UNK         0.0600 
    128 H128        3.4619   -8.7061  -51.1513 H         1 UNK         0.0600 
    129 H129        2.3882  -10.1074  -51.2003 H         1 UNK         0.0600 
    130 H130        2.5365  -11.3704  -49.3698 H         1 UNK         0.3000 
    131 H131        5.0163  -12.3033  -48.2947 H         1 UNK         0.0600 
    132 H132        2.1904  -12.5264  -47.1491 H         1 UNK         0.0800 
    133 H133        3.5869  -13.4204  -46.5813 H         1 UNK         0.0800 
    134 H134        2.3832  -15.7172  -46.7844 H         1 UNK         0.0800 
    135 H135        0.9413  -14.8591  -47.2763 H         1 UNK         0.0800 
    136 H136       -0.3483  -15.5710  -49.2897 H         1 UNK         0.1150 
    137 H137        0.1520  -19.6336  -50.5531 H         1 UNK         0.1150 
    138 H138        2.9388  -17.8836  -47.8000 H         1 UNK         0.1150 
    139 H139        2.2813  -20.7598  -50.0586 H         1 UNK         0.0800 
    140 H140        3.4755  -19.9943  -49.0444 H         1 UNK         0.0800 
    141 H141        0.1612  -21.8608  -49.2363 H         1 UNK         0.0800 
    142 H142       -0.4202  -20.7397  -48.0245 H         1 UNK         0.0800 
    143 H143        0.2886  -23.6580  -47.4510 H         1 UNK         0.0600 
    144 H144       -0.1539  -21.5910  -45.6395 H         1 UNK         0.3000 
    145 H145       -1.5128  -23.5062  -42.9062 H         1 UNK         0.0600 
    146 H146        0.4156  -22.2740  -41.9248 H         1 UNK         0.0600 
    147 H147        0.9469  -23.6241  -42.9154 H         1 UNK         0.0600 
    148 H148        1.0747  -21.9855  -43.5326 H         1 UNK         0.0600 
    149 H149       -1.0888  -20.6835  -43.6485 H         1 UNK         0.3000 
    150 H150       -4.4974  -20.0234  -44.1812 H         1 UNK         0.0600 
    151 H151       -4.5698  -19.9894  -41.6888 H         1 UNK         0.0600 
    152 H152       -4.3381  -18.3699  -42.3288 H         1 UNK         0.0600 
    153 H153       -2.9753  -19.2480  -41.6340 H         1 UNK         0.0600 
    154 H154       -2.2049  -18.3326  -43.7911 H         1 UNK         0.3000 
    155 H155       -0.9256  -18.5238  -47.0996 H         1 UNK         0.0600 
    156 H156       -2.5836  -16.3550  -45.6994 H         1 UNK         0.0600 
    157 H157       -2.8099  -16.9455  -47.3414 H         1 UNK         0.0600 
    158 H158       -1.3590  -16.0470  -46.9240 H         1 UNK         0.0600 
    159 H159       -0.1844  -16.8797  -44.9308 H         1 UNK         0.3000 
    160 H160        1.6836  -19.1322  -42.9817 H         1 UNK         0.0600 
    161 H161        2.9478  -17.4135  -45.1791 H         1 UNK         0.0600 
    162 H162        3.2809  -19.1107  -44.8731 H         1 UNK         0.0600 
    163 H163        3.7414  -17.9014  -43.6824 H         1 UNK         0.0600 
    164 H164        1.8185  -16.2864  -43.2329 H         1 UNK         0.3000 
    165 H165       -1.1489  -15.4640  -41.5181 H         1 UNK         0.0600 
    166 H166        0.2478  -14.5213  -39.6959 H         1 UNK         0.0600 
    167 H167        0.1280  -16.2643  -39.5191 H         1 UNK         0.0600 
    168 H168        1.6020  -15.5511  -40.1636 H         1 UNK         0.0600 
    169 H169        1.1818  -13.9112  -41.9702 H         1 UNK         0.3000 
    170 H170        0.9933  -13.4505  -45.4192 H         1 UNK         0.0600 
    171 H171       -0.9176  -11.9499  -44.7214 H         1 UNK         0.0600 
    172 H172        0.0852  -11.3330  -43.4122 H         1 UNK         0.0600 
    173 H173        0.5573  -11.0788  -45.0935 H         1 UNK         0.0600 
    174 H174        2.4832  -11.9144  -43.6444 H         1 UNK         0.3000 
    175 H175        4.7264  -13.7914  -42.2544 H         1 UNK         0.0600 
    176 H176        5.6419  -13.6100  -45.1687 H         1 UNK         0.0600 
    177 H177        6.7151  -13.6130  -43.7709 H         1 UNK         0.0600 
    178 H178        5.7262  -15.0189  -44.1239 H         1 UNK         0.0600 
    179 H179        5.0895  -11.4417  -44.0044 H         1 UNK         0.3000 
    180 H180        3.8214   -9.1633  -41.6651 H         1 UNK         0.0600 
    181 H181        6.8288   -9.6663  -41.9918 H         1 UNK         0.0600 
    182 H182        5.9715   -9.5720  -40.4581 H         1 UNK         0.0600 
    183 H183        6.0805   -8.1512  -41.4841 H         1 UNK         0.0600 
    184 H184        5.5513   -8.7833  -43.9070 H         1 UNK         0.3000 
    185 H185        3.0402   -7.9127  -46.0343 H         1 UNK         0.0600 
    186 H186        5.2719   -7.0292  -45.3405 H         1 UNK         0.0600 
    187 H187        6.0504   -8.5136  -45.8898 H         1 UNK         0.0600 
    188 H188        5.2491   -7.4554  -47.0407 H         1 UNK         0.0600 
    189 H189        3.0164   -9.5516  -47.5342 H         1 UNK         0.3000 
    190 H190       -2.7554  -21.9607  -46.8005 H         1 UNK         0.3000 
    191 H191       -4.4064  -22.7874  -48.8255 H         1 UNK         0.0600 
    192 H192       -5.1386  -21.2768  -47.0496 H         1 UNK         0.0600 
    193 H193       -6.2279  -22.6511  -47.0663 H         1 UNK         0.0600 
    194 H194       -4.9837  -22.5429  -45.8326 H         1 UNK         0.0600 
    195 H195       -3.2646  -24.7771  -46.1155 H         1 UNK         0.3000 
    196 H196       -4.7430  -27.1655  -47.1378 H         1 UNK         0.0600 
    197 H197       -4.2129  -28.1217  -44.8996 H         1 UNK         0.0600 
    198 H198       -5.1386  -26.6355  -44.7533 H         1 UNK         0.0600 
    199 H199       -3.4061  -26.6280  -44.4327 H         1 UNK         0.0600 
    200 H200       -1.4945  -26.0254  -46.0321 H         1 UNK         0.3000 
    201 H201       -0.2027  -28.5000  -46.4242 H         1 UNK         0.0600 
    202 H202        0.5802  -26.7384  -44.8572 H         1 UNK         0.0600 
    203 H203        0.9887  -25.6854  -46.2102 H         1 UNK         0.0600 
    204 H204        1.8620  -27.1927  -45.9696 H         1 UNK         0.0600 
    205 H205       -0.5374  -25.7242  -48.6335 H         1 UNK         0.3000 
    206 H206        0.9910  -27.1738  -50.7625 H         1 UNK         0.0600 
    207 H207        1.8441  -24.8830  -50.1344 H         1 UNK         0.0600 
    208 H208        1.2609  -24.9603  -51.7887 H         1 UNK         0.0600 
    209 H209        0.2747  -24.1989  -50.5514 H         1 UNK         0.0600 
    210 H210       -2.0420  -26.8996  -49.6015 H         1 UNK         0.3000 
    211 H211       -4.1402  -27.0142  -50.2587 H         1 UNK         0.0600 
    212 H212       -3.0963  -28.0529  -52.9443 H         1 UNK         0.0600 
    213 H213       -4.7111  -28.2796  -52.2884 H         1 UNK         0.0600 
    214 H214       -3.3371  -29.0366  -51.5004 H         1 UNK         0.0600 
    215 H215       -2.7578  -24.4766  -50.6015 H         1 UNK         0.3000 
    216 H216       -3.3385  -23.2346  -53.0569 H         1 UNK         0.0600 
    217 H217       -2.6481  -21.1749  -51.9470 H         1 UNK         0.0600 
    218 H218       -1.6200  -22.4740  -51.3736 H         1 UNK         0.0600 
    219 H219       -2.9196  -21.8563  -50.3547 H         1 UNK         0.0600 
    220 H220       -5.5358  -23.9198  -50.4813 H         1 UNK         0.3000 
    221 H221       -7.4635  -21.8579  -50.8003 H         1 UNK         0.0600 
    222 H222       -7.7719  -24.7790  -49.9172 H         1 UNK         0.0600 
    223 H223       -7.4628  -23.3992  -48.8668 H         1 UNK         0.0600 
    224 H224       -8.9937  -23.5282  -49.7125 H         1 UNK         0.0600 
    225 H225       -6.7648  -24.7202  -52.7640 H         1 UNK         0.3000 
    226 H226       -9.2196  -24.8059  -54.2473 H         1 UNK         0.0600 
    227 H227       -7.6261  -26.7207  -54.0995 H         1 UNK         0.0600 
    228 H228       -7.9022  -26.2639  -55.7737 H         1 UNK         0.0600 
    229 H229       -6.4081  -25.7924  -54.9734 H         1 UNK         0.0600 
    230 H230       -6.4298  -22.7173  -54.4099 H         1 UNK         0.3000 
    231 H231       -7.2892  -21.5129  -57.0089 H         1 UNK         0.0600 
    232 H232       -4.9295  -22.3767  -56.9064 H         1 UNK         0.0600 
    233 H233       -4.6159  -21.3479  -55.5091 H         1 UNK         0.0600 
    234 H234       -4.9736  -20.6303  -57.0756 H         1 UNK         0.0600 
    235 H235       -8.0182  -21.1789  -53.8655 H         1 UNK         0.3000 
    236 H236       -8.5204  -19.6350  -52.3702 H         1 UNK         0.0600 
    237 H237       -9.6506  -17.5837  -53.1515 H         1 UNK         0.0600 
    238 H238       -8.9563  -17.7622  -54.7575 H         1 UNK         0.0600 
    239 H239      -10.1271  -18.9381  -54.1612 H         1 UNK         0.0600 
    240 H240       -5.7418  -19.9512  -52.9137 H         1 UNK         0.3000 
    241 H241       -3.7565  -19.1942  -52.5856 H         1 UNK         0.0600 
    242 H242       -4.1956  -16.9161  -55.6556 H         1 UNK         0.3800 
    243 H243       -5.3427  -18.0953  -55.0758 H         1 UNK         0.3800 
    244 H244       -5.1741  -17.8288  -50.5423 H         1 UNK         0.0800 
    245 H245       -4.1747  -16.5884  -51.2074 H         1 UNK         0.0800 
    246 H246       -1.7376  -16.4259  -51.0213 H         1 UNK         0.0800 
    247 H247       -1.2648  -17.8814  -51.8658 H         1 UNK         0.0800 
@<TRIPOS>BOND
     1    1    2 1    
     2    1  127 1    
     3    1  128 1    
     4    1  129 1    
     5    2    3 2    
     6    2    4 am   BACKBONE|DICT|INTERRES
     7    4    5 1    
     8    4  130 1    
     9    5    6 1    
    10    5   65 1    
    11    5  131 1    
    12    6    7 1    
    13    6  132 1    
    14    6  133 1    
    15    7    8 1    
    16    8    9 1    
    17    8  134 1    
    18    8  135 1    
    19    9   10 ar   
    20    9   14 ar   
    21   10   11 ar   
    22   10  136 1    
    23   11   12 ar   
    24   11  126 1    
    25   12   13 ar   
    26   12  137 1    
    27   13   14 ar   
    28   13   15 1    
    29   14  138 1    
    30   15   16 1    
    31   15  139 1    
    32   15  140 1    
    33   16   17 1    
    34   17   18 1    
    35   17  141 1    
    36   17  142 1    
    37   18   19 1    
    38   18   67 1    
    39   18  143 1    
    40   19   20 am   BACKBONE|DICT|INTERRES
    41   19  144 1    
    42   20   21 2    
    43   20   22 1    
    44   22   23 1    
    45   22   24 1    
    46   22  145 1    
    47   23  146 1    
    48   23  147 1    
    49   23  148 1    
    50   24   25 am   BACKBONE|DICT|INTERRES
    51   24  149 1    
    52   25   26 2    
    53   25   27 1    
    54   27   28 1    
    55   27   29 1    
    56   27  150 1    
    57   28  151 1    
    58   28  152 1    
    59   28  153 1    
    60   29   30 am   BACKBONE|DICT|INTERRES
    61   29  154 1    
    62   30   31 2    
    63   30   32 1    
    64   32   33 1    
    65   32   34 1    
    66   32  155 1    
    67   33  156 1    
    68   33  157 1    
    69   33  158 1    
    70   34   35 am   BACKBONE|DICT|INTERRES
    71   34  159 1    
    72   35   36 2    
    73   35   37 1    
    74   37   38 1    
    75   37   39 1    
    76   37  160 1    
    77   38  161 1    
    78   38  162 1    
    79   38  163 1    
    80   39   40 am   BACKBONE|DICT|INTERRES
    81   39  164 1    
    82   40   41 2    
    83   40   42 1    
    84   42   43 1    
    85   42   44 1    
    86   42  165 1    
    87   43  166 1    
    88   43  167 1    
    89   43  168 1    
    90   44   45 am   BACKBONE|DICT|INTERRES
    91   44  169 1    
    92   45   46 2    
    93   45   47 1    
    94   47   48 1    
    95   47   49 1    
    96   47  170 1    
    97   48  171 1    
    98   48  172 1    
    99   48  173 1    
   100   49   50 am   BACKBONE|DICT|INTERRES
   101   49  174 1    
   102   50   51 2    
   103   50   52 1    
   104   52   53 1    
   105   52   54 1    
   106   52  175 1    
   107   53  176 1    
   108   53  177 1    
   109   53  178 1    
   110   54   55 am   BACKBONE|DICT|INTERRES
   111   54  179 1    
   112   55   56 2    
   113   55   57 1    
   114   57   58 1    
   115   57   59 1    
   116   57  180 1    
   117   58  181 1    
   118   58  182 1    
   119   58  183 1    
   120   59   60 am   BACKBONE|DICT|INTERRES
   121   59  184 1    
   122   60   61 2    
   123   60   62 1    
   124   62   63 1    
   125   62   64 1    
   126   62  185 1    
   127   63  186 1    
   128   63  187 1    
   129   63  188 1    
   130   64   65 am   BACKBONE|DICT|INTERRES
   131   64  189 1    
   132   65   66 2    
   133   67   68 2    
   134   67   69 am   BACKBONE|DICT|INTERRES
   135   69   70 1    
   136   69  190 1    
   137   70   71 1    
   138   70   72 1    
   139   70  191 1    
   140   71  192 1    
   141   71  193 1    
   142   71  194 1    
   143   72   73 2    
   144   72   74 am   BACKBONE|DICT|INTERRES
   145   74   75 1    
   146   74  195 1    
   147   75   76 1    
   148   75   77 1    
   149   75  196 1    
   150   76  197 1    
   151   76  198 1    
   152   76  199 1    
   153   77   78 2    
   154   77   79 am   BACKBONE|DICT|INTERRES
   155   79   80 1    
   156   79  200 1    
   157   80   81 1    
   158   80   82 1    
   159   80  201 1    
   160   81  202 1    
   161   81  203 1    
   162   81  204 1    
   163   82   83 2    
   164   82   84 am   BACKBONE|DICT|INTERRES
   165   84   85 1    
   166   84  205 1    
   167   85   86 1    
   168   85   87 1    
   169   85  206 1    
   170   86  207 1    
   171   86  208 1    
   172   86  209 1    
   173   87   88 2    
   174   87   89 am   BACKBONE|DICT|INTERRES
   175   89   90 1    
   176   89  210 1    
   177   90   91 1    
   178   90   92 1    
   179   90  211 1    
   180   91  212 1    
   181   91  213 1    
   182   91  214 1    
   183   92   93 2    
   184   92   94 am   BACKBONE|DICT|INTERRES
   185   94   95 1    
   186   94  215 1    
   187   95   96 1    
   188   95   97 1    
   189   95  216 1    
   190   96  217 1    
   191   96  218 1    
   192   96  219 1    
   193   97   98 2    
   194   97   99 am   BACKBONE|DICT|INTERRES
   195   99  100 1    
   196   99  220 1    
   197  100  101 1    
   198  100  102 1    
   199  100  221 1    
   200  101  222 1    
   201  101  223 1    
   202  101  224 1    
   203  102  103 2    
   204  102  104 am   BACKBONE|DICT|INTERRES
   205  104  105 1    
   206  104  225 1    
   207  105  106 1    
   208  105  107 1    
   209  105  226 1    
   210  106  227 1    
   211  106  228 1    
   212  106  229 1    
   213  107  108 2    
   214  107  109 am   BACKBONE|DICT|INTERRES
   215  109  110 1    
   216  109  230 1    
   217  110  111 1    
   218  110  112 1    
   219  110  231 1    
   220  111  232 1    
   221  111  233 1    
   222  111  234 1    
   223  112  113 2    
   224  112  114 am   BACKBONE|DICT|INTERRES
   225  114  115 1    
   226  114  235 1    
   227  115  116 1    
   228  115  117 1    
   229  115  236 1    
   230  116  237 1    
   231  116  238 1    
   232  116  239 1    
   233  117  118 2    
   234  117  119 am   BACKBONE|DICT|INTERRES
   235  119  120 1    
   236  119  240 1    
   237  120  121 1    
   238  120  124 1    
   239  120  241 1    
   240  121  122 am   BACKBONE|DICT|INTERRES
   241  121  123 2    
   242  122  242 1    
   243  122  243 1    
   244  124  125 1    
   245  124  244 1    
   246  124  245 1    
   247  125  126 1    
   248  126  246 1    
   249  126  247 1    
@<TRIPOS>SUBSTRUCTURE
     1 UNK         1 GROUP             0       ****    0 ROOT    
