@<TRIPOS>MOLECULE
3R540
247   249    1
SMALL
USER_CHARGES


@<TRIPOS>ATOM
      1 CA         -4.7852  -13.3011  -43.5379 C.3       0 UNK        -0.1800 
      2 C          -3.4569  -13.4264  -44.2684 C.2       0 UNK         0.5000 
      3 O          -2.4917  -12.7529  -43.9064 O.2       0 UNK        -0.5000 
      4 N          -3.3916  -14.2992  -45.2832 N.am      1 UNK        -0.5000 
      5 CA         -2.1986  -14.5478  -46.1043 C.3       1 UNK         0.1400 
      6 C6         -2.4989  -15.4532  -47.3234 C.3       23 UNK        -0.0398 
      7 S7         -3.1385  -17.1080  -46.8823 S.3       23 UNK        -0.2404 
      8 C8         -3.4171  -17.8404  -48.5255 C.3       23 UNK        -0.0205 
      9 C9         -2.1610  -17.8801  -49.3864 C.ar      23 UNK        -0.0193 
     10 C10        -2.1717  -17.3002  -50.6583 C.ar      23 UNK        -0.1150 
     11 C11        -1.0469  -17.3751  -51.4832 C.ar      23 UNK        -0.0193 
     12 C12         0.1023  -18.0199  -51.0219 C.ar      23 UNK        -0.1150 
     13 C13         0.1355  -18.5880  -49.7460 C.ar      23 UNK        -0.0193 
     14 C14        -1.0002  -18.5162  -48.9319 C.ar      23 UNK        -0.1150 
     15 C15         1.4026  -19.2756  -49.2621 C.3       23 UNK        -0.0205 
     16 S16         1.1797  -21.0754  -49.0972 S.3       23 UNK        -0.2404 
     17 C17         1.0035  -21.2292  -47.2927 C.3       23 UNK        -0.0398 
     18 CA          0.0291  -22.3454  -46.8515 C.3       11 UNK         0.1400 
     19 N           0.4022  -22.8496  -45.5275 N.am      11 UNK        -0.5000 
     20 C          -0.0285  -23.9925  -44.9801 C.2       10 UNK         0.5000 
     21 O          -0.7946  -24.7717  -45.5422 O.2       10 UNK        -0.5000 
     22 CA          0.4534  -24.2970  -43.5487 C.3       10 UNK         0.1400 
     23 CB          1.7846  -25.0620  -43.5810 C.3       10 UNK        -0.1800 
     24 N           0.6090  -23.0911  -42.7324 N.am      10 UNK        -0.5000 
     25 C          -0.4037  -22.2996  -42.3527 C.2       9 UNK         0.5000 
     26 O          -1.5823  -22.5237  -42.6246 O.2       9 UNK        -0.5000 
     27 CA         -0.0319  -21.0122  -41.5959 C.3       9 UNK         0.1400 
     28 CB          0.0872  -21.2807  -40.0892 C.3       9 UNK        -0.1800 
     29 N           1.2042  -20.3871  -42.0752 N.am      9 UNK        -0.5000 
     30 C           1.4227  -19.9415  -43.3186 C.2       8 UNK         0.5000 
     31 O           0.5913  -20.0397  -44.2237 O.2       8 UNK        -0.5000 
     32 CA          2.7967  -19.2881  -43.5869 C.3       8 UNK         0.1400 
     33 CB          2.9241  -18.7513  -45.0231 C.3       8 UNK        -0.1800 
     34 N           3.1143  -18.2076  -42.6477 N.am      8 UNK        -0.5000 
     35 C           3.5445  -18.3666  -41.3886 C.2       7 UNK         0.5000 
     36 O           3.6343  -19.4679  -40.8412 O.2       7 UNK        -0.5000 
     37 CA          3.9420  -17.0811  -40.6309 C.3       7 UNK         0.1400 
     38 CB          4.6931  -17.3661  -39.3131 C.3       7 UNK        -0.1800 
     39 N           4.6956  -16.1344  -41.4654 N.am      7 UNK        -0.5000 
     40 C           5.8862  -16.3340  -42.0510 C.2       6 UNK         0.5000 
     41 O           6.5100  -17.3951  -41.9900 O.2       6 UNK        -0.5000 
     42 CA          6.4655  -15.1445  -42.8497 C.3       6 UNK         0.1400 
     43 CB          7.8992  -15.4049  -43.3476 C.3       6 UNK        -0.1800 
     44 N           5.6295  -14.7985  -44.0005 N.am      6 UNK        -0.5000 
     45 C           4.4919  -14.0966  -43.9433 C.2       5 UNK         0.5000 
     46 O           4.0402  -13.6417  -42.8900 O.2       5 UNK        -0.5000 
     47 CA          3.7412  -13.9069  -45.2785 C.3       5 UNK         0.1400 
     48 CB          3.3268  -15.2627  -45.8724 C.3       5 UNK        -0.1800 
     49 N           2.5346  -13.1010  -45.1147 N.am      5 UNK        -0.5000 
     50 C           2.4962  -11.7683  -44.9973 C.2       4 UNK         0.5000 
     51 O           3.4743  -11.0344  -45.1477 O.2       4 UNK        -0.5000 
     52 CA          1.1306  -11.1607  -44.6228 C.3       4 UNK         0.1400 
     53 CB          0.2207  -11.0466  -45.8556 C.3       4 UNK        -0.1800 
     54 N           0.4545  -11.9462  -43.5890 N.am      4 UNK        -0.5000 
     55 C           0.8506  -12.0136  -42.3094 C.2       3 UNK         0.5000 
     56 O           1.7493  -11.3183  -41.8343 O.2       3 UNK        -0.5000 
     57 CA          0.1237  -13.0237  -41.4045 C.3       3 UNK         0.1400 
     58 CB         -1.0601  -12.3573  -40.6861 C.3       3 UNK        -0.1800 
     59 N          -0.3580  -14.1861  -42.1503 N.am      3 UNK        -0.5000 
     60 C           0.3927  -15.2519  -42.4619 C.2       2 UNK         0.5000 
     61 O           1.5675  -15.3915  -42.1295 O.2       2 UNK        -0.5000 
     62 CA         -0.2810  -16.3601  -43.2884 C.3       2 UNK         0.1400 
     63 CB         -0.9432  -17.3805  -42.3526 C.3       2 UNK        -0.1800 
     64 N          -1.2726  -15.8537  -44.2357 N.am      2 UNK        -0.5000 
     65 C          -0.9958  -15.0649  -45.2844 C.2       1 UNK         0.5000 
     66 O           0.1404  -14.6957  -45.5775 O.2       1 UNK        -0.5000 
     67 C          -1.4408  -21.8754  -46.8739 C.2       11 UNK         0.5000 
     68 O          -2.1656  -22.1496  -47.8335 O.2       11 UNK        -0.5000 
     69 N          -1.8632  -21.2192  -45.7829 N.am      12 UNK        -0.5000 
     70 CA         -3.2502  -20.8314  -45.5364 C.3       12 UNK         0.1400 
     71 CB         -3.3134  -19.8635  -44.3473 C.3       12 UNK        -0.1800 
     72 C          -4.1649  -22.0488  -45.3123 C.2       12 UNK         0.5000 
     73 O          -5.2566  -22.0905  -45.8782 O.2       12 UNK        -0.5000 
     74 N          -3.6926  -23.0333  -44.5324 N.am      13 UNK        -0.5000 
     75 CA         -4.3890  -24.2958  -44.2652 C.3       13 UNK         0.1400 
     76 CB         -3.6530  -25.0692  -43.1614 C.3       13 UNK        -0.1800 
     77 C          -4.5585  -25.1715  -45.5214 C.2       13 UNK         0.5000 
     78 O          -5.6125  -25.7840  -45.6955 O.2       13 UNK        -0.5000 
     79 N          -3.5375  -25.1860  -46.3905 N.am      14 UNK        -0.5000 
     80 CA         -3.5654  -25.8282  -47.7077 C.3       14 UNK         0.1400 
     81 CB         -2.1328  -25.9125  -48.2574 C.3       14 UNK        -0.1800 
     82 C          -4.4811  -25.1096  -48.7194 C.2       14 UNK         0.5000 
     83 O          -4.8653  -25.7215  -49.7165 O.2       14 UNK        -0.5000 
     84 N          -4.8089  -23.8391  -48.4391 N.am      15 UNK        -0.5000 
     85 CA         -5.6570  -22.9347  -49.2141 C.3       15 UNK         0.1400 
     86 CB         -7.1191  -23.4251  -49.2195 C.3       15 UNK        -0.1800 
     87 C          -5.0909  -22.6865  -50.6229 C.2       15 UNK         0.5000 
     88 O          -5.7755  -22.9223  -51.6198 O.2       15 UNK        -0.5000 
     89 N          -3.8395  -22.2068  -50.6741 N.am      16 UNK        -0.5000 
     90 CA         -3.0764  -21.9330  -51.8981 C.3       16 UNK         0.1400 
     91 CB         -1.7281  -21.3119  -51.5129 C.3       16 UNK        -0.1800 
     92 C          -3.8004  -21.0438  -52.9302 C.2       16 UNK         0.5000 
     93 O          -3.6635  -21.2778  -54.1318 O.2       16 UNK        -0.5000 
     94 N          -4.5892  -20.0750  -52.4450 N.am      17 UNK        -0.5000 
     95 CA         -5.4161  -19.1882  -53.2640 C.3       17 UNK         0.1400 
     96 CB         -5.9190  -18.0236  -52.3984 C.3       17 UNK        -0.1800 
     97 C          -6.5968  -19.9102  -53.9397 C.2       17 UNK         0.5000 
     98 O          -6.9204  -19.5947  -55.0846 O.2       17 UNK        -0.5000 
     99 N          -7.2040  -20.8771  -53.2371 N.am      18 UNK        -0.5000 
    100 CA        -8.2975  -21.7075  -53.7485 C.3       18 UNK         0.1400 
    101 CB        -9.0711  -22.3238  -52.5731 C.3       18 UNK        -0.1800 
    102 C         -7.7798  -22.8040  -54.6951 C.2       18 UNK         0.5000 
    103 O         -8.4442  -23.1249  -55.6807 O.2       18 UNK        -0.5000 
    104 N         -6.5825  -23.3277  -54.3975 N.am      19 UNK        -0.5000 
    105 CA        -5.8418  -24.2756  -55.2320 C.3       19 UNK         0.1400 
    106 CB        -4.7111  -24.8876  -54.3901 C.3       19 UNK        -0.1800 
    107 C         -5.2682  -23.6438  -56.5187 C.2       19 UNK         0.5000 
    108 O         -4.8722  -24.3810  -57.4222 O.2       19 UNK        -0.5000 
    109 N         -5.2211  -22.3033  -56.5674 N.am      20 UNK        -0.5000 
    110 CA        -4.6573  -21.4573  -57.6240 C.3       20 UNK         0.1400 
    111 CB        -5.4289  -21.6283  -58.9489 C.3       20 UNK        -0.1800 
    112 C         -3.1319  -21.6346  -57.7782 C.2       20 UNK         0.5000 
    113 O         -2.5973  -21.5130  -58.8820 O.2       20 UNK        -0.5000 
    114 N         -2.4515  -21.8975  -56.6547 N.am      21 UNK        -0.5000 
    115 CA        -0.9997  -22.0650  -56.5687 C.3       21 UNK         0.1400 
    116 CB        -0.6730  -22.8488  -55.2882 C.3       21 UNK        -0.1800 
    117 C         -0.2409  -20.7228  -56.5978 C.2       21 UNK         0.5000 
    118 O          0.9698  -20.7150  -56.8226 O.2       21 UNK        -0.5000 
    119 N         -0.9628  -19.6191  -56.3691 N.am      22 UNK        -0.5000 
    120 CA        -0.4534  -18.2382  -56.3385 C.3       22 UNK         0.1400 
    121 C         -0.0250  -17.6642  -57.7219 C.2       22 UNK         0.5000 
    122 N         -0.3406  -18.3068  -58.8403 N.am      22 UNK        -0.7600 
    123 O          0.6096  -16.6146  -57.7803 O.2       22 UNK        -0.5000 
    124 C124       -1.4565  -17.2802  -55.6430 C.3       23 UNK        -0.0398 
    125 S125       -1.9846  -17.8875  -54.0058 S.3       23 UNK        -0.2404 
    126 C126       -1.0793  -16.7859  -52.8829 C.3       23 UNK        -0.0205 
    127 H127       -4.6562  -13.5421  -42.4827 H         1 UNK         0.0600 
    128 H128       -5.5399  -13.9705  -43.9511 H         1 UNK         0.0600 
    129 H129       -5.1576  -12.2795  -43.6122 H         1 UNK         0.0600 
    130 H130       -4.2083  -14.8411  -45.5284 H         1 UNK         0.3000 
    131 H131       -1.8963  -13.5768  -46.5020 H         1 UNK         0.0600 
    132 H132       -1.5998  -15.5688  -47.9315 H         1 UNK         0.0800 
    133 H133       -3.2310  -14.9653  -47.9683 H         1 UNK         0.0800 
    134 H134       -4.2129  -17.2850  -49.0241 H         1 UNK         0.0800 
    135 H135       -3.7861  -18.8589  -48.4009 H         1 UNK         0.0800 
    136 H136       -3.0618  -16.8073  -51.0211 H         1 UNK         0.1150 
    137 H137        0.9708  -18.0849  -51.6621 H         1 UNK         0.1150 
    138 H138       -0.9878  -18.9634  -47.9485 H         1 UNK         0.1150 
    139 H139        1.7261  -18.8296  -48.3207 H         1 UNK         0.0800 
    140 H140        2.2188  -19.1018  -49.9648 H         1 UNK         0.0800 
    141 H141        0.7246  -20.2717  -46.8507 H         1 UNK         0.0800 
    142 H142        2.0052  -21.4459  -46.9196 H         1 UNK         0.0800 
    143 H143        0.1186  -23.1812  -47.5491 H         1 UNK         0.0600 
    144 H144        0.9707  -22.2356  -44.9626 H         1 UNK         0.3000 
    145 H145       -0.2940  -24.9346  -43.0729 H         1 UNK         0.0600 
    146 H146        1.6935  -25.9781  -44.1662 H         1 UNK         0.0600 
    147 H147        2.0988  -25.3492  -42.5774 H         1 UNK         0.0600 
    148 H148        2.5825  -24.4660  -44.0259 H         1 UNK         0.0600 
    149 H149        1.5479  -22.8346  -42.4648 H         1 UNK         0.3000 
    150 H150       -0.8457  -20.3021  -41.7494 H         1 UNK         0.0600 
    151 H151        0.9112  -21.9591  -39.8648 H         1 UNK         0.0600 
    152 H152       -0.8265  -21.7311  -39.6987 H         1 UNK         0.0600 
    153 H153        0.2545  -20.3557  -39.5370 H         1 UNK         0.0600 
    154 H154        1.9516  -20.2602  -41.3987 H         1 UNK         0.3000 
    155 H155        3.5478  -20.0715  -43.4667 H         1 UNK         0.0600 
    156 H156        2.1218  -18.0562  -45.2709 H         1 UNK         0.0600 
    157 H157        2.8835  -19.5650  -45.7456 H         1 UNK         0.0600 
    158 H158        3.8761  -18.2422  -45.1731 H         1 UNK         0.0600 
    159 H159        3.0229  -17.2622  -42.9915 H         1 UNK         0.3000 
    160 H160        3.0093  -16.5857  -40.3620 H         1 UNK         0.0600 
    161 H161        5.6186  -17.9172  -39.4824 H         1 UNK         0.0600 
    162 H162        4.0796  -17.9604  -38.6349 H         1 UNK         0.0600 
    163 H163        4.9436  -16.4408  -38.7944 H         1 UNK         0.0600 
    164 H164        4.2340  -15.2469  -41.6466 H         1 UNK         0.3000 
    165 H165        6.5062  -14.2900  -42.1708 H         1 UNK         0.0600 
    166 H166        8.5652  -15.6407  -42.5165 H         1 UNK         0.0600 
    167 H167        7.9387  -16.2397  -44.0485 H         1 UNK         0.0600 
    168 H168        8.3076  -14.5271  -43.8486 H         1 UNK         0.0600 
    169 H169        5.9322  -15.1646  -44.8915 H         1 UNK         0.3000 
    170 H170        4.4117  -13.4048  -45.9787 H         1 UNK         0.0600 
    171 H171        2.6826  -15.8079  -45.1830 H         1 UNK         0.0600 
    172 H172        4.1904  -15.8905  -46.0922 H         1 UNK         0.0600 
    173 H173        2.7784  -15.1336  -46.8059 H         1 UNK         0.0600 
    174 H174        1.6682  -13.6199  -45.0114 H         1 UNK         0.3000 
    175 H175        1.3025  -10.1552  -44.2329 H         1 UNK         0.0600 
    176 H176        0.6771  -10.4138  -46.6177 H         1 UNK         0.0600 
    177 H177        0.0307  -12.0193  -46.3094 H         1 UNK         0.0600 
    178 H178       -0.7415  -10.6042  -45.5968 H         1 UNK         0.0600 
    179 H179       -0.3437  -12.4984  -43.8771 H         1 UNK         0.3000 
    180 H180        0.8333  -13.3590  -40.6448 H         1 UNK         0.0600 
    181 H181       -1.8059  -11.9879  -41.3907 H         1 UNK         0.0600 
    182 H182       -0.7248  -11.5080  -40.0895 H         1 UNK         0.0600 
    183 H183       -1.5539  -13.0548  -40.0095 H         1 UNK         0.0600 
    184 H184       -1.3004  -14.1290  -42.5115 H         1 UNK         0.3000 
    185 H185        0.4982  -16.8701  -43.8574 H         1 UNK         0.0600 
    186 H186       -0.2339  -17.7484  -41.6098 H         1 UNK         0.0600 
    187 H187       -1.7882  -16.9494  -41.8145 H         1 UNK         0.0600 
    188 H188       -1.3015  -18.2440  -42.9090 H         1 UNK         0.0600 
    189 H189       -2.2360  -16.1060  -44.0713 H         1 UNK         0.3000 
    190 H190       -1.1915  -21.0069  -45.0548 H         1 UNK         0.3000 
    191 H191       -3.6132  -20.3026  -46.4197 H         1 UNK         0.0600 
    192 H192       -2.7329  -18.9650  -44.5509 H         1 UNK         0.0600 
    193 H193       -4.3395  -19.5490  -44.1539 H         1 UNK         0.0600 
    194 H194       -2.9282  -20.3141  -43.4327 H         1 UNK         0.0600 
    195 H195       -2.8127  -22.8905  -44.0442 H         1 UNK         0.3000 
    196 H196       -5.3873  -24.0504  -43.8971 H         1 UNK         0.0600 
    197 H197       -4.1788  -25.9924  -42.9148 H         1 UNK         0.0600 
    198 H198       -3.5822  -24.4810  -42.2464 H         1 UNK         0.0600 
    199 H199       -2.6423  -25.3394  -43.4664 H         1 UNK         0.0600 
    200 H200       -2.6666  -24.7329  -46.1305 H         1 UNK         0.3000 
    201 H201       -3.9454  -26.8444  -47.5846 H         1 UNK         0.0600 
    202 H202       -2.1144  -26.3978  -49.2340 H         1 UNK         0.0600 
    203 H203       -1.4901  -26.4932  -47.5957 H         1 UNK         0.0600 
    204 H204       -1.6894  -24.9229  -48.3737 H         1 UNK         0.0600 
    205 H205       -4.4195  -23.4396  -47.5956 H         1 UNK         0.3000 
    206 H206       -5.6354  -21.9745  -48.6968 H         1 UNK         0.0600 
    207 H207       -7.4799  -23.5935  -48.2047 H         1 UNK         0.0600 
    208 H208       -7.7745  -22.6837  -49.6770 H         1 UNK         0.0600 
    209 H209       -7.2363  -24.3556  -49.7760 H         1 UNK         0.0600 
    210 H210       -3.3400  -22.0817  -49.8009 H         1 UNK         0.3000 
    211 H211       -2.8816  -22.8929  -52.3785 H         1 UNK         0.0600 
    212 H212       -1.1396  -21.0482  -52.3922 H         1 UNK         0.0600 
    213 H213       -1.1331  -22.0020  -50.9150 H         1 UNK         0.0600 
    214 H214       -1.8661  -20.4009  -50.9322 H         1 UNK         0.0600 
    215 H215       -4.6354  -19.9514  -51.4453 H         1 UNK         0.3000 
    216 H216       -4.7917  -18.7762  -54.0586 H         1 UNK         0.0600 
    217 H217       -5.0880  -17.4417  -52.0020 H         1 UNK         0.0600 
    218 H218       -6.5174  -18.3741  -51.5567 H         1 UNK         0.0600 
    219 H219       -6.5393  -17.3425  -52.9824 H         1 UNK         0.0600 
    220 H220       -6.8205  -21.1433  -52.3400 H         1 UNK         0.3000 
    221 H221       -8.9859  -21.0727  -54.3106 H         1 UNK         0.0600 
    222 H222       -8.4551  -23.0201  -52.0041 H         1 UNK         0.0600 
    223 H223       -9.4318  -21.5554  -51.8892 H         1 UNK         0.0600 
    224 H224       -9.9409  -22.8767  -52.9298 H         1 UNK         0.0600 
    225 H225       -6.1473  -23.0569  -53.5199 H         1 UNK         0.3000 
    226 H226       -6.5228  -25.0753  -55.5298 H         1 UNK         0.0600 
    227 H227       -5.0970  -25.3446  -53.4785 H         1 UNK         0.0600 
    228 H228       -4.1847  -25.6637  -54.9470 H         1 UNK         0.0600 
    229 H229       -3.9759  -24.1361  -54.1029 H         1 UNK         0.0600 
    230 H230       -5.5391  -21.8082  -55.7458 H         1 UNK         0.3000 
    231 H231       -4.8059  -20.4290  -57.2912 H         1 UNK         0.0600 
    232 H232       -5.2674  -22.6119  -59.3903 H         1 UNK         0.0600 
    233 H233       -5.1124  -20.8864  -59.6830 H         1 UNK         0.0600 
    234 H234       -6.5008  -21.4985  -58.7994 H         1 UNK         0.0600 
    235 H235       -2.9604  -21.9047  -55.7737 H         1 UNK         0.3000 
    236 H236       -0.6628  -22.6532  -57.4247 H         1 UNK         0.0600 
    237 H237       -0.9884  -22.3074  -54.3969 H         1 UNK         0.0600 
    238 H238       -1.1688  -23.8197  -55.2828 H         1 UNK         0.0600 
    239 H239        0.3991  -23.0297  -55.2014 H         1 UNK         0.0600 
    240 H240       -1.9428  -19.7323  -56.1577 H         1 UNK         0.3000 
    241 H241        0.4540  -18.2527  -55.7317 H         1 UNK         0.0600 
    242 H242       -0.0545  -17.9269  -59.7292 H         1 UNK         0.3800 
    243 H243       -0.8552  -19.1733  -58.8076 H         1 UNK         0.3800 
    244 H244       -1.0282  -16.2820  -55.5366 H         1 UNK         0.0800 
    245 H245       -2.3510  -17.1607  -56.2567 H         1 UNK         0.0800 
    246 H246       -0.0641  -16.6361  -53.2539 H         1 UNK         0.0800 
    247 H247       -1.5565  -15.8051  -52.8672 H         1 UNK         0.0800 
@<TRIPOS>BOND
     1    1    2 1    
     2    1  127 1    
     3    1  128 1    
     4    1  129 1    
     5    2    3 2    
     6    2    4 am   BACKBONE|DICT|INTERRES
     7    4    5 1    
     8    4  130 1    
     9    5    6 1    
    10    5   65 1    
    11    5  131 1    
    12    6    7 1    
    13    6  132 1    
    14    6  133 1    
    15    7    8 1    
    16    8    9 1    
    17    8  134 1    
    18    8  135 1    
    19    9   10 ar   
    20    9   14 ar   
    21   10   11 ar   
    22   10  136 1    
    23   11   12 ar   
    24   11  126 1    
    25   12   13 ar   
    26   12  137 1    
    27   13   14 ar   
    28   13   15 1    
    29   14  138 1    
    30   15   16 1    
    31   15  139 1    
    32   15  140 1    
    33   16   17 1    
    34   17   18 1    
    35   17  141 1    
    36   17  142 1    
    37   18   19 1    
    38   18   67 1    
    39   18  143 1    
    40   19   20 am   BACKBONE|DICT|INTERRES
    41   19  144 1    
    42   20   21 2    
    43   20   22 1    
    44   22   23 1    
    45   22   24 1    
    46   22  145 1    
    47   23  146 1    
    48   23  147 1    
    49   23  148 1    
    50   24   25 am   BACKBONE|DICT|INTERRES
    51   24  149 1    
    52   25   26 2    
    53   25   27 1    
    54   27   28 1    
    55   27   29 1    
    56   27  150 1    
    57   28  151 1    
    58   28  152 1    
    59   28  153 1    
    60   29   30 am   BACKBONE|DICT|INTERRES
    61   29  154 1    
    62   30   31 2    
    63   30   32 1    
    64   32   33 1    
    65   32   34 1    
    66   32  155 1    
    67   33  156 1    
    68   33  157 1    
    69   33  158 1    
    70   34   35 am   BACKBONE|DICT|INTERRES
    71   34  159 1    
    72   35   36 2    
    73   35   37 1    
    74   37   38 1    
    75   37   39 1    
    76   37  160 1    
    77   38  161 1    
    78   38  162 1    
    79   38  163 1    
    80   39   40 am   BACKBONE|DICT|INTERRES
    81   39  164 1    
    82   40   41 2    
    83   40   42 1    
    84   42   43 1    
    85   42   44 1    
    86   42  165 1    
    87   43  166 1    
    88   43  167 1    
    89   43  168 1    
    90   44   45 am   BACKBONE|DICT|INTERRES
    91   44  169 1    
    92   45   46 2    
    93   45   47 1    
    94   47   48 1    
    95   47   49 1    
    96   47  170 1    
    97   48  171 1    
    98   48  172 1    
    99   48  173 1    
   100   49   50 am   BACKBONE|DICT|INTERRES
   101   49  174 1    
   102   50   51 2    
   103   50   52 1    
   104   52   53 1    
   105   52   54 1    
   106   52  175 1    
   107   53  176 1    
   108   53  177 1    
   109   53  178 1    
   110   54   55 am   BACKBONE|DICT|INTERRES
   111   54  179 1    
   112   55   56 2    
   113   55   57 1    
   114   57   58 1    
   115   57   59 1    
   116   57  180 1    
   117   58  181 1    
   118   58  182 1    
   119   58  183 1    
   120   59   60 am   BACKBONE|DICT|INTERRES
   121   59  184 1    
   122   60   61 2    
   123   60   62 1    
   124   62   63 1    
   125   62   64 1    
   126   62  185 1    
   127   63  186 1    
   128   63  187 1    
   129   63  188 1    
   130   64   65 am   BACKBONE|DICT|INTERRES
   131   64  189 1    
   132   65   66 2    
   133   67   68 2    
   134   67   69 am   BACKBONE|DICT|INTERRES
   135   69   70 1    
   136   69  190 1    
   137   70   71 1    
   138   70   72 1    
   139   70  191 1    
   140   71  192 1    
   141   71  193 1    
   142   71  194 1    
   143   72   73 2    
   144   72   74 am   BACKBONE|DICT|INTERRES
   145   74   75 1    
   146   74  195 1    
   147   75   76 1    
   148   75   77 1    
   149   75  196 1    
   150   76  197 1    
   151   76  198 1    
   152   76  199 1    
   153   77   78 2    
   154   77   79 am   BACKBONE|DICT|INTERRES
   155   79   80 1    
   156   79  200 1    
   157   80   81 1    
   158   80   82 1    
   159   80  201 1    
   160   81  202 1    
   161   81  203 1    
   162   81  204 1    
   163   82   83 2    
   164   82   84 am   BACKBONE|DICT|INTERRES
   165   84   85 1    
   166   84  205 1    
   167   85   86 1    
   168   85   87 1    
   169   85  206 1    
   170   86  207 1    
   171   86  208 1    
   172   86  209 1    
   173   87   88 2    
   174   87   89 am   BACKBONE|DICT|INTERRES
   175   89   90 1    
   176   89  210 1    
   177   90   91 1    
   178   90   92 1    
   179   90  211 1    
   180   91  212 1    
   181   91  213 1    
   182   91  214 1    
   183   92   93 2    
   184   92   94 am   BACKBONE|DICT|INTERRES
   185   94   95 1    
   186   94  215 1    
   187   95   96 1    
   188   95   97 1    
   189   95  216 1    
   190   96  217 1    
   191   96  218 1    
   192   96  219 1    
   193   97   98 2    
   194   97   99 am   BACKBONE|DICT|INTERRES
   195   99  100 1    
   196   99  220 1    
   197  100  101 1    
   198  100  102 1    
   199  100  221 1    
   200  101  222 1    
   201  101  223 1    
   202  101  224 1    
   203  102  103 2    
   204  102  104 am   BACKBONE|DICT|INTERRES
   205  104  105 1    
   206  104  225 1    
   207  105  106 1    
   208  105  107 1    
   209  105  226 1    
   210  106  227 1    
   211  106  228 1    
   212  106  229 1    
   213  107  108 2    
   214  107  109 am   BACKBONE|DICT|INTERRES
   215  109  110 1    
   216  109  230 1    
   217  110  111 1    
   218  110  112 1    
   219  110  231 1    
   220  111  232 1    
   221  111  233 1    
   222  111  234 1    
   223  112  113 2    
   224  112  114 am   BACKBONE|DICT|INTERRES
   225  114  115 1    
   226  114  235 1    
   227  115  116 1    
   228  115  117 1    
   229  115  236 1    
   230  116  237 1    
   231  116  238 1    
   232  116  239 1    
   233  117  118 2    
   234  117  119 am   BACKBONE|DICT|INTERRES
   235  119  120 1    
   236  119  240 1    
   237  120  121 1    
   238  120  124 1    
   239  120  241 1    
   240  121  122 am   BACKBONE|DICT|INTERRES
   241  121  123 2    
   242  122  242 1    
   243  122  243 1    
   244  124  125 1    
   245  124  244 1    
   246  124  245 1    
   247  125  126 1    
   248  126  246 1    
   249  126  247 1    
@<TRIPOS>SUBSTRUCTURE
     1 UNK         1 GROUP             0       ****    0 ROOT    
