@<TRIPOS>MOLECULE
3R540
247   249    1
SMALL
USER_CHARGES


@<TRIPOS>ATOM
      1 CA         -1.1129  -17.9257  -49.8776 C.3       0 UNK        -0.1800 
      2 C          -0.0915  -16.9723  -49.2889 C.2       0 UNK         0.5000 
      3 O           0.6172  -17.3364  -48.3525 O.2       0 UNK        -0.5000 
      4 N          -0.0376  -15.7424  -49.8209 N.am      1 UNK        -0.5000 
      5 CA          0.9046  -14.6731  -49.4428 C.3       1 UNK         0.1400 
      6 C6          2.3557  -14.9484  -49.9343 C.3       23 UNK        -0.0398 
      7 S7          2.4763  -15.1723  -51.7479 S.3       23 UNK        -0.2404 
      8 C8          3.5632  -16.6310  -51.9127 C.3       23 UNK        -0.0205 
      9 C9          2.8281  -17.9266  -51.6041 C.ar      23 UNK        -0.0193 
     10 C10         2.0185  -18.5275  -52.5719 C.ar      23 UNK        -0.1150 
     11 C11         1.2624  -19.6635  -52.2635 C.ar      23 UNK        -0.0193 
     12 C12         1.3478  -20.2170  -50.9815 C.ar      23 UNK        -0.1150 
     13 C13         2.1761  -19.6383  -50.0141 C.ar      23 UNK        -0.0193 
     14 C14         2.9280  -18.5067  -50.3386 C.ar      23 UNK        -0.1150 
     15 C15         2.1635  -20.1418  -48.5805 C.3       23 UNK        -0.0205 
     16 S16         2.8152  -21.8295  -48.3906 S.3       23 UNK        -0.2404 
     17 C17         2.5350  -22.0415  -46.5921 C.3       23 UNK        -0.0398 
     18 CA          1.2621  -22.8167  -46.1439 C.3       11 UNK         0.1400 
     19 N           0.9457  -22.5422  -44.7393 N.am      11 UNK        -0.5000 
     20 C           0.0174  -23.1826  -44.0144 C.2       10 UNK         0.5000 
     21 O          -0.6298  -24.1468  -44.4256 O.2       10 UNK        -0.5000 
     22 CA         -0.2726  -22.6090  -42.6149 C.3       10 UNK         0.1400 
     23 CB          0.7970  -23.0546  -41.6067 C.3       10 UNK        -0.1800 
     24 N          -0.3664  -21.1468  -42.6209 N.am      10 UNK        -0.5000 
     25 C          -1.3164  -20.4523  -43.2639 C.2       9 UNK         0.5000 
     26 O          -2.2532  -20.9813  -43.8632 O.2       9 UNK        -0.5000 
     27 CA         -1.1752  -18.9154  -43.2804 C.3       9 UNK         0.1400 
     28 CB         -1.7341  -18.2955  -41.9919 C.3       9 UNK        -0.1800 
     29 N           0.2032  -18.4625  -43.4845 N.am      9 UNK        -0.5000 
     30 C           0.9278  -18.7181  -44.5837 C.2       8 UNK         0.5000 
     31 O           0.5008  -19.3432  -45.5491 O.2       8 UNK        -0.5000 
     32 CA          2.3977  -18.2709  -44.5777 C.3       8 UNK         0.1400 
     33 CB          2.5305  -16.7805  -44.9143 C.3       8 UNK        -0.1800 
     34 N           3.0404  -18.5597  -43.2974 N.am      8 UNK        -0.5000 
     35 C           3.3046  -19.7971  -42.8530 C.2       7 UNK         0.5000 
     36 O           3.0769  -20.8211  -43.4983 O.2       7 UNK        -0.5000 
     37 CA          3.8734  -19.9061  -41.4272 C.3       7 UNK         0.1400 
     38 CB          5.3927  -19.6813  -41.4295 C.3       7 UNK        -0.1800 
     39 N           3.2420  -18.9624  -40.5029 N.am      7 UNK        -0.5000 
     40 C           1.9550  -19.0168  -40.1314 C.2       6 UNK         0.5000 
     41 O           1.1737  -19.8914  -40.5032 O.2       6 UNK        -0.5000 
     42 CA          1.4457  -17.8792  -39.2285 C.3       6 UNK         0.1400 
     43 CB          1.6938  -18.2117  -37.7498 C.3       6 UNK        -0.1800 
     44 N           2.0438  -16.5786  -39.5422 N.am      6 UNK        -0.5000 
     45 C           1.8675  -15.9190  -40.6943 C.2       5 UNK         0.5000 
     46 O           1.2140  -16.3586  -41.6438 O.2       5 UNK        -0.5000 
     47 CA          2.5664  -14.5552  -40.8193 C.3       5 UNK         0.1400 
     48 CB          3.7253  -14.6220  -41.8257 C.3       5 UNK        -0.1800 
     49 N           1.6218  -13.5245  -41.2415 N.am      5 UNK        -0.5000 
     50 C           0.7165  -12.9465  -40.4419 C.2       4 UNK         0.5000 
     51 O           0.6155  -13.2134  -39.2431 O.2       4 UNK        -0.5000 
     52 CA         -0.2548  -11.9162  -41.0619 C.3       4 UNK         0.1400 
     53 CB         -0.2147  -10.5715  -40.3074 C.3       4 UNK        -0.1800 
     54 N          -0.1206  -11.7088  -42.5112 N.am      4 UNK        -0.5000 
     55 C           0.8826  -11.1451  -43.1986 C.2       3 UNK         0.5000 
     56 O           1.9191  -10.7294  -42.6795 O.2       3 UNK        -0.5000 
     57 CA          0.6977  -11.0822  -44.7323 C.3       3 UNK         0.1400 
     58 CB          1.8836  -10.4109  -45.4480 C.3       3 UNK        -0.1800 
     59 N           0.4946  -12.4100  -45.3163 N.am      3 UNK        -0.5000 
     60 C          -0.6210  -13.1447  -45.2491 C.2       2 UNK         0.5000 
     61 O          -1.6589  -12.7523  -44.7117 O.2       2 UNK        -0.5000 
     62 CA         -0.5427  -14.5523  -45.8659 C.3       2 UNK         0.1400 
     63 CB         -1.7822  -15.4144  -45.5665 C.3       2 UNK        -0.1800 
     64 N          -0.3242  -14.5266  -47.3109 N.am      2 UNK        -0.5000 
     65 C           0.8523  -14.3358  -47.9265 C.2       1 UNK         0.5000 
     66 O           1.8653  -13.9539  -47.3356 O.2       1 UNK        -0.5000 
     67 C           0.0239  -22.5956  -47.0427 C.2       11 UNK         0.5000 
     68 O          -0.2776  -23.4555  -47.8661 O.2       11 UNK        -0.5000 
     69 N          -0.6951  -21.4826  -46.8413 N.am      12 UNK        -0.5000 
     70 CA         -1.8970  -21.1077  -47.5857 C.3       12 UNK         0.1400 
     71 CB         -2.3610  -19.7110  -47.1421 C.3       12 UNK        -0.1800 
     72 C          -3.0403  -22.1247  -47.4387 C.2       12 UNK         0.5000 
     73 O          -3.7082  -22.4367  -48.4264 O.2       12 UNK        -0.5000 
     74 N          -3.2198  -22.6451  -46.2175 N.am      13 UNK        -0.5000 
     75 CA         -4.1698  -23.7099  -45.9048 C.3       13 UNK         0.1400 
     76 CB         -4.2731  -23.8724  -44.3808 C.3       13 UNK        -0.1800 
     77 C          -3.7992  -25.0438  -46.5796 C.2       13 UNK         0.5000 
     78 O          -4.6801  -25.7110  -47.1225 O.2       13 UNK        -0.5000 
     79 N          -2.5054  -25.3942  -46.5573 N.am      14 UNK        -0.5000 
     80 CA         -1.9624  -26.6018  -47.1828 C.3       14 UNK         0.1400 
     81 CB         -0.5310  -26.8377  -46.6763 C.3       14 UNK        -0.1800 
     82 C          -1.9982  -26.5511  -48.7228 C.2       14 UNK         0.5000 
     83 O          -2.3460  -27.5478  -49.3570 O.2       14 UNK        -0.5000 
     84 N          -1.6486  -25.3910  -49.2933 N.am      15 UNK        -0.5000 
     85 CA         -1.6245  -25.1268  -50.7333 C.3       15 UNK         0.1400 
     86 CB         -0.7930  -23.8585  -50.9933 C.3       15 UNK        -0.1800 
     87 C          -3.0229  -24.9678  -51.3572 C.2       15 UNK         0.5000 
     88 O          -3.1425  -25.0792  -52.5776 O.2       15 UNK        -0.5000 
     89 N          -4.0340  -24.6873  -50.5201 N.am      16 UNK        -0.5000 
     90 CA         -5.4044  -24.3100  -50.8753 C.3       16 UNK         0.1400 
     91 CB         -6.1406  -25.4547  -51.6026 C.3       16 UNK        -0.1800 
     92 C          -5.4088  -22.9857  -51.6603 C.2       16 UNK         0.5000 
     93 O          -5.8339  -22.9380  -52.8155 O.2       16 UNK        -0.5000 
     94 N          -4.8955  -21.9328  -51.0113 N.am      17 UNK        -0.5000 
     95 CA         -4.6259  -20.6070  -51.5755 C.3       17 UNK         0.1400 
     96 CB         -4.0519  -19.7144  -50.4733 C.3       17 UNK        -0.1800 
     97 C          -5.8093  -19.9036  -52.2659 C.2       17 UNK         0.5000 
     98 O          -5.5798  -19.0807  -53.1532 O.2       17 UNK        -0.5000 
     99 N          -7.0426  -20.2413  -51.8691 N.am      18 UNK        -0.5000 
    100 CA        -8.2725  -19.7627  -52.5012 C.3       18 UNK         0.1400 
    101 CB        -9.4577  -20.0362  -51.5630 C.3       18 UNK        -0.1800 
    102 C         -8.5218  -20.3973  -53.8844 C.2       18 UNK         0.5000 
    103 O         -9.0874  -19.7378  -54.7567 O.2       18 UNK        -0.5000 
    104 N         -8.0928  -21.6542  -54.0635 N.am      19 UNK        -0.5000 
    105 CA        -8.1938  -22.4005  -55.3179 C.3       19 UNK         0.1400 
    106 CB        -8.3664  -23.8963  -55.0091 C.3       19 UNK        -0.1800 
    107 C         -6.9585  -22.1662  -56.2024 C.2       19 UNK         0.5000 
    108 O         -7.0978  -22.0318  -57.4184 O.2       19 UNK        -0.5000 
    109 N         -5.7759  -22.0917  -55.5740 N.am      20 UNK        -0.5000 
    110 CA        -4.4977  -21.7869  -56.2240 C.3       20 UNK         0.1400 
    111 CB        -3.3531  -22.1775  -55.2771 C.3       20 UNK        -0.1800 
    112 C         -4.3685  -20.3114  -56.6601 C.2       20 UNK         0.5000 
    113 O         -3.5123  -20.0011  -57.4884 O.2       20 UNK        -0.5000 
    114 N         -5.2198  -19.4413  -56.0970 N.am      21 UNK        -0.5000 
    115 CA        -5.3572  -18.0024  -56.3471 C.3       21 UNK         0.1400 
    116 CB        -5.6928  -17.7194  -57.8265 C.3       21 UNK        -0.1800 
    117 C         -4.1818  -17.1490  -55.8252 C.2       21 UNK         0.5000 
    118 O         -4.0659  -15.9821  -56.2046 O.2       21 UNK        -0.5000 
    119 N         -3.3544  -17.7214  -54.9428 N.am      22 UNK        -0.5000 
    120 CA        -2.2887  -17.0221  -54.2080 C.3       22 UNK         0.1400 
    121 C         -2.7613  -16.3584  -52.8800 C.2       22 UNK         0.5000 
    122 N         -3.9959  -16.5648  -52.4364 N.am      22 UNK        -0.7600 
    123 O         -2.0010  -15.6257  -52.2504 O.2       22 UNK        -0.5000 
    124 C124       -1.0293  -17.9071  -54.0203 C.3       23 UNK        -0.0398 
    125 S125       -1.3341  -19.5429  -53.2619 S.3       23 UNK        -0.2404 
    126 C126        0.3355  -20.2763  -53.3054 C.3       23 UNK        -0.0205 
    127 H127       -0.8647  -18.9568  -49.6313 H         1 UNK         0.0600 
    128 H128       -1.1323  -17.8397  -50.9605 H         1 UNK         0.0600 
    129 H129       -2.1046  -17.7004  -49.4878 H         1 UNK         0.0600 
    130 H130       -0.6531  -15.5269  -50.5991 H         1 UNK         0.3000 
    131 H131        0.5531  -13.7741  -49.9508 H         1 UNK         0.0600 
    132 H132        3.0098  -14.1142  -49.6755 H         1 UNK         0.0800 
    133 H133        2.7649  -15.8191  -49.4226 H         1 UNK         0.0800 
    134 H134        3.9461  -16.6690  -52.9335 H         1 UNK         0.0800 
    135 H135        4.4346  -16.5154  -51.2663 H         1 UNK         0.0800 
    136 H136        1.9493  -18.0859  -53.5557 H         1 UNK         0.1150 
    137 H137        0.7450  -21.0766  -50.7236 H         1 UNK         0.1150 
    138 H138        3.5432  -18.0393  -49.5833 H         1 UNK         0.1150 
    139 H139        2.7314  -19.4682  -47.9370 H         1 UNK         0.0800 
    140 H140        1.1368  -20.0968  -48.2202 H         1 UNK         0.0800 
    141 H141        2.5348  -21.0502  -46.1413 H         1 UNK         0.0800 
    142 H142        3.4139  -22.5351  -46.1756 H         1 UNK         0.0800 
    143 H143        1.4979  -23.8807  -46.2123 H         1 UNK         0.0600 
    144 H144        1.4558  -21.7803  -44.3051 H         1 UNK         0.3000 
    145 H145       -1.2354  -23.0061  -42.2865 H         1 UNK         0.0600 
    146 H146        0.8755  -24.1420  -41.5753 H         1 UNK         0.0600 
    147 H147        1.7812  -22.6603  -41.8607 H         1 UNK         0.0600 
    148 H148        0.5526  -22.7165  -40.5996 H         1 UNK         0.0600 
    149 H149        0.3330  -20.6408  -42.0852 H         1 UNK         0.3000 
    150 H150       -1.7677  -18.5396  -44.1168 H         1 UNK         0.0600 
    151 H151       -1.6799  -17.2069  -42.0220 H         1 UNK         0.0600 
    152 H152       -1.1875  -18.6337  -41.1120 H         1 UNK         0.0600 
    153 H153       -2.7811  -18.5668  -41.8520 H         1 UNK         0.0600 
    154 H154        0.6187  -17.9072  -42.7429 H         1 UNK         0.3000 
    155 H155        2.9235  -18.8311  -45.3531 H         1 UNK         0.0600 
    156 H156        2.1241  -16.5744  -45.9057 H         1 UNK         0.0600 
    157 H157        3.5741  -16.4662  -44.9215 H         1 UNK         0.0600 
    158 H158        1.9940  -16.1568  -44.2006 H         1 UNK         0.0600 
    159 H159        3.2109  -17.7765  -42.6853 H         1 UNK         0.3000 
    160 H160        3.6775  -20.9183  -41.0669 H         1 UNK         0.0600 
    161 H161        5.8893  -20.3831  -42.1010 H         1 UNK         0.0600 
    162 H162        5.8145  -19.8310  -40.4355 H         1 UNK         0.0600 
    163 H163        5.6525  -18.6738  -41.7567 H         1 UNK         0.0600 
    164 H164        3.8163  -18.2128  -40.1469 H         1 UNK         0.3000 
    165 H165        0.3678  -17.7954  -39.3807 H         1 UNK         0.0600 
    166 H166        1.2587  -17.4548  -37.0970 H         1 UNK         0.0600 
    167 H167        1.2404  -19.1676  -37.4836 H         1 UNK         0.0600 
    168 H168        2.7587  -18.2792  -37.5239 H         1 UNK         0.0600 
    169 H169        2.5916  -16.1486  -38.8107 H         1 UNK         0.3000 
    170 H170        2.9801  -14.2750  -39.8480 H         1 UNK         0.0600 
    171 H171        4.2767  -13.6818  -41.8489 H         1 UNK         0.0600 
    172 H172        4.4340  -15.4070  -41.5588 H         1 UNK         0.0600 
    173 H173        3.3739  -14.8233  -42.8370 H         1 UNK         0.0600 
    174 H174        1.6353  -13.2631  -42.2152 H         1 UNK         0.3000 
    175 H175       -1.2520  -12.3357  -40.9222 H         1 UNK         0.0600 
    176 H176        0.7734  -10.1125  -40.3457 H         1 UNK         0.0600 
    177 H177       -0.9312   -9.8634  -40.7238 H         1 UNK         0.0600 
    178 H178       -0.4684  -10.7054  -39.2551 H         1 UNK         0.0600 
    179 H179       -0.8976  -12.0557  -43.0678 H         1 UNK         0.3000 
    180 H180       -0.1909  -10.4774  -44.9245 H         1 UNK         0.0600 
    181 H181        1.7011  -10.3288  -46.5196 H         1 UNK         0.0600 
    182 H182        2.8082  -10.9726  -45.3085 H         1 UNK         0.0600 
    183 H183        2.0497   -9.4013  -45.0700 H         1 UNK         0.0600 
    184 H184        1.2814  -12.8107  -45.8183 H         1 UNK         0.3000 
    185 H185        0.3076  -15.0487  -45.3989 H         1 UNK         0.0600 
    186 H186       -2.6833  -14.9983  -46.0183 H         1 UNK         0.0600 
    187 H187       -1.6535  -16.4297  -45.9440 H         1 UNK         0.0600 
    188 H188       -1.9551  -15.4915  -44.4921 H         1 UNK         0.0600 
    189 H189       -1.1033  -14.8201  -47.8815 H         1 UNK         0.3000 
    190 H190       -0.3411  -20.7877  -46.1857 H         1 UNK         0.3000 
    191 H191       -1.6179  -21.0678  -48.6394 H         1 UNK         0.0600 
    192 H192       -2.6855  -19.7039  -46.1028 H         1 UNK         0.0600 
    193 H193       -3.2016  -19.3640  -47.7413 H         1 UNK         0.0600 
    194 H194       -1.5632  -18.9758  -47.2416 H         1 UNK         0.0600 
    195 H195       -2.6564  -22.2903  -45.4520 H         1 UNK         0.3000 
    196 H196       -5.1492  -23.4067  -46.2808 H         1 UNK         0.0600 
    197 H197       -4.9984  -24.6435  -44.1185 H         1 UNK         0.0600 
    198 H198       -4.5969  -22.9451  -43.9077 H         1 UNK         0.0600 
    199 H199       -3.3175  -24.1551  -43.9384 H         1 UNK         0.0600 
    200 H200       -1.8458  -24.7966  -46.0713 H         1 UNK         0.3000 
    201 H201       -2.5745  -27.4487  -46.8653 H         1 UNK         0.0600 
    202 H202       -0.5098  -26.9435  -45.5914 H         1 UNK         0.0600 
    203 H203        0.1328  -26.0151  -46.9434 H         1 UNK         0.0600 
    204 H204       -0.1115  -27.7502  -47.1015 H         1 UNK         0.0600 
    205 H205       -1.3031  -24.6404  -48.6958 H         1 UNK         0.3000 
    206 H206       -1.1342  -25.9671  -51.2290 H         1 UNK         0.0600 
    207 H207       -0.7207  -23.6468  -52.0609 H         1 UNK         0.0600 
    208 H208       -1.2373  -22.9838  -50.5157 H         1 UNK         0.0600 
    209 H209        0.2235  -23.9661  -50.6142 H         1 UNK         0.0600 
    210 H210       -3.7994  -24.5832  -49.5418 H         1 UNK         0.3000 
    211 H211       -5.9282  -24.1245  -49.9364 H         1 UNK         0.0600 
    212 H212       -5.7067  -25.6699  -52.5793 H         1 UNK         0.0600 
    213 H213       -7.1880  -25.1980  -51.7650 H         1 UNK         0.0600 
    214 H214       -6.1168  -26.3726  -51.0154 H         1 UNK         0.0600 
    215 H215       -4.5440  -22.0889  -50.0687 H         1 UNK         0.3000 
    216 H216       -3.8548  -20.7378  -52.3325 H         1 UNK         0.0600 
    217 H217       -3.8613  -18.7069  -50.8383 H         1 UNK         0.0600 
    218 H218       -3.1015  -20.1094  -50.1214 H         1 UNK         0.0600 
    219 H219       -4.7304  -19.6368  -49.6233 H         1 UNK         0.0600 
    220 H220       -7.1398  -20.9155  -51.1245 H         1 UNK         0.3000 
    221 H221       -8.1908  -18.6825  -52.6409 H         1 UNK         0.0600 
    222 H222       -9.5823  -21.1026  -51.3709 H         1 UNK         0.0600 
    223 H223       -9.3253  -19.5348  -50.6041 H         1 UNK         0.0600 
    224 H224      -10.3898  -19.6690  -51.9946 H         1 UNK         0.0600 
    225 H225       -7.5600  -22.1005  -53.3252 H         1 UNK         0.3000 
    226 H226       -9.0747  -22.0682  -55.8716 H         1 UNK         0.0600 
    227 H227       -9.2582  -24.0732  -54.4078 H         1 UNK         0.0600 
    228 H228       -8.4739  -24.4733  -55.9284 H         1 UNK         0.0600 
    229 H229       -7.5116  -24.3014  -54.4665 H         1 UNK         0.0600 
    230 H230       -5.7476  -22.2846  -54.5757 H         1 UNK         0.3000 
    231 H231       -4.4177  -22.4004  -57.1236 H         1 UNK         0.0600 
    232 H232       -3.3803  -21.5976  -54.3569 H         1 UNK         0.0600 
    233 H233       -3.4048  -23.2326  -55.0065 H         1 UNK         0.0600 
    234 H234       -2.3815  -22.0067  -55.7424 H         1 UNK         0.0600 
    235 H235       -5.8323  -19.8020  -55.3781 H         1 UNK         0.3000 
    236 H236       -6.2214  -17.6924  -55.7579 H         1 UNK         0.0600 
    237 H237       -4.8440  -17.9180  -58.4811 H         1 UNK         0.0600 
    238 H238       -6.5294  -18.3310  -58.1647 H         1 UNK         0.0600 
    239 H239       -5.9765  -16.6764  -57.9708 H         1 UNK         0.0600 
    240 H240       -3.5429  -18.6704  -54.6539 H         1 UNK         0.3000 
    241 H241       -1.9626  -16.1802  -54.8214 H         1 UNK         0.0600 
    242 H242       -4.6125  -17.2130  -52.9100 H         1 UNK         0.3800 
    243 H243       -4.2982  -16.1102  -51.5908 H         1 UNK         0.3800 
    244 H244       -0.5673  -18.0753  -54.9938 H         1 UNK         0.0800 
    245 H245       -0.2874  -17.3703  -53.4289 H         1 UNK         0.0800 
    246 H246        0.7604  -20.1657  -54.3041 H         1 UNK         0.0800 
    247 H247        0.2479  -21.3497  -53.1314 H         1 UNK         0.0800 
@<TRIPOS>BOND
     1    1    2 1    
     2    1  127 1    
     3    1  128 1    
     4    1  129 1    
     5    2    3 2    
     6    2    4 am   BACKBONE|DICT|INTERRES
     7    4    5 1    
     8    4  130 1    
     9    5    6 1    
    10    5   65 1    
    11    5  131 1    
    12    6    7 1    
    13    6  132 1    
    14    6  133 1    
    15    7    8 1    
    16    8    9 1    
    17    8  134 1    
    18    8  135 1    
    19    9   10 ar   
    20    9   14 ar   
    21   10   11 ar   
    22   10  136 1    
    23   11   12 ar   
    24   11  126 1    
    25   12   13 ar   
    26   12  137 1    
    27   13   14 ar   
    28   13   15 1    
    29   14  138 1    
    30   15   16 1    
    31   15  139 1    
    32   15  140 1    
    33   16   17 1    
    34   17   18 1    
    35   17  141 1    
    36   17  142 1    
    37   18   19 1    
    38   18   67 1    
    39   18  143 1    
    40   19   20 am   BACKBONE|DICT|INTERRES
    41   19  144 1    
    42   20   21 2    
    43   20   22 1    
    44   22   23 1    
    45   22   24 1    
    46   22  145 1    
    47   23  146 1    
    48   23  147 1    
    49   23  148 1    
    50   24   25 am   BACKBONE|DICT|INTERRES
    51   24  149 1    
    52   25   26 2    
    53   25   27 1    
    54   27   28 1    
    55   27   29 1    
    56   27  150 1    
    57   28  151 1    
    58   28  152 1    
    59   28  153 1    
    60   29   30 am   BACKBONE|DICT|INTERRES
    61   29  154 1    
    62   30   31 2    
    63   30   32 1    
    64   32   33 1    
    65   32   34 1    
    66   32  155 1    
    67   33  156 1    
    68   33  157 1    
    69   33  158 1    
    70   34   35 am   BACKBONE|DICT|INTERRES
    71   34  159 1    
    72   35   36 2    
    73   35   37 1    
    74   37   38 1    
    75   37   39 1    
    76   37  160 1    
    77   38  161 1    
    78   38  162 1    
    79   38  163 1    
    80   39   40 am   BACKBONE|DICT|INTERRES
    81   39  164 1    
    82   40   41 2    
    83   40   42 1    
    84   42   43 1    
    85   42   44 1    
    86   42  165 1    
    87   43  166 1    
    88   43  167 1    
    89   43  168 1    
    90   44   45 am   BACKBONE|DICT|INTERRES
    91   44  169 1    
    92   45   46 2    
    93   45   47 1    
    94   47   48 1    
    95   47   49 1    
    96   47  170 1    
    97   48  171 1    
    98   48  172 1    
    99   48  173 1    
   100   49   50 am   BACKBONE|DICT|INTERRES
   101   49  174 1    
   102   50   51 2    
   103   50   52 1    
   104   52   53 1    
   105   52   54 1    
   106   52  175 1    
   107   53  176 1    
   108   53  177 1    
   109   53  178 1    
   110   54   55 am   BACKBONE|DICT|INTERRES
   111   54  179 1    
   112   55   56 2    
   113   55   57 1    
   114   57   58 1    
   115   57   59 1    
   116   57  180 1    
   117   58  181 1    
   118   58  182 1    
   119   58  183 1    
   120   59   60 am   BACKBONE|DICT|INTERRES
   121   59  184 1    
   122   60   61 2    
   123   60   62 1    
   124   62   63 1    
   125   62   64 1    
   126   62  185 1    
   127   63  186 1    
   128   63  187 1    
   129   63  188 1    
   130   64   65 am   BACKBONE|DICT|INTERRES
   131   64  189 1    
   132   65   66 2    
   133   67   68 2    
   134   67   69 am   BACKBONE|DICT|INTERRES
   135   69   70 1    
   136   69  190 1    
   137   70   71 1    
   138   70   72 1    
   139   70  191 1    
   140   71  192 1    
   141   71  193 1    
   142   71  194 1    
   143   72   73 2    
   144   72   74 am   BACKBONE|DICT|INTERRES
   145   74   75 1    
   146   74  195 1    
   147   75   76 1    
   148   75   77 1    
   149   75  196 1    
   150   76  197 1    
   151   76  198 1    
   152   76  199 1    
   153   77   78 2    
   154   77   79 am   BACKBONE|DICT|INTERRES
   155   79   80 1    
   156   79  200 1    
   157   80   81 1    
   158   80   82 1    
   159   80  201 1    
   160   81  202 1    
   161   81  203 1    
   162   81  204 1    
   163   82   83 2    
   164   82   84 am   BACKBONE|DICT|INTERRES
   165   84   85 1    
   166   84  205 1    
   167   85   86 1    
   168   85   87 1    
   169   85  206 1    
   170   86  207 1    
   171   86  208 1    
   172   86  209 1    
   173   87   88 2    
   174   87   89 am   BACKBONE|DICT|INTERRES
   175   89   90 1    
   176   89  210 1    
   177   90   91 1    
   178   90   92 1    
   179   90  211 1    
   180   91  212 1    
   181   91  213 1    
   182   91  214 1    
   183   92   93 2    
   184   92   94 am   BACKBONE|DICT|INTERRES
   185   94   95 1    
   186   94  215 1    
   187   95   96 1    
   188   95   97 1    
   189   95  216 1    
   190   96  217 1    
   191   96  218 1    
   192   96  219 1    
   193   97   98 2    
   194   97   99 am   BACKBONE|DICT|INTERRES
   195   99  100 1    
   196   99  220 1    
   197  100  101 1    
   198  100  102 1    
   199  100  221 1    
   200  101  222 1    
   201  101  223 1    
   202  101  224 1    
   203  102  103 2    
   204  102  104 am   BACKBONE|DICT|INTERRES
   205  104  105 1    
   206  104  225 1    
   207  105  106 1    
   208  105  107 1    
   209  105  226 1    
   210  106  227 1    
   211  106  228 1    
   212  106  229 1    
   213  107  108 2    
   214  107  109 am   BACKBONE|DICT|INTERRES
   215  109  110 1    
   216  109  230 1    
   217  110  111 1    
   218  110  112 1    
   219  110  231 1    
   220  111  232 1    
   221  111  233 1    
   222  111  234 1    
   223  112  113 2    
   224  112  114 am   BACKBONE|DICT|INTERRES
   225  114  115 1    
   226  114  235 1    
   227  115  116 1    
   228  115  117 1    
   229  115  236 1    
   230  116  237 1    
   231  116  238 1    
   232  116  239 1    
   233  117  118 2    
   234  117  119 am   BACKBONE|DICT|INTERRES
   235  119  120 1    
   236  119  240 1    
   237  120  121 1    
   238  120  124 1    
   239  120  241 1    
   240  121  122 am   BACKBONE|DICT|INTERRES
   241  121  123 2    
   242  122  242 1    
   243  122  243 1    
   244  124  125 1    
   245  124  244 1    
   246  124  245 1    
   247  125  126 1    
   248  126  246 1    
   249  126  247 1    
@<TRIPOS>SUBSTRUCTURE
     1 UNK         1 GROUP             0       ****    0 ROOT    
