@<TRIPOS>MOLECULE
3R540
247   249    1
SMALL
USER_CHARGES


@<TRIPOS>ATOM
      1 CA          2.6232  -15.6843  -53.2080 C.3       0 UNK        -0.1800 
      2 C           3.0019  -14.4197  -52.4496 C.2       0 UNK         0.5000 
      3 O           2.7846  -13.3157  -52.9486 O.2       0 UNK        -0.5000 
      4 N           3.5754  -14.5836  -51.2507 N.am      1 UNK        -0.5000 
      5 CA          3.9534  -13.5145  -50.3191 C.3       1 UNK         0.1400 
      6 C6          4.8323  -14.0354  -49.1466 C.3       23 UNK        -0.0398 
      7 S7          4.2228  -15.5772  -48.3637 S.3       23 UNK        -0.2404 
      8 C8          5.2913  -16.8265  -49.1507 C.3       23 UNK        -0.0205 
      9 C9          4.5559  -18.1404  -49.3681 C.ar      23 UNK        -0.0193 
     10 C10         3.5075  -18.2038  -50.2896 C.ar      23 UNK        -0.1150 
     11 C11         2.8299  -19.4015  -50.5235 C.ar      23 UNK        -0.0193 
     12 C12         3.2301  -20.5551  -49.8454 C.ar      23 UNK        -0.1150 
     13 C13         4.2785  -20.5108  -48.9206 C.ar      23 UNK        -0.0193 
     14 C14         4.9336  -19.2980  -48.6802 C.ar      23 UNK        -0.1150 
     15 C15         4.7167  -21.7784  -48.2000 C.3       23 UNK        -0.0205 
     16 S16         3.9079  -21.9614  -46.5799 S.3       23 UNK        -0.2404 
     17 C17         2.1678  -22.2210  -47.0616 C.3       23 UNK        -0.0398 
     18 CA          1.4372  -23.2615  -46.1842 C.3       11 UNK         0.1400 
     19 N           1.4728  -22.9174  -44.7608 N.am      11 UNK        -0.5000 
     20 C           1.1991  -23.7481  -43.7477 C.2       10 UNK         0.5000 
     21 O           0.9234  -24.9375  -43.9101 O.2       10 UNK        -0.5000 
     22 CA          1.1696  -23.1325  -42.3318 C.3       10 UNK         0.1400 
     23 CB          1.5813  -24.1337  -41.2329 C.3       10 UNK        -0.1800 
     24 N           1.9154  -21.8726  -42.2215 N.am      10 UNK        -0.5000 
     25 C           3.2410  -21.6861  -42.3227 C.2       9 UNK         0.5000 
     26 O           4.0505  -22.6017  -42.4733 O.2       9 UNK        -0.5000 
     27 CA          3.7615  -20.2330  -42.2627 C.3       9 UNK         0.1400 
     28 CB          4.3738  -19.8227  -43.6111 C.3       9 UNK        -0.1800 
     29 N           2.7365  -19.2513  -41.9028 N.am      9 UNK        -0.5000 
     30 C           2.2575  -19.0479  -40.6689 C.2       8 UNK         0.5000 
     31 O           2.6697  -19.6371  -39.6694 O.2       8 UNK        -0.5000 
     32 CA          1.0937  -18.0453  -40.5379 C.3       8 UNK         0.1400 
     33 CB          1.6247  -16.6115  -40.3913 C.3       8 UNK        -0.1800 
     34 N           0.1502  -18.1060  -41.6588 N.am      8 UNK        -0.5000 
     35 C          -0.6033  -19.1728  -41.9630 C.2       7 UNK         0.5000 
     36 O          -0.5953  -20.2209  -41.3174 O.2       7 UNK        -0.5000 
     37 CA         -1.4702  -19.0808  -43.2309 C.3       7 UNK         0.1400 
     38 CB         -2.7489  -18.2701  -42.9771 C.3       7 UNK        -0.1800 
     39 N          -0.7424  -18.5286  -44.3735 N.am      7 UNK        -0.5000 
     40 C           0.3102  -19.1222  -44.9532 C.2       6 UNK         0.5000 
     41 O           0.7262  -20.2317  -44.6246 O.2       6 UNK        -0.5000 
     42 CA          1.0502  -18.3380  -46.0503 C.3       6 UNK         0.1400 
     43 CB          0.3409  -18.4826  -47.4018 C.3       6 UNK        -0.1800 
     44 N           1.1943  -16.9203  -45.7268 N.am      6 UNK        -0.5000 
     45 C           1.8755  -16.4431  -44.6762 C.2       5 UNK         0.5000 
     46 O           2.5084  -17.1480  -43.8917 O.2       5 UNK        -0.5000 
     47 CA          1.7716  -14.9315  -44.4162 C.3       5 UNK         0.1400 
     48 CB          2.7174  -14.1395  -45.3298 C.3       5 UNK        -0.1800 
     49 N           0.4003  -14.4479  -44.5778 N.am      5 UNK        -0.5000 
     50 C          -0.6090  -14.7585  -43.7519 C.2       4 UNK         0.5000 
     51 O          -0.4778  -15.4512  -42.7433 O.2       4 UNK        -0.5000 
     52 CA         -2.0046  -14.2362  -44.1369 C.3       4 UNK         0.1400 
     53 CB         -2.2015  -12.7984  -43.6340 C.3       4 UNK        -0.1800 
     54 N          -2.2425  -14.2819  -45.5799 N.am      4 UNK        -0.5000 
     55 C          -2.3770  -15.4102  -46.2920 C.2       3 UNK         0.5000 
     56 O          -2.3455  -16.5373  -45.8006 O.2       3 UNK        -0.5000 
     57 CA         -2.5214  -15.2436  -47.8163 C.3       3 UNK         0.1400 
     58 CB         -3.9807  -14.9478  -48.1896 C.3       3 UNK        -0.1800 
     59 N          -1.6586  -14.1862  -48.3517 N.am      3 UNK        -0.5000 
     60 C          -0.3216  -14.2206  -48.3094 C.2       2 UNK         0.5000 
     61 O           0.3235  -15.1474  -47.8133 O.2       2 UNK        -0.5000 
     62 CA          0.4211  -12.9946  -48.8519 C.3       2 UNK         0.1400 
     63 CB          0.5158  -11.9139  -47.7539 C.3       2 UNK        -0.1800 
     64 N           1.7387  -13.4470  -49.2862 N.am      2 UNK        -0.5000 
     65 C           2.7206  -12.7227  -49.8319 C.2       1 UNK         0.5000 
     66 O           2.6708  -11.5040  -50.0045 O.2       1 UNK        -0.5000 
     67 C          -0.0133  -23.4325  -46.6783 C.2       11 UNK         0.5000 
     68 O          -0.2489  -24.1915  -47.6182 O.2       11 UNK        -0.5000 
     69 N          -0.9689  -22.7711  -46.0066 N.am      12 UNK        -0.5000 
     70 CA         -2.4152  -22.8610  -46.2412 C.3       12 UNK         0.1400 
     71 CB         -3.1159  -21.7479  -45.4473 C.3       12 UNK        -0.1800 
     72 C          -3.0338  -24.2446  -45.9292 C.2       12 UNK         0.5000 
     73 O          -4.2275  -24.4396  -46.1555 O.2       12 UNK        -0.5000 
     74 N          -2.2260  -25.1894  -45.4275 N.am      13 UNK        -0.5000 
     75 CA         -2.5611  -26.6112  -45.3656 C.3       13 UNK         0.1400 
     76 CB         -1.6051  -27.3046  -44.3834 C.3       13 UNK        -0.1800 
     77 C          -2.4955  -27.2892  -46.7520 C.2       13 UNK         0.5000 
     78 O          -3.1738  -28.2967  -46.9565 O.2       13 UNK        -0.5000 
     79 N          -1.6855  -26.7372  -47.6679 N.am      14 UNK        -0.5000 
     80 CA         -1.5005  -27.2202  -49.0361 C.3       14 UNK         0.1400 
     81 CB         -0.0019  -27.4500  -49.2903 C.3       14 UNK        -0.1800 
     82 C          -2.0775  -26.2259  -50.0574 C.2       14 UNK         0.5000 
     83 O          -2.7804  -26.6448  -50.9784 O.2       14 UNK        -0.5000 
     84 N          -1.7813  -24.9309  -49.8797 N.am      15 UNK        -0.5000 
     85 CA         -2.3268  -23.8335  -50.6796 C.3       15 UNK         0.1400 
     86 CB         -1.4675  -22.5798  -50.4544 C.3       15 UNK        -0.1800 
     87 C          -3.7966  -23.5500  -50.3196 C.2       15 UNK         0.5000 
     88 O          -4.2301  -23.8733  -49.2131 O.2       15 UNK        -0.5000 
     89 N          -4.5357  -22.9294  -51.2466 N.am      16 UNK        -0.5000 
     90 CA         -5.9268  -22.5295  -51.0282 C.3       16 UNK         0.1400 
     91 CB         -6.6171  -22.3112  -52.3803 C.3       16 UNK        -0.1800 
     92 C          -6.0232  -21.2655  -50.1580 C.2       16 UNK         0.5000 
     93 O          -6.8487  -21.2163  -49.2456 O.2       16 UNK        -0.5000 
     94 N          -5.1712  -20.2763  -50.4644 N.am      17 UNK        -0.5000 
     95 CA         -4.9603  -18.9820  -49.8064 C.3       17 UNK         0.1400 
     96 CB         -4.4497  -19.1718  -48.3647 C.3       17 UNK        -0.1800 
     97 C          -6.1544  -18.0057  -49.8573 C.2       17 UNK         0.5000 
     98 O          -5.9550  -16.8254  -50.1409 O.2       17 UNK        -0.5000 
     99 N          -7.3627  -18.4970  -49.5623 N.am      18 UNK        -0.5000 
    100 CA        -8.5736  -17.7049  -49.3561 C.3       18 UNK         0.1400 
    101 CB        -9.6693  -18.6055  -48.7639 C.3       18 UNK        -0.1800 
    102 C         -9.0867  -16.9809  -50.6135 C.2       18 UNK         0.5000 
    103 O         -9.4016  -15.7923  -50.5339 O.2       18 UNK        -0.5000 
    104 N         -9.1931  -17.7048  -51.7362 N.am      19 UNK        -0.5000 
    105 CA        -9.8283  -17.2111  -52.9633 C.3       19 UNK         0.1400 
    106 CB       -11.3647  -17.2448  -52.8086 C.3       19 UNK        -0.1800 
    107 C         -9.3523  -17.9610  -54.2220 C.2       19 UNK         0.5000 
    108 O        -10.0941  -18.0326  -55.2038 O.2       19 UNK        -0.5000 
    109 N         -8.1321  -18.5081  -54.1884 N.am      20 UNK        -0.5000 
    110 CA        -7.5065  -19.2090  -55.3085 C.3       20 UNK         0.1400 
    111 CB        -8.0848  -20.6344  -55.4604 C.3       20 UNK        -0.1800 
    112 C         -5.9791  -19.1397  -55.1456 C.2       20 UNK         0.5000 
    113 O         -5.4607  -18.0557  -54.8691 O.2       20 UNK        -0.5000 
    114 N         -5.2853  -20.2732  -55.3221 N.am      21 UNK        -0.5000 
    115 CA        -3.8314  -20.4252  -55.2264 C.3       21 UNK         0.1400 
    116 CB        -3.4732  -21.9094  -55.4009 C.3       21 UNK        -0.1800 
    117 C         -3.2630  -19.8876  -53.9004 C.2       21 UNK         0.5000 
    118 O         -3.6505  -20.3750  -52.8357 O.2       21 UNK        -0.5000 
    119 N         -2.3720  -18.8935  -54.0022 N.am      22 UNK        -0.5000 
    120 CA        -1.7779  -18.1349  -52.8869 C.3       22 UNK         0.1400 
    121 C         -2.7165  -17.0552  -52.2603 C.2       22 UNK         0.5000 
    122 N         -3.9174  -16.8231  -52.7755 N.am      22 UNK        -0.7600 
    123 O         -2.3473  -16.3928  -51.2964 O.2       22 UNK        -0.5000 
    124 C124       -1.1239  -19.0614  -51.8225 C.3       23 UNK        -0.0398 
    125 S125        0.3254  -18.3308  -50.9967 S.3       23 UNK        -0.2404 
    126 C126        1.6698  -19.4486  -51.5074 C.3       23 UNK        -0.0205 
    127 H127        3.3440  -16.4829  -53.0327 H         1 UNK         0.0600 
    128 H128        2.5931  -15.4927  -54.2807 H         1 UNK         0.0600 
    129 H129        1.6379  -16.0305  -52.8952 H         1 UNK         0.0600 
    130 H130        3.7147  -15.5163  -50.8938 H         1 UNK         0.3000 
    131 H131        4.5660  -12.8081  -50.8838 H         1 UNK         0.0600 
    132 H132        5.8480  -14.2030  -49.5068 H         1 UNK         0.0800 
    133 H133        4.9327  -13.2729  -48.3719 H         1 UNK         0.0800 
    134 H134        6.1785  -16.9724  -48.5327 H         1 UNK         0.0800 
    135 H135        5.6477  -16.4699  -50.1180 H         1 UNK         0.0800 
    136 H136        3.1982  -17.3159  -50.8164 H         1 UNK         0.1150 
    137 H137        2.7243  -21.4896  -50.0400 H         1 UNK         0.1150 
    138 H138        5.7450  -19.2610  -47.9669 H         1 UNK         0.1150 
    139 H139        4.5134  -22.6579  -48.8130 H         1 UNK         0.0800 
    140 H140        5.7973  -21.7587  -48.0510 H         1 UNK         0.0800 
    141 H141        2.1350  -22.5477  -48.1012 H         1 UNK         0.0800 
    142 H142        1.6646  -21.2551  -47.0258 H         1 UNK         0.0800 
    143 H143        1.9386  -24.2234  -46.3108 H         1 UNK         0.0600 
    144 H144        1.6031  -21.9320  -44.5503 H         1 UNK         0.3000 
    145 H145        0.1268  -22.8685  -42.1514 H         1 UNK         0.0600 
    146 H146        1.5518  -23.6705  -40.2466 H         1 UNK         0.0600 
    147 H147        0.9031  -24.9874  -41.2094 H         1 UNK         0.0600 
    148 H148        2.5867  -24.5237  -41.3925 H         1 UNK         0.0600 
    149 H149        1.3393  -21.0483  -42.1042 H         1 UNK         0.3000 
    150 H150        4.5506  -20.2034  -41.5087 H         1 UNK         0.0600 
    151 H151        5.1579  -20.5158  -43.9183 H         1 UNK         0.0600 
    152 H152        4.8214  -18.8303  -43.5558 H         1 UNK         0.0600 
    153 H153        3.6221  -19.8053  -44.4009 H         1 UNK         0.0600 
    154 H154        2.3933  -18.6641  -42.6580 H         1 UNK         0.3000 
    155 H155        0.5437  -18.2970  -39.6288 H         1 UNK         0.0600 
    156 H156        2.3116  -16.5329  -39.5477 H         1 UNK         0.0600 
    157 H157        0.8120  -15.9064  -40.2160 H         1 UNK         0.0600 
    158 H158        2.1610  -16.2877  -41.2835 H         1 UNK         0.0600 
    159 H159        0.0574  -17.2637  -42.2194 H         1 UNK         0.3000 
    160 H160       -1.7668  -20.0977  -43.4885 H         1 UNK         0.0600 
    161 H161       -2.5283  -17.2296  -42.7407 H         1 UNK         0.0600 
    162 H162       -3.3143  -18.6843  -42.1415 H         1 UNK         0.0600 
    163 H163       -3.4020  -18.2838  -43.8499 H         1 UNK         0.0600 
    164 H164       -1.0791  -17.6473  -44.7487 H         1 UNK         0.3000 
    165 H165        2.0522  -18.7618  -46.1456 H         1 UNK         0.0600 
    166 H166        0.9211  -17.9967  -48.1856 H         1 UNK         0.0600 
    167 H167        0.2209  -19.5284  -47.6845 H         1 UNK         0.0600 
    168 H168       -0.6505  -18.0297  -47.3916 H         1 UNK         0.0600 
    169 H169        0.7453  -16.2643  -46.3610 H         1 UNK         0.3000 
    170 H170        2.0758  -14.7516  -43.3829 H         1 UNK         0.0600 
    171 H171        3.7440  -14.4943  -45.2299 H         1 UNK         0.0600 
    172 H172        2.4397  -14.2368  -46.3786 H         1 UNK         0.0600 
    173 H173        2.7138  -13.0792  -45.0777 H         1 UNK         0.0600 
    174 H174        0.1996  -13.9146  -45.4092 H         1 UNK         0.3000 
    175 H175       -2.7457  -14.8727  -43.6489 H         1 UNK         0.0600 
    176 H176       -2.0465  -12.7382  -42.5559 H         1 UNK         0.0600 
    177 H177       -1.5033  -12.1056  -44.1055 H         1 UNK         0.0600 
    178 H178       -3.2130  -12.4455  -43.8357 H         1 UNK         0.0600 
    179 H179       -2.2852  -13.3981  -46.0648 H         1 UNK         0.3000 
    180 H180       -2.2320  -16.1866  -48.2858 H         1 UNK         0.0600 
    181 H181       -4.6474  -15.7212  -47.8063 H         1 UNK         0.0600 
    182 H182       -4.3186  -13.9931  -47.7851 H         1 UNK         0.0600 
    183 H183       -4.1086  -14.9193  -49.2720 H         1 UNK         0.0600 
    184 H184       -2.1219  -13.3967  -48.7777 H         1 UNK         0.3000 
    185 H185       -0.1179  -12.6038  -49.7168 H         1 UNK         0.0600 
    186 H186       -0.4687  -11.6744  -47.3504 H         1 UNK         0.0600 
    187 H187        1.1412  -12.2358  -46.9221 H         1 UNK         0.0600 
    188 H188        0.9294  -10.9827  -48.1392 H         1 UNK         0.0600 
    189 H189        1.8816  -14.4417  -49.1525 H         1 UNK         0.3000 
    190 H190       -0.6730  -22.1648  -45.2539 H         1 UNK         0.3000 
    191 H191       -2.5886  -22.6737  -47.3020 H         1 UNK         0.0600 
    192 H192       -3.0125  -21.8992  -44.3725 H         1 UNK         0.0600 
    193 H193       -4.1829  -21.7201  -45.6726 H         1 UNK         0.0600 
    194 H194       -2.7108  -20.7670  -45.6976 H         1 UNK         0.0600 
    195 H195       -1.2684  -24.9454  -45.2179 H         1 UNK         0.3000 
    196 H196       -3.5794  -26.7186  -44.9859 H         1 UNK         0.0600 
    197 H197       -1.8510  -28.3621  -44.2797 H         1 UNK         0.0600 
    198 H198       -1.6654  -26.8575  -43.3909 H         1 UNK         0.0600 
    199 H199       -0.5685  -27.2394  -44.7170 H         1 UNK         0.0600 
    200 H200       -1.1898  -25.8847  -47.4309 H         1 UNK         0.3000 
    201 H201       -2.0139  -28.1733  -49.1788 H         1 UNK         0.0600 
    202 H202        0.3991  -28.2040  -48.6129 H         1 UNK         0.0600 
    203 H203        0.5777  -26.5362  -49.1528 H         1 UNK         0.0600 
    204 H204        0.1726  -27.8011  -50.3081 H         1 UNK         0.0600 
    205 H205       -1.2064  -24.6623  -49.0855 H         1 UNK         0.3000 
    206 H206       -2.2735  -24.1090  -51.7350 H         1 UNK         0.0600 
    207 H207       -0.4286  -22.7541  -50.7351 H         1 UNK         0.0600 
    208 H208       -1.8348  -21.7529  -51.0600 H         1 UNK         0.0600 
    209 H209       -1.4839  -22.2556  -49.4137 H         1 UNK         0.0600 
    210 H210       -4.1058  -22.6240  -52.1088 H         1 UNK         0.3000 
    211 H211       -6.4507  -23.3366  -50.5111 H         1 UNK         0.0600 
    212 H212       -7.6654  -22.0438  -52.2414 H         1 UNK         0.0600 
    213 H213       -6.5885  -23.2142  -52.9902 H         1 UNK         0.0600 
    214 H214       -6.1441  -21.5088  -52.9450 H         1 UNK         0.0600 
    215 H215       -4.5846  -20.4180  -51.2858 H         1 UNK         0.3000 
    216 H216       -4.1546  -18.5088  -50.3635 H         1 UNK         0.0600 
    217 H217       -4.1943  -18.2135  -47.9110 H         1 UNK         0.0600 
    218 H218       -3.5506  -19.7882  -48.3441 H         1 UNK         0.0600 
    219 H219       -5.1952  -19.6467  -47.7264 H         1 UNK         0.0600 
    220 H220       -7.4144  -19.4902  -49.3460 H         1 UNK         0.3000 
    221 H221       -8.3376  -16.9383  -48.6149 H         1 UNK         0.0600 
    222 H222       -9.9148  -19.4339  -49.4295 H         1 UNK         0.0600 
    223 H223       -9.3579  -19.0267  -47.8078 H         1 UNK         0.0600 
    224 H224      -10.5865  -18.0422  -48.5869 H         1 UNK         0.0600 
    225 H225       -8.9236  -18.6783  -51.7231 H         1 UNK         0.3000 
    226 H226       -9.5265  -16.1729  -53.1168 H         1 UNK         0.0600 
    227 H227      -11.6956  -16.6514  -51.9563 H         1 UNK         0.0600 
    228 H228      -11.8622  -16.8357  -53.6887 H         1 UNK         0.0600 
    229 H229      -11.7275  -18.2634  -52.6674 H         1 UNK         0.0600 
    230 H230       -7.5309  -18.3286  -53.3960 H         1 UNK         0.3000 
    231 H231       -7.7250  -18.6593  -56.2264 H         1 UNK         0.0600 
    232 H232       -9.1590  -20.6044  -55.6423 H         1 UNK         0.0600 
    233 H233       -7.9250  -21.2364  -54.5683 H         1 UNK         0.0600 
    234 H234       -7.6425  -21.1588  -56.3080 H         1 UNK         0.0600 
    235 H235       -5.8020  -21.1136  -55.5343 H         1 UNK         0.3000 
    236 H236       -3.3889  -19.8675  -56.0541 H         1 UNK         0.0600 
    237 H237       -2.3952  -22.0624  -55.3340 H         1 UNK         0.0600 
    238 H238       -3.9411  -22.5300  -54.6355 H         1 UNK         0.0600 
    239 H239       -3.7928  -22.2809  -56.3747 H         1 UNK         0.0600 
    240 H240       -2.1383  -18.5503  -54.9229 H         1 UNK         0.3000 
    241 H241       -0.9780  -17.5620  -53.3573 H         1 UNK         0.0600 
    242 H242       -4.2732  -17.3356  -53.5773 H         1 UNK         0.3800 
    243 H243       -4.5035  -16.1348  -52.3309 H         1 UNK         0.3800 
    244 H244       -1.8483  -19.3466  -51.0582 H         1 UNK         0.0800 
    245 H245       -0.8098  -19.9930  -52.2927 H         1 UNK         0.0800 
    246 H246        1.2916  -20.4689  -51.5845 H         1 UNK         0.0800 
    247 H247        2.0189  -19.1662  -52.5014 H         1 UNK         0.0800 
@<TRIPOS>BOND
     1    1    2 1    
     2    1  127 1    
     3    1  128 1    
     4    1  129 1    
     5    2    3 2    
     6    2    4 am   BACKBONE|DICT|INTERRES
     7    4    5 1    
     8    4  130 1    
     9    5    6 1    
    10    5   65 1    
    11    5  131 1    
    12    6    7 1    
    13    6  132 1    
    14    6  133 1    
    15    7    8 1    
    16    8    9 1    
    17    8  134 1    
    18    8  135 1    
    19    9   10 ar   
    20    9   14 ar   
    21   10   11 ar   
    22   10  136 1    
    23   11   12 ar   
    24   11  126 1    
    25   12   13 ar   
    26   12  137 1    
    27   13   14 ar   
    28   13   15 1    
    29   14  138 1    
    30   15   16 1    
    31   15  139 1    
    32   15  140 1    
    33   16   17 1    
    34   17   18 1    
    35   17  141 1    
    36   17  142 1    
    37   18   19 1    
    38   18   67 1    
    39   18  143 1    
    40   19   20 am   BACKBONE|DICT|INTERRES
    41   19  144 1    
    42   20   21 2    
    43   20   22 1    
    44   22   23 1    
    45   22   24 1    
    46   22  145 1    
    47   23  146 1    
    48   23  147 1    
    49   23  148 1    
    50   24   25 am   BACKBONE|DICT|INTERRES
    51   24  149 1    
    52   25   26 2    
    53   25   27 1    
    54   27   28 1    
    55   27   29 1    
    56   27  150 1    
    57   28  151 1    
    58   28  152 1    
    59   28  153 1    
    60   29   30 am   BACKBONE|DICT|INTERRES
    61   29  154 1    
    62   30   31 2    
    63   30   32 1    
    64   32   33 1    
    65   32   34 1    
    66   32  155 1    
    67   33  156 1    
    68   33  157 1    
    69   33  158 1    
    70   34   35 am   BACKBONE|DICT|INTERRES
    71   34  159 1    
    72   35   36 2    
    73   35   37 1    
    74   37   38 1    
    75   37   39 1    
    76   37  160 1    
    77   38  161 1    
    78   38  162 1    
    79   38  163 1    
    80   39   40 am   BACKBONE|DICT|INTERRES
    81   39  164 1    
    82   40   41 2    
    83   40   42 1    
    84   42   43 1    
    85   42   44 1    
    86   42  165 1    
    87   43  166 1    
    88   43  167 1    
    89   43  168 1    
    90   44   45 am   BACKBONE|DICT|INTERRES
    91   44  169 1    
    92   45   46 2    
    93   45   47 1    
    94   47   48 1    
    95   47   49 1    
    96   47  170 1    
    97   48  171 1    
    98   48  172 1    
    99   48  173 1    
   100   49   50 am   BACKBONE|DICT|INTERRES
   101   49  174 1    
   102   50   51 2    
   103   50   52 1    
   104   52   53 1    
   105   52   54 1    
   106   52  175 1    
   107   53  176 1    
   108   53  177 1    
   109   53  178 1    
   110   54   55 am   BACKBONE|DICT|INTERRES
   111   54  179 1    
   112   55   56 2    
   113   55   57 1    
   114   57   58 1    
   115   57   59 1    
   116   57  180 1    
   117   58  181 1    
   118   58  182 1    
   119   58  183 1    
   120   59   60 am   BACKBONE|DICT|INTERRES
   121   59  184 1    
   122   60   61 2    
   123   60   62 1    
   124   62   63 1    
   125   62   64 1    
   126   62  185 1    
   127   63  186 1    
   128   63  187 1    
   129   63  188 1    
   130   64   65 am   BACKBONE|DICT|INTERRES
   131   64  189 1    
   132   65   66 2    
   133   67   68 2    
   134   67   69 am   BACKBONE|DICT|INTERRES
   135   69   70 1    
   136   69  190 1    
   137   70   71 1    
   138   70   72 1    
   139   70  191 1    
   140   71  192 1    
   141   71  193 1    
   142   71  194 1    
   143   72   73 2    
   144   72   74 am   BACKBONE|DICT|INTERRES
   145   74   75 1    
   146   74  195 1    
   147   75   76 1    
   148   75   77 1    
   149   75  196 1    
   150   76  197 1    
   151   76  198 1    
   152   76  199 1    
   153   77   78 2    
   154   77   79 am   BACKBONE|DICT|INTERRES
   155   79   80 1    
   156   79  200 1    
   157   80   81 1    
   158   80   82 1    
   159   80  201 1    
   160   81  202 1    
   161   81  203 1    
   162   81  204 1    
   163   82   83 2    
   164   82   84 am   BACKBONE|DICT|INTERRES
   165   84   85 1    
   166   84  205 1    
   167   85   86 1    
   168   85   87 1    
   169   85  206 1    
   170   86  207 1    
   171   86  208 1    
   172   86  209 1    
   173   87   88 2    
   174   87   89 am   BACKBONE|DICT|INTERRES
   175   89   90 1    
   176   89  210 1    
   177   90   91 1    
   178   90   92 1    
   179   90  211 1    
   180   91  212 1    
   181   91  213 1    
   182   91  214 1    
   183   92   93 2    
   184   92   94 am   BACKBONE|DICT|INTERRES
   185   94   95 1    
   186   94  215 1    
   187   95   96 1    
   188   95   97 1    
   189   95  216 1    
   190   96  217 1    
   191   96  218 1    
   192   96  219 1    
   193   97   98 2    
   194   97   99 am   BACKBONE|DICT|INTERRES
   195   99  100 1    
   196   99  220 1    
   197  100  101 1    
   198  100  102 1    
   199  100  221 1    
   200  101  222 1    
   201  101  223 1    
   202  101  224 1    
   203  102  103 2    
   204  102  104 am   BACKBONE|DICT|INTERRES
   205  104  105 1    
   206  104  225 1    
   207  105  106 1    
   208  105  107 1    
   209  105  226 1    
   210  106  227 1    
   211  106  228 1    
   212  106  229 1    
   213  107  108 2    
   214  107  109 am   BACKBONE|DICT|INTERRES
   215  109  110 1    
   216  109  230 1    
   217  110  111 1    
   218  110  112 1    
   219  110  231 1    
   220  111  232 1    
   221  111  233 1    
   222  111  234 1    
   223  112  113 2    
   224  112  114 am   BACKBONE|DICT|INTERRES
   225  114  115 1    
   226  114  235 1    
   227  115  116 1    
   228  115  117 1    
   229  115  236 1    
   230  116  237 1    
   231  116  238 1    
   232  116  239 1    
   233  117  118 2    
   234  117  119 am   BACKBONE|DICT|INTERRES
   235  119  120 1    
   236  119  240 1    
   237  120  121 1    
   238  120  124 1    
   239  120  241 1    
   240  121  122 am   BACKBONE|DICT|INTERRES
   241  121  123 2    
   242  122  242 1    
   243  122  243 1    
   244  124  125 1    
   245  124  244 1    
   246  124  245 1    
   247  125  126 1    
   248  126  246 1    
   249  126  247 1    
@<TRIPOS>SUBSTRUCTURE
     1 UNK         1 GROUP             0       ****    0 ROOT    
