@<TRIPOS>MOLECULE
3R540
247   249    1
SMALL
USER_CHARGES


@<TRIPOS>ATOM
      1 CA          1.5631  -10.5582  -51.0539 C.3       0 UNK        -0.1800 
      2 C           2.5982  -11.1351  -50.0987 C.2       0 UNK         0.5000 
      3 O           3.5843  -10.4671  -49.7878 O.2       0 UNK        -0.5000 
      4 N           2.3766  -12.3725  -49.6360 N.am      1 UNK        -0.5000 
      5 CA          3.2518  -13.0870  -48.6973 C.3       1 UNK         0.1400 
      6 C6          2.9504  -14.6073  -48.6818 C.3       23 UNK        -0.0398 
      7 S7          3.7074  -15.4698  -50.1004 S.3       23 UNK        -0.2404 
      8 C8          2.3810  -15.4826  -51.3510 C.3       23 UNK        -0.0205 
      9 C9          1.2797  -16.4837  -51.0335 C.ar      23 UNK        -0.0193 
     10 C10        -0.0099  -16.0429  -50.7195 C.ar      23 UNK        -0.1150 
     11 C11        -1.0294  -16.9623  -50.4545 C.ar      23 UNK        -0.0193 
     12 C12        -0.7422  -18.3305  -50.4854 C.ar      23 UNK        -0.1150 
     13 C13         0.5385  -18.7854  -50.8094 C.ar      23 UNK        -0.0193 
     14 C14         1.5436  -17.8562  -51.0893 C.ar      23 UNK        -0.1150 
     15 C15         0.8281  -20.2810  -50.8544 C.3       23 UNK        -0.0205 
     16 S16         1.9647  -20.8320  -49.5415 S.3       23 UNK        -0.2404 
     17 C17         1.1480  -20.2100  -48.0361 C.3       23 UNK        -0.0398 
     18 CA          0.2889  -21.2518  -47.2860 C.3       11 UNK         0.1400 
     19 N           0.0147  -20.8028  -45.9214 N.am      11 UNK        -0.5000 
     20 C          -0.4473  -21.5733  -44.9296 C.2       10 UNK         0.5000 
     21 O          -0.6610  -22.7805  -45.0402 O.2       10 UNK        -0.5000 
     22 CA         -0.7551  -20.8520  -43.6047 C.3       10 UNK         0.1400 
     23 CB          0.5010  -20.7820  -42.7222 C.3       10 UNK        -0.1800 
     24 N          -1.2739  -19.4989  -43.8236 N.am      10 UNK        -0.5000 
     25 C          -2.4967  -19.2380  -44.3086 C.2       9 UNK         0.5000 
     26 O          -3.3137  -20.1143  -44.5916 O.2       9 UNK        -0.5000 
     27 CA         -2.8541  -17.7594  -44.5653 C.3       9 UNK         0.1400 
     28 CB         -3.3420  -17.0971  -43.2689 C.3       9 UNK        -0.1800 
     29 N          -1.7493  -16.9736  -45.1205 N.am      9 UNK        -0.5000 
     30 C          -1.1177  -17.2400  -46.2713 C.2       8 UNK         0.5000 
     31 O          -1.4287  -18.1657  -47.0155 O.2       8 UNK        -0.5000 
     32 CA          0.1084  -16.3823  -46.6372 C.3       8 UNK         0.1400 
     33 CB          0.1175  -14.9905  -45.9731 C.3       8 UNK        -0.1800 
     34 N           1.3721  -17.0826  -46.3718 N.am      8 UNK        -0.5000 
     35 C           1.7543  -17.6490  -45.2166 C.2       7 UNK         0.5000 
     36 O           1.0375  -17.7034  -44.2165 O.2       7 UNK        -0.5000 
     37 CA          3.1526  -18.2872  -45.1648 C.3       7 UNK         0.1400 
     38 CB          4.1588  -17.6675  -46.1555 C.3       7 UNK        -0.1800 
     39 N           3.6580  -18.1519  -43.8063 N.am      7 UNK        -0.5000 
     40 C           4.3866  -19.0486  -43.1379 C.2       6 UNK         0.5000 
     41 O           4.7466  -20.1268  -43.6121 O.2       6 UNK        -0.5000 
     42 CA          4.7862  -18.6846  -41.6989 C.3       6 UNK         0.1400 
     43 CB          6.0820  -17.8571  -41.7030 C.3       6 UNK        -0.1800 
     44 N           3.7448  -17.9233  -41.0016 N.am      6 UNK        -0.5000 
     45 C           3.1751  -18.2927  -39.8457 C.2       5 UNK         0.5000 
     46 O           3.4093  -19.3629  -39.2822 O.2       5 UNK        -0.5000 
     47 CA          2.2077  -17.2987  -39.1691 C.3       5 UNK         0.1400 
     48 CB          2.9165  -16.5710  -38.0158 C.3       5 UNK        -0.1800 
     49 N           1.6602  -16.2967  -40.0824 N.am      5 UNK        -0.5000 
     50 C           0.6506  -16.5164  -40.9332 C.2       4 UNK         0.5000 
     51 O           0.0306  -17.5783  -40.9925 O.2       4 UNK        -0.5000 
     52 CA          0.2520  -15.3588  -41.8730 C.3       4 UNK         0.1400 
     53 CB         -0.9864  -14.6319  -41.3261 C.3       4 UNK        -0.1800 
     54 N           1.2868  -14.3546  -42.1616 N.am      4 UNK        -0.5000 
     55 C           2.5366  -14.5703  -42.5914 C.2       3 UNK         0.5000 
     56 O           3.0271  -15.6901  -42.7304 O.2       3 UNK        -0.5000 
     57 CA          3.3802  -13.3211  -42.9079 C.3       3 UNK         0.1400 
     58 CB          4.8799  -13.6498  -43.0236 C.3       3 UNK        -0.1800 
     59 N           2.9559  -12.6632  -44.1427 N.am      3 UNK        -0.5000 
     60 C           1.8685  -11.9047  -44.3088 C.2       2 UNK         0.5000 
     61 O           1.0307  -11.7274  -43.4230 O.2       2 UNK        -0.5000 
     62 CA          1.6852  -11.1953  -45.6699 C.3       2 UNK         0.1400 
     63 CB          2.4242   -9.8444  -45.6708 C.3       2 UNK        -0.1800 
     64 N           2.0214  -11.9614  -46.8825 N.am      2 UNK        -0.5000 
     65 C           3.1958  -12.4819  -47.2759 C.2       1 UNK         0.5000 
     66 O           4.2154  -12.4850  -46.5857 O.2       1 UNK        -0.5000 
     67 C          -1.0263  -21.5826  -48.0214 C.2       11 UNK         0.5000 
     68 O          -1.1226  -22.6332  -48.6525 O.2       11 UNK        -0.5000 
     69 N          -2.0355  -20.7124  -47.8741 N.am      12 UNK        -0.5000 
     70 CA         -3.3978  -20.9005  -48.3671 C.3       12 UNK         0.1400 
     71 CB         -4.2365  -19.6516  -48.0635 C.3       12 UNK        -0.1800 
     72 C          -4.0682  -22.1496  -47.7770 C.2       12 UNK         0.5000 
     73 O          -4.6633  -22.9190  -48.5294 O.2       12 UNK        -0.5000 
     74 N          -3.9309  -22.3511  -46.4584 N.am      13 UNK        -0.5000 
     75 CA         -4.4252  -23.5299  -45.7444 C.3       13 UNK         0.1400 
     76 CB         -4.2060  -23.3541  -44.2346 C.3       13 UNK        -0.1800 
     77 C          -3.7894  -24.8398  -46.2456 C.2       13 UNK         0.5000 
     78 O          -4.5113  -25.8102  -46.4794 O.2       13 UNK        -0.5000 
     79 N          -2.4643  -24.8263  -46.4563 N.am      14 UNK        -0.5000 
     80 CA         -1.7068  -25.9313  -47.0513 C.3       14 UNK         0.1400 
     81 CB         -0.2028  -25.6382  -46.9438 C.3       14 UNK        -0.1800 
     82 C          -2.1086  -26.2174  -48.5128 C.2       14 UNK         0.5000 
     83 O          -2.1383  -27.3784  -48.9204 O.2       14 UNK        -0.5000 
     84 N          -2.4641  -25.1615  -49.2550 N.am      15 UNK        -0.5000 
     85 CA         -2.9783  -25.1959  -50.6247 C.3       15 UNK         0.1400 
     86 CB         -2.5757  -23.8922  -51.3345 C.3       15 UNK        -0.1800 
     87 C          -4.5025  -25.4411  -50.7022 C.2       15 UNK         0.5000 
     88 O          -5.1296  -25.0180  -51.6747 O.2       15 UNK        -0.5000 
     89 N          -5.0753  -26.1109  -49.6905 N.am      16 UNK        -0.5000 
     90 CA         -6.4724  -26.5477  -49.5882 C.3       16 UNK         0.1400 
     91 CB         -6.7697  -27.6446  -50.6324 C.3       16 UNK        -0.1800 
     92 C          -7.4805  -25.3808  -49.6331 C.2       16 UNK         0.5000 
     93 O          -8.4599  -25.4336  -50.3788 O.2       16 UNK        -0.5000 
     94 N          -7.2022  -24.3455  -48.8287 N.am      17 UNK        -0.5000 
     95 CA         -7.9249  -23.0717  -48.7357 C.3       17 UNK         0.1400 
     96 CB         -9.3807  -23.2746  -48.2645 C.3       17 UNK        -0.1800 
     97 C          -7.8001  -22.2504  -50.0352 C.2       17 UNK         0.5000 
     98 O          -8.7933  -21.7289  -50.5453 O.2       17 UNK        -0.5000 
     99 N          -6.5573  -22.1621  -50.5301 N.am      18 UNK        -0.5000 
    100 CA        -6.1155  -21.4665  -51.7401 C.3       18 UNK         0.1400 
    101 CB        -6.2220  -19.9391  -51.5638 C.3       18 UNK        -0.1800 
    102 C         -6.8119  -21.9764  -53.0165 C.2       18 UNK         0.5000 
    103 O         -7.3293  -21.1832  -53.8052 O.2       18 UNK        -0.5000 
    104 N         -6.8002  -23.3025  -53.2054 N.am      19 UNK        -0.5000 
    105 CA        -7.3403  -23.9714  -54.3912 C.3       19 UNK         0.1400 
    106 CB        -7.4456  -25.4789  -54.1156 C.3       19 UNK        -0.1800 
    107 C         -6.5003  -23.7086  -55.6572 C.2       19 UNK         0.5000 
    108 O         -7.0437  -23.7309  -56.7624 O.2       19 UNK        -0.5000 
    109 N         -5.2004  -23.4501  -55.4703 N.am      20 UNK        -0.5000 
    110 CA        -4.2360  -23.1203  -56.5149 C.3       20 UNK         0.1400 
    111 CB        -3.7734  -24.4039  -57.2344 C.3       20 UNK        -0.1800 
    112 C         -3.0795  -22.3209  -55.8910 C.2       20 UNK         0.5000 
    113 O         -1.9180  -22.7147  -56.0122 O.2       20 UNK        -0.5000 
    114 N         -3.4181  -21.2276  -55.1969 N.am      21 UNK        -0.5000 
    115 CA        -2.4712  -20.3439  -54.5197 C.3       21 UNK         0.1400 
    116 CB        -2.0948  -20.9310  -53.1476 C.3       21 UNK        -0.1800 
    117 C         -3.0544  -18.9287  -54.3856 C.2       21 UNK         0.5000 
    118 O         -4.2113  -18.7006  -54.7494 O.2       21 UNK        -0.5000 
    119 N         -2.2289  -18.0199  -53.8526 N.am      22 UNK        -0.5000 
    120 CA        -2.4958  -16.5868  -53.6446 C.3       22 UNK         0.1400 
    121 C         -2.5720  -15.7720  -54.9740 C.2       22 UNK         0.5000 
    122 N         -2.9570  -14.5027  -54.9279 N.am      22 UNK        -0.7600 
    123 O         -2.2423  -16.2584  -56.0542 O.2       22 UNK        -0.5000 
    124 C124       -3.6881  -16.2958  -52.6824 C.3       23 UNK        -0.0398 
    125 S125       -3.7146  -17.2793  -51.1428 S.3       23 UNK        -0.2404 
    126 C126       -2.4350  -16.4797  -50.1179 C.3       23 UNK        -0.0205 
    127 H127        1.1304   -9.6502  -50.6339 H         1 UNK         0.0600 
    128 H128        0.7536  -11.2620  -51.2495 H         1 UNK         0.0600 
    129 H129        2.0307  -10.3058  -52.0056 H         1 UNK         0.0600 
    130 H130        1.5504  -12.8666  -49.9375 H         1 UNK         0.3000 
    131 H131        4.2815  -12.9503  -49.0362 H         1 UNK         0.0600 
    132 H132        1.8779  -14.8004  -48.6534 H         1 UNK         0.0800 
    133 H133        3.3656  -15.0738  -47.7869 H         1 UNK         0.0800 
    134 H134        1.9777  -14.4772  -51.4731 H         1 UNK         0.0800 
    135 H135        2.8202  -15.7458  -52.3142 H         1 UNK         0.0800 
    136 H136       -0.2231  -14.9838  -50.6902 H         1 UNK         0.1150 
    137 H137       -1.5250  -19.0417  -50.2623 H         1 UNK         0.1150 
    138 H138        2.5371  -18.2017  -51.3392 H         1 UNK         0.1150 
    139 H139       -0.0938  -20.8580  -50.7735 H         1 UNK         0.0800 
    140 H140        1.2602  -20.5323  -51.8238 H         1 UNK         0.0800 
    141 H141        0.5807  -19.3040  -48.2406 H         1 UNK         0.0800 
    142 H142        1.9640  -19.8942  -47.3890 H         1 UNK         0.0800 
    143 H143        0.8656  -22.1766  -47.2135 H         1 UNK         0.0600 
    144 H144        0.0708  -19.8103  -45.7500 H         1 UNK         0.3000 
    145 H145       -1.5131  -21.4318  -43.0740 H         1 UNK         0.0600 
    146 H146        0.2851  -20.3049  -41.7660 H         1 UNK         0.0600 
    147 H147        0.8839  -21.7806  -42.5086 H         1 UNK         0.0600 
    148 H148        1.3033  -20.2193  -43.2001 H         1 UNK         0.0600 
    149 H149       -0.6311  -18.7307  -43.6545 H         1 UNK         0.3000 
    150 H150       -3.6703  -17.7356  -45.2898 H         1 UNK         0.0600 
    151 H151       -3.6369  -16.0612  -43.4370 H         1 UNK         0.0600 
    152 H152       -4.2103  -17.6212  -42.8674 H         1 UNK         0.0600 
    153 H153       -2.5692  -17.1091  -42.4997 H         1 UNK         0.0600 
    154 H154       -1.4021  -16.2179  -44.5510 H         1 UNK         0.3000 
    155 H155        0.0555  -16.2315  -47.7160 H         1 UNK         0.0600 
    156 H156        0.2581  -15.0423  -44.8960 H         1 UNK         0.0600 
    157 H157       -0.8103  -14.4507  -46.1666 H         1 UNK         0.0600 
    158 H158        0.9304  -14.3867  -46.3684 H         1 UNK         0.0600 
    159 H159        2.0118  -17.1270  -47.1514 H         1 UNK         0.3000 
    160 H160        3.0266  -19.3458  -45.3969 H         1 UNK         0.0600 
    161 H161        4.2699  -16.5944  -45.9935 H         1 UNK         0.0600 
    162 H162        3.8565  -17.8250  -47.1915 H         1 UNK         0.0600 
    163 H163        5.1443  -18.1199  -46.0433 H         1 UNK         0.0600 
    164 H164        3.3665  -17.2941  -43.3387 H         1 UNK         0.3000 
    165 H165        4.9894  -19.6238  -41.1807 H         1 UNK         0.0600 
    166 H166        6.4232  -17.6567  -40.6873 H         1 UNK         0.0600 
    167 H167        6.8845  -18.3874  -42.2173 H         1 UNK         0.0600 
    168 H168        5.9448  -16.8984  -42.2055 H         1 UNK         0.0600 
    169 H169        3.4583  -17.0494  -41.4316 H         1 UNK         0.3000 
    170 H170        1.3838  -17.8785  -38.7474 H         1 UNK         0.0600 
    171 H171        3.3126  -17.2815  -37.2890 H         1 UNK         0.0600 
    172 H172        3.7519  -15.9677  -38.3735 H         1 UNK         0.0600 
    173 H173        2.2298  -15.9130  -37.4828 H         1 UNK         0.0600 
    174 H174        2.1104  -15.3938  -40.0950 H         1 UNK         0.3000 
    175 H175       -0.0272  -15.8205  -42.8177 H         1 UNK         0.0600 
    176 H176       -0.7534  -14.0760  -40.4172 H         1 UNK         0.0600 
    177 H177       -1.3852  -13.9283  -42.0572 H         1 UNK         0.0600 
    178 H178       -1.7853  -15.3329  -41.0825 H         1 UNK         0.0600 
    179 H179        0.9779  -13.3890  -42.1466 H         1 UNK         0.3000 
    180 H180        3.2566  -12.6212  -42.0790 H         1 UNK         0.0600 
    181 H181        5.0828  -14.3174  -43.8624 H         1 UNK         0.0600 
    182 H182        5.2465  -14.1366  -42.1189 H         1 UNK         0.0600 
    183 H183        5.4710  -12.7452  -43.1674 H         1 UNK         0.0600 
    184 H184        3.5858  -12.7378  -44.9391 H         1 UNK         0.3000 
    185 H185        0.6188  -10.9795  -45.7540 H         1 UNK         0.0600 
    186 H186        2.1135   -9.2273  -44.8266 H         1 UNK         0.0600 
    187 H187        3.5047   -9.9735  -45.6006 H         1 UNK         0.0600 
    188 H188        2.2134   -9.2809  -46.5799 H         1 UNK         0.0600 
    189 H189        1.2616  -12.0334  -47.5438 H         1 UNK         0.3000 
    190 H190       -1.8531  -19.8317  -47.3953 H         1 UNK         0.3000 
    191 H191       -3.3472  -21.0238  -49.4506 H         1 UNK         0.0600 
    192 H192       -3.8260  -18.7735  -48.5587 H         1 UNK         0.0600 
    193 H193       -5.2641  -19.7735  -48.4066 H         1 UNK         0.0600 
    194 H194       -4.2761  -19.4405  -46.9958 H         1 UNK         0.0600 
    195 H195       -3.4772  -21.6366  -45.8979 H         1 UNK         0.3000 
    196 H196       -5.5004  -23.5954  -45.9232 H         1 UNK         0.0600 
    197 H197       -4.5868  -24.2137  -43.6818 H         1 UNK         0.0600 
    198 H198       -4.7260  -22.4716  -43.8617 H         1 UNK         0.0600 
    199 H199       -3.1494  -23.2474  -43.9891 H         1 UNK         0.0600 
    200 H200       -1.9372  -23.9963  -46.2077 H         1 UNK         0.3000 
    201 H201       -1.9189  -26.8306  -46.4694 H         1 UNK         0.0600 
    202 H202        0.0982  -25.4990  -45.9053 H         1 UNK         0.0600 
    203 H203        0.0744  -24.7393  -47.4945 H         1 UNK         0.0600 
    204 H204        0.3855  -26.4639  -47.3459 H         1 UNK         0.0600 
    205 H205       -2.3585  -24.2378  -48.8484 H         1 UNK         0.3000 
    206 H206       -2.5019  -26.0215  -51.1564 H         1 UNK         0.0600 
    207 H207       -1.4973  -23.7373  -51.2931 H         1 UNK         0.0600 
    208 H208       -2.8583  -23.9110  -52.3876 H         1 UNK         0.0600 
    209 H209       -3.0538  -23.0260  -50.8777 H         1 UNK         0.0600 
    210 H210       -4.4843  -26.3672  -48.9113 H         1 UNK         0.3000 
    211 H211       -6.5777  -26.9995  -48.6008 H         1 UNK         0.0600 
    212 H212       -6.7097  -27.2618  -51.6515 H         1 UNK         0.0600 
    213 H213       -7.7711  -28.0542  -50.4956 H         1 UNK         0.0600 
    214 H214       -6.0667  -28.4728  -50.5443 H         1 UNK         0.0600 
    215 H215       -6.3187  -24.3700  -48.3344 H         1 UNK         0.3000 
    216 H216       -7.4164  -22.4925  -47.9636 H         1 UNK         0.0600 
    217 H217       -9.8580  -22.3157  -48.0598 H         1 UNK         0.0600 
    218 H218       -9.4196  -23.8589  -47.3453 H         1 UNK         0.0600 
    219 H219       -9.9874  -23.7842  -49.0131 H         1 UNK         0.0600 
    220 H220       -5.8266  -22.6330  -50.0032 H         1 UNK         0.3000 
    221 H221       -5.0602  -21.7111  -51.8557 H         1 UNK         0.0600 
    222 H222       -7.2559  -19.6135  -51.4466 H         1 UNK         0.0600 
    223 H223       -5.6636  -19.6034  -50.6923 H         1 UNK         0.0600 
    224 H224       -5.8096  -19.4161  -52.4276 H         1 UNK         0.0600 
    225 H225       -6.3318  -23.8988  -52.5250 H         1 UNK         0.3000 
    226 H226       -8.3460  -23.5865  -54.5721 H         1 UNK         0.0600 
    227 H227       -8.0706  -25.6770  -53.2445 H         1 UNK         0.0600 
    228 H228       -7.8918  -26.0010  -54.9628 H         1 UNK         0.0600 
    229 H229       -6.4667  -25.9239  -53.9335 H         1 UNK         0.0600 
    230 H230       -4.8434  -23.4513  -54.5250 H         1 UNK         0.3000 
    231 H231       -4.7118  -22.4651  -57.2475 H         1 UNK         0.0600 
    232 H232       -3.3048  -25.1041  -56.5419 H         1 UNK         0.0600 
    233 H233       -3.0478  -24.1753  -58.0159 H         1 UNK         0.0600 
    234 H234       -4.6091  -24.9154  -57.7119 H         1 UNK         0.0600 
    235 H235       -4.3783  -20.9060  -55.1866 H         1 UNK         0.3000 
    236 H236       -1.5691  -20.2576  -55.1294 H         1 UNK         0.0600 
    237 H237       -1.6431  -21.9172  -53.2486 H         1 UNK         0.0600 
    238 H238       -1.3671  -20.2999  -52.6426 H         1 UNK         0.0600 
    239 H239       -2.9610  -21.0152  -52.4932 H         1 UNK         0.0600 
    240 H240       -1.2980  -18.3128  -53.5966 H         1 UNK         0.3000 
    241 H241       -1.5944  -16.2146  -53.1590 H         1 UNK         0.0600 
    242 H242       -2.9890  -13.9757  -55.7872 H         1 UNK         0.3800 
    243 H243       -3.2073  -14.0476  -54.0646 H         1 UNK         0.3800 
    244 H244       -3.7065  -15.2427  -52.4008 H         1 UNK         0.0800 
    245 H245       -4.6314  -16.4824  -53.1979 H         1 UNK         0.0800 
    246 H246       -2.6341  -16.7102  -49.0712 H         1 UNK         0.0800 
    247 H247       -2.5162  -15.3961  -50.2134 H         1 UNK         0.0800 
@<TRIPOS>BOND
     1    1    2 1    
     2    1  127 1    
     3    1  128 1    
     4    1  129 1    
     5    2    3 2    
     6    2    4 am   BACKBONE|DICT|INTERRES
     7    4    5 1    
     8    4  130 1    
     9    5    6 1    
    10    5   65 1    
    11    5  131 1    
    12    6    7 1    
    13    6  132 1    
    14    6  133 1    
    15    7    8 1    
    16    8    9 1    
    17    8  134 1    
    18    8  135 1    
    19    9   10 ar   
    20    9   14 ar   
    21   10   11 ar   
    22   10  136 1    
    23   11   12 ar   
    24   11  126 1    
    25   12   13 ar   
    26   12  137 1    
    27   13   14 ar   
    28   13   15 1    
    29   14  138 1    
    30   15   16 1    
    31   15  139 1    
    32   15  140 1    
    33   16   17 1    
    34   17   18 1    
    35   17  141 1    
    36   17  142 1    
    37   18   19 1    
    38   18   67 1    
    39   18  143 1    
    40   19   20 am   BACKBONE|DICT|INTERRES
    41   19  144 1    
    42   20   21 2    
    43   20   22 1    
    44   22   23 1    
    45   22   24 1    
    46   22  145 1    
    47   23  146 1    
    48   23  147 1    
    49   23  148 1    
    50   24   25 am   BACKBONE|DICT|INTERRES
    51   24  149 1    
    52   25   26 2    
    53   25   27 1    
    54   27   28 1    
    55   27   29 1    
    56   27  150 1    
    57   28  151 1    
    58   28  152 1    
    59   28  153 1    
    60   29   30 am   BACKBONE|DICT|INTERRES
    61   29  154 1    
    62   30   31 2    
    63   30   32 1    
    64   32   33 1    
    65   32   34 1    
    66   32  155 1    
    67   33  156 1    
    68   33  157 1    
    69   33  158 1    
    70   34   35 am   BACKBONE|DICT|INTERRES
    71   34  159 1    
    72   35   36 2    
    73   35   37 1    
    74   37   38 1    
    75   37   39 1    
    76   37  160 1    
    77   38  161 1    
    78   38  162 1    
    79   38  163 1    
    80   39   40 am   BACKBONE|DICT|INTERRES
    81   39  164 1    
    82   40   41 2    
    83   40   42 1    
    84   42   43 1    
    85   42   44 1    
    86   42  165 1    
    87   43  166 1    
    88   43  167 1    
    89   43  168 1    
    90   44   45 am   BACKBONE|DICT|INTERRES
    91   44  169 1    
    92   45   46 2    
    93   45   47 1    
    94   47   48 1    
    95   47   49 1    
    96   47  170 1    
    97   48  171 1    
    98   48  172 1    
    99   48  173 1    
   100   49   50 am   BACKBONE|DICT|INTERRES
   101   49  174 1    
   102   50   51 2    
   103   50   52 1    
   104   52   53 1    
   105   52   54 1    
   106   52  175 1    
   107   53  176 1    
   108   53  177 1    
   109   53  178 1    
   110   54   55 am   BACKBONE|DICT|INTERRES
   111   54  179 1    
   112   55   56 2    
   113   55   57 1    
   114   57   58 1    
   115   57   59 1    
   116   57  180 1    
   117   58  181 1    
   118   58  182 1    
   119   58  183 1    
   120   59   60 am   BACKBONE|DICT|INTERRES
   121   59  184 1    
   122   60   61 2    
   123   60   62 1    
   124   62   63 1    
   125   62   64 1    
   126   62  185 1    
   127   63  186 1    
   128   63  187 1    
   129   63  188 1    
   130   64   65 am   BACKBONE|DICT|INTERRES
   131   64  189 1    
   132   65   66 2    
   133   67   68 2    
   134   67   69 am   BACKBONE|DICT|INTERRES
   135   69   70 1    
   136   69  190 1    
   137   70   71 1    
   138   70   72 1    
   139   70  191 1    
   140   71  192 1    
   141   71  193 1    
   142   71  194 1    
   143   72   73 2    
   144   72   74 am   BACKBONE|DICT|INTERRES
   145   74   75 1    
   146   74  195 1    
   147   75   76 1    
   148   75   77 1    
   149   75  196 1    
   150   76  197 1    
   151   76  198 1    
   152   76  199 1    
   153   77   78 2    
   154   77   79 am   BACKBONE|DICT|INTERRES
   155   79   80 1    
   156   79  200 1    
   157   80   81 1    
   158   80   82 1    
   159   80  201 1    
   160   81  202 1    
   161   81  203 1    
   162   81  204 1    
   163   82   83 2    
   164   82   84 am   BACKBONE|DICT|INTERRES
   165   84   85 1    
   166   84  205 1    
   167   85   86 1    
   168   85   87 1    
   169   85  206 1    
   170   86  207 1    
   171   86  208 1    
   172   86  209 1    
   173   87   88 2    
   174   87   89 am   BACKBONE|DICT|INTERRES
   175   89   90 1    
   176   89  210 1    
   177   90   91 1    
   178   90   92 1    
   179   90  211 1    
   180   91  212 1    
   181   91  213 1    
   182   91  214 1    
   183   92   93 2    
   184   92   94 am   BACKBONE|DICT|INTERRES
   185   94   95 1    
   186   94  215 1    
   187   95   96 1    
   188   95   97 1    
   189   95  216 1    
   190   96  217 1    
   191   96  218 1    
   192   96  219 1    
   193   97   98 2    
   194   97   99 am   BACKBONE|DICT|INTERRES
   195   99  100 1    
   196   99  220 1    
   197  100  101 1    
   198  100  102 1    
   199  100  221 1    
   200  101  222 1    
   201  101  223 1    
   202  101  224 1    
   203  102  103 2    
   204  102  104 am   BACKBONE|DICT|INTERRES
   205  104  105 1    
   206  104  225 1    
   207  105  106 1    
   208  105  107 1    
   209  105  226 1    
   210  106  227 1    
   211  106  228 1    
   212  106  229 1    
   213  107  108 2    
   214  107  109 am   BACKBONE|DICT|INTERRES
   215  109  110 1    
   216  109  230 1    
   217  110  111 1    
   218  110  112 1    
   219  110  231 1    
   220  111  232 1    
   221  111  233 1    
   222  111  234 1    
   223  112  113 2    
   224  112  114 am   BACKBONE|DICT|INTERRES
   225  114  115 1    
   226  114  235 1    
   227  115  116 1    
   228  115  117 1    
   229  115  236 1    
   230  116  237 1    
   231  116  238 1    
   232  116  239 1    
   233  117  118 2    
   234  117  119 am   BACKBONE|DICT|INTERRES
   235  119  120 1    
   236  119  240 1    
   237  120  121 1    
   238  120  124 1    
   239  120  241 1    
   240  121  122 am   BACKBONE|DICT|INTERRES
   241  121  123 2    
   242  122  242 1    
   243  122  243 1    
   244  124  125 1    
   245  124  244 1    
   246  124  245 1    
   247  125  126 1    
   248  126  246 1    
   249  126  247 1    
@<TRIPOS>SUBSTRUCTURE
     1 UNK         1 GROUP             0       ****    0 ROOT    
