@<TRIPOS>MOLECULE
3R540
247   249    1
SMALL
USER_CHARGES


@<TRIPOS>ATOM
      1 CA          2.9886  -13.7017  -52.0264 C.3       0 UNK        -0.1800 
      2 C           3.2336  -13.6741  -50.5243 C.2       0 UNK         0.5000 
      3 O           4.3639  -13.4527  -50.0902 O.2       0 UNK        -0.5000 
      4 N           2.1767  -13.8918  -49.7320 N.am      1 UNK        -0.5000 
      5 CA          2.2235  -13.9522  -48.2629 C.3       1 UNK         0.1400 
      6 C6          1.1056  -14.8565  -47.6820 C.3       23 UNK        -0.0398 
      7 S7          1.2403  -16.5695  -48.2927 S.3       23 UNK        -0.2404 
      8 C8         -0.2074  -16.6718  -49.3922 C.3       23 UNK        -0.0205 
      9 C9         -0.1163  -17.8642  -50.3322 C.ar      23 UNK        -0.0193 
     10 C10        -0.0933  -17.6750  -51.7171 C.ar      23 UNK        -0.1150 
     11 C11        -0.0225  -18.7720  -52.5813 C.ar      23 UNK        -0.0193 
     12 C12         0.0717  -20.0615  -52.0503 C.ar      23 UNK        -0.1150 
     13 C13         0.0498  -20.2644  -50.6680 C.ar      23 UNK        -0.0193 
     14 C14        -0.0695  -19.1621  -49.8185 C.ar      23 UNK        -0.1150 
     15 C15         0.1364  -21.6737  -50.1011 C.3       23 UNK        -0.0205 
     16 S16         1.7698  -22.0139  -49.3704 S.3       23 UNK        -0.2404 
     17 C17         1.4798  -21.5557  -47.6251 C.3       23 UNK        -0.0398 
     18 CA          1.3850  -22.7657  -46.6676 C.3       11 UNK         0.1400 
     19 N           1.2866  -22.3256  -45.2771 N.am      11 UNK        -0.5000 
     20 C           1.4374  -23.1213  -44.2107 C.2       10 UNK         0.5000 
     21 O           1.7913  -24.2982  -44.2781 O.2       10 UNK        -0.5000 
     22 CA          1.0970  -22.5070  -42.8407 C.3       10 UNK         0.1400 
     23 CB          2.3091  -21.7591  -42.2662 C.3       10 UNK        -0.1800 
     24 N          -0.0624  -21.6107  -42.8893 N.am      10 UNK        -0.5000 
     25 C          -1.3057  -22.0004  -43.2089 C.2       9 UNK         0.5000 
     26 O          -1.6077  -23.1642  -43.4696 O.2       9 UNK        -0.5000 
     27 CA         -2.3892  -20.9106  -43.2848 C.3       9 UNK         0.1400 
     28 CB         -2.8923  -20.5477  -41.8800 C.3       9 UNK        -0.1800 
     29 N          -1.9370  -19.7034  -43.9752 N.am      9 UNK        -0.5000 
     30 C          -1.5943  -19.6417  -45.2697 C.2       8 UNK         0.5000 
     31 O          -1.6507  -20.5980  -46.0419 O.2       8 UNK        -0.5000 
     32 CA         -1.0329  -18.3000  -45.7735 C.3       8 UNK         0.1400 
     33 CB         -2.1525  -17.2831  -46.0376 C.3       8 UNK        -0.1800 
     34 N          -0.0490  -17.7301  -44.8555 N.am      8 UNK        -0.5000 
     35 C           1.1133  -18.3187  -44.5369 C.2       7 UNK         0.5000 
     36 O           1.4979  -19.3873  -45.0137 O.2       7 UNK        -0.5000 
     37 CA          1.9592  -17.6213  -43.4600 C.3       7 UNK         0.1400 
     38 CB          2.7901  -16.4826  -44.0695 C.3       7 UNK        -0.1800 
     39 N           1.1286  -17.1058  -42.3704 N.am      7 UNK        -0.5000 
     40 C           0.4882  -17.8813  -41.4830 C.2       6 UNK         0.5000 
     41 O           0.5591  -19.1096  -41.4723 O.2       6 UNK        -0.5000 
     42 CA         -0.4190  -17.1679  -40.4644 C.3       6 UNK         0.1400 
     43 CB          0.4076  -16.6157  -39.2936 C.3       6 UNK        -0.1800 
     44 N          -1.1964  -16.0840  -41.0655 N.am      6 UNK        -0.5000 
     45 C          -2.1424  -16.2565  -41.9996 C.2       5 UNK         0.5000 
     46 O          -2.4877  -17.3564  -42.4273 O.2       5 UNK        -0.5000 
     47 CA         -2.7777  -14.9849  -42.5898 C.3       5 UNK         0.1400 
     48 CB         -4.0098  -14.5688  -41.7733 C.3       5 UNK        -0.1800 
     49 N          -1.8506  -13.8544  -42.6790 N.am      5 UNK        -0.5000 
     50 C          -0.7216  -13.8435  -43.3987 C.2       4 UNK         0.5000 
     51 O          -0.3201  -14.8049  -44.0594 O.2       4 UNK        -0.5000 
     52 CA          0.0770  -12.5296  -43.3868 C.3       4 UNK         0.1400 
     53 CB          1.5834  -12.7830  -43.2156 C.3       4 UNK        -0.1800 
     54 N          -0.1706  -11.7932  -44.6248 N.am      4 UNK        -0.5000 
     55 C          -1.2906  -11.0942  -44.8682 C.2       3 UNK         0.5000 
     56 O          -2.1731  -10.9340  -44.0227 O.2       3 UNK        -0.5000 
     57 CA         -1.4952  -10.5052  -46.2826 C.3       3 UNK         0.1400 
     58 CB         -2.1571   -9.1111  -46.2518 C.3       3 UNK        -0.1800 
     59 N          -0.2953  -10.5045  -47.1266 N.am      3 UNK        -0.5000 
     60 C           0.8294   -9.7914  -46.9639 C.2       2 UNK         0.5000 
     61 O           1.0040   -8.9741  -46.0588 O.2       2 UNK        -0.5000 
     62 CA          1.9512  -10.0764  -47.9884 C.3       2 UNK         0.1400 
     63 CB          3.3372   -9.5980  -47.5076 C.3       2 UNK        -0.1800 
     64 N           2.0099  -11.4868  -48.4037 N.am      2 UNK        -0.5000 
     65 C           2.1900  -12.5541  -47.6073 C.2       1 UNK         0.5000 
     66 O           2.2985  -12.4694  -46.3853 O.2       1 UNK        -0.5000 
     67 C           0.2236  -23.7198  -47.0251 C.2       11 UNK         0.5000 
     68 O           0.4715  -24.8056  -47.5489 O.2       11 UNK        -0.5000 
     69 N          -1.0181  -23.3227  -46.7077 N.am      12 UNK        -0.5000 
     70 CA         -2.2314  -24.0956  -46.9859 C.3       12 UNK         0.1400 
     71 CB         -3.4684  -23.2705  -46.6129 C.3       12 UNK        -0.1800 
     72 C          -2.2648  -25.4758  -46.3036 C.2       12 UNK         0.5000 
     73 O          -2.7593  -26.4363  -46.8964 O.2       12 UNK        -0.5000 
     74 N          -1.6787  -25.5650  -45.1015 N.am      13 UNK        -0.5000 
     75 CA         -1.4908  -26.7928  -44.3247 C.3       13 UNK         0.1400 
     76 CB         -0.9132  -26.4324  -42.9476 C.3       13 UNK        -0.1800 
     77 C          -0.6196  -27.8645  -45.0158 C.2       13 UNK         0.5000 
     78 O          -0.6995  -29.0323  -44.6339 O.2       13 UNK        -0.5000 
     79 N           0.1566  -27.4788  -46.0400 N.am      14 UNK        -0.5000 
     80 CA          0.9133  -28.3825  -46.9114 C.3       14 UNK         0.1400 
     81 CB          2.1821  -27.6628  -47.4015 C.3       14 UNK        -0.1800 
     82 C           0.0687  -28.9242  -48.0899 C.2       14 UNK         0.5000 
     83 O           0.6432  -29.4197  -49.0602 O.2       14 UNK        -0.5000 
     84 N          -1.2661  -28.8255  -47.9855 N.am      15 UNK        -0.5000 
     85 CA         -2.2889  -29.2090  -48.9621 C.3       15 UNK         0.1400 
     86 CB         -2.2086  -30.7079  -49.3236 C.3       15 UNK        -0.1800 
     87 C          -2.2718  -28.2725  -50.1831 C.2       15 UNK         0.5000 
     88 O          -2.0505  -28.7128  -51.3131 O.2       15 UNK        -0.5000 
     89 N          -2.5017  -26.9839  -49.9149 N.am      16 UNK        -0.5000 
     90 CA         -2.5907  -25.9127  -50.9030 C.3       16 UNK         0.1400 
     91 CB         -1.2349  -25.1873  -50.9762 C.3       16 UNK        -0.1800 
     92 C          -3.7273  -24.9513  -50.5179 C.2       16 UNK         0.5000 
     93 O          -4.3043  -25.0777  -49.4352 O.2       16 UNK        -0.5000 
     94 N          -4.0277  -23.9960  -51.4037 N.am      17 UNK        -0.5000 
     95 CA         -4.9367  -22.8858  -51.1224 C.3       17 UNK         0.1400 
     96 CB         -5.4717  -22.3256  -52.4499 C.3       17 UNK        -0.1800 
     97 C          -4.2008  -21.7845  -50.3411 C.2       17 UNK         0.5000 
     98 O          -3.0239  -21.5348  -50.6057 O.2       17 UNK        -0.5000 
     99 N          -4.9111  -21.1092  -49.4304 N.am      18 UNK        -0.5000 
    100 CA        -4.4295  -19.9244  -48.7184 C.3       18 UNK         0.1400 
    101 CB        -5.2195  -19.7729  -47.4046 C.3       18 UNK        -0.1800 
    102 C         -4.5629  -18.6921  -49.6338 C.2       18 UNK         0.5000 
    103 O         -5.5023  -17.9101  -49.4791 O.2       18 UNK        -0.5000 
    104 N         -3.6524  -18.5914  -50.6115 N.am      19 UNK        -0.5000 
    105 CA        -3.6677  -17.6676  -51.7470 C.3       19 UNK         0.1400 
    106 CB        -3.5785  -16.1907  -51.2999 C.3       19 UNK        -0.1800 
    107 C         -4.8493  -17.9794  -52.6825 C.2       19 UNK         0.5000 
    108 O         -4.7750  -18.9572  -53.4273 O.2       19 UNK        -0.5000 
    109 N         -5.9095  -17.1603  -52.6316 N.am      20 UNK        -0.5000 
    110 CA        -7.1231  -17.2386  -53.4489 C.3       20 UNK         0.1400 
    111 CB        -7.9480  -18.4963  -53.0921 C.3       20 UNK        -0.1800 
    112 C         -6.7865  -17.1102  -54.9475 C.2       20 UNK         0.5000 
    113 O         -6.5036  -16.0003  -55.4014 O.2       20 UNK        -0.5000 
    114 N         -6.7726  -18.2365  -55.6735 N.am      21 UNK        -0.5000 
    115 CA        -6.4507  -18.3368  -57.0997 C.3       21 UNK         0.1400 
    116 CB        -6.6192  -19.7973  -57.5456 C.3       21 UNK        -0.1800 
    117 C         -5.0478  -17.8175  -57.4773 C.2       21 UNK         0.5000 
    118 O         -4.8765  -17.3191  -58.5908 O.2       21 UNK        -0.5000 
    119 N         -4.0876  -17.9197  -56.5492 N.am      22 UNK        -0.5000 
    120 CA        -2.7335  -17.3525  -56.6692 C.3       22 UNK         0.1400 
    121 C         -2.5262  -16.0542  -55.8320 C.2       22 UNK         0.5000 
    122 N         -3.5645  -15.4461  -55.2683 N.am      22 UNK        -0.7600 
    123 O         -1.4054  -15.5681  -55.7112 O.2       22 UNK        -0.5000 
    124 C124       -1.6345  -18.4240  -56.4352 C.3       23 UNK        -0.0398 
    125 S125       -1.6527  -19.1653  -54.7681 S.3       23 UNK        -0.2404 
    126 C126       -0.0728  -18.5687  -54.0869 C.3       23 UNK        -0.0205 
    127 H127        1.9481  -13.9247  -52.2644 H         1 UNK         0.0600 
    128 H128        3.6133  -14.4631  -52.4936 H         1 UNK         0.0600 
    129 H129        3.2395  -12.7363  -52.4660 H         1 UNK         0.0600 
    130 H130        1.2762  -14.0709  -50.1507 H         1 UNK         0.3000 
    131 H131        3.1784  -14.3947  -47.9704 H         1 UNK         0.0600 
    132 H132        1.1689  -14.8984  -46.5931 H         1 UNK         0.0800 
    133 H133        0.1172  -14.4532  -47.9078 H         1 UNK         0.0800 
    134 H134       -1.1154  -16.7522  -48.7940 H         1 UNK         0.0800 
    135 H135       -0.2913  -15.7475  -49.9647 H         1 UNK         0.0800 
    136 H136       -0.1544  -16.6757  -52.1247 H         1 UNK         0.1150 
    137 H137        0.1366  -20.9088  -52.7184 H         1 UNK         0.1150 
    138 H138       -0.1042  -19.3060  -48.7521 H         1 UNK         0.1150 
    139 H139       -0.6539  -21.8292  -49.3652 H         1 UNK         0.0800 
    140 H140       -0.0455  -22.4030  -50.8907 H         1 UNK         0.0800 
    141 H141        2.3059  -20.9123  -47.3187 H         1 UNK         0.0800 
    142 H142        0.5844  -20.9440  -47.5335 H         1 UNK         0.0800 
    143 H143        2.3127  -23.3345  -46.7630 H         1 UNK         0.0600 
    144 H144        1.0570  -21.3484  -45.1245 H         1 UNK         0.3000 
    145 H145        0.8529  -23.3283  -42.1638 H         1 UNK         0.0600 
    146 H146        2.1098  -21.4044  -41.2549 H         1 UNK         0.0600 
    147 H147        3.1826  -22.4102  -42.2153 H         1 UNK         0.0600 
    148 H148        2.5763  -20.8968  -42.8775 H         1 UNK         0.0600 
    149 H149        0.1019  -20.6419  -42.6328 H         1 UNK         0.3000 
    150 H150       -3.2308  -21.3177  -43.8482 H         1 UNK         0.0600 
    151 H151       -3.2410  -21.4336  -41.3479 H         1 UNK         0.0600 
    152 H152       -3.7274  -19.8488  -41.9300 H         1 UNK         0.0600 
    153 H153       -2.1081  -20.0882  -41.2774 H         1 UNK         0.0600 
    154 H154       -1.9079  -18.8523  -43.4194 H         1 UNK         0.3000 
    155 H155       -0.5206  -18.4891  -46.7161 H         1 UNK         0.0600 
    156 H156       -1.7465  -16.3225  -46.3559 H         1 UNK         0.0600 
    157 H157       -2.7611  -17.1107  -45.1503 H         1 UNK         0.0600 
    158 H158       -2.8151  -17.6342  -46.8287 H         1 UNK         0.0600 
    159 H159       -0.2684  -16.8306  -44.4408 H         1 UNK         0.3000 
    160 H160        2.6491  -18.3583  -43.0439 H         1 UNK         0.0600 
    161 H161        2.1587  -15.7247  -44.5312 H         1 UNK         0.0600 
    162 H162        3.4589  -16.8620  -44.8430 H         1 UNK         0.0600 
    163 H163        3.4069  -15.9936  -43.3155 H         1 UNK         0.0600 
    164 H164        0.9677  -16.1096  -42.3541 H         1 UNK         0.3000 
    165 H165       -1.1196  -17.9066  -40.0692 H         1 UNK         0.0600 
    166 H166        1.1093  -15.8473  -39.6203 H         1 UNK         0.0600 
    167 H167       -0.2352  -16.1802  -38.5283 H         1 UNK         0.0600 
    168 H168        0.9865  -17.4082  -38.8175 H         1 UNK         0.0600 
    169 H169       -0.9777  -15.1439  -40.7710 H         1 UNK         0.3000 
    170 H170       -3.1056  -15.2221  -43.6037 H         1 UNK         0.0600 
    171 H171       -4.7301  -15.3856  -41.7097 H         1 UNK         0.0600 
    172 H172       -3.7419  -14.2868  -40.7543 H         1 UNK         0.0600 
    173 H173       -4.5204  -13.7225  -42.2333 H         1 UNK         0.0600 
    174 H174       -2.1304  -13.0057  -42.2074 H         1 UNK         0.3000 
    175 H175       -0.2479  -11.9214  -42.5398 H         1 UNK         0.0600 
    176 H176        2.1436  -11.8479  -43.2247 H         1 UNK         0.0600 
    177 H177        1.7887  -13.2780  -42.2659 H         1 UNK         0.0600 
    178 H178        1.9839  -13.4175  -44.0050 H         1 UNK         0.0600 
    179 H179        0.5244  -11.8986  -45.3546 H         1 UNK         0.3000 
    180 H180       -2.1959  -11.1803  -46.7758 H         1 UNK         0.0600 
    181 H181       -2.3005   -8.7193  -47.2587 H         1 UNK         0.0600 
    182 H182       -3.1398   -9.1544  -45.7807 H         1 UNK         0.0600 
    183 H183       -1.5617   -8.3900  -45.6916 H         1 UNK         0.0600 
    184 H184       -0.3178  -11.1497  -47.9035 H         1 UNK         0.3000 
    185 H185        1.6972   -9.5027  -48.8809 H         1 UNK         0.0600 
    186 H186        4.1049   -9.8020  -48.2540 H         1 UNK         0.0600 
    187 H187        3.3400   -8.5224  -47.3270 H         1 UNK         0.0600 
    188 H188        3.6346  -10.0862  -46.5790 H         1 UNK         0.0600 
    189 H189        1.9229  -11.6580  -49.3955 H         1 UNK         0.3000 
    190 H190       -1.1575  -22.4020  -46.2985 H         1 UNK         0.3000 
    191 H191       -2.2503  -24.2640  -48.0614 H         1 UNK         0.0600 
    192 H192       -4.3857  -23.8075  -46.8572 H         1 UNK         0.0600 
    193 H193       -3.4847  -22.3327  -47.1653 H         1 UNK         0.0600 
    194 H194       -3.4932  -23.0381  -45.5487 H         1 UNK         0.0600 
    195 H195       -1.3634  -24.7045  -44.6626 H         1 UNK         0.3000 
    196 H196       -2.4777  -27.2340  -44.1731 H         1 UNK         0.0600 
    197 H197       -0.7926  -27.3213  -42.3271 H         1 UNK         0.0600 
    198 H198       -1.5712  -25.7497  -42.4096 H         1 UNK         0.0600 
    199 H199        0.0640  -25.9576  -43.0342 H         1 UNK         0.0600 
    200 H200        0.1557  -26.5023  -46.3153 H         1 UNK         0.3000 
    201 H201        1.2346  -29.2481  -46.3288 H         1 UNK         0.0600 
    202 H202        2.7331  -27.2186  -46.5723 H         1 UNK         0.0600 
    203 H203        1.9476  -26.8710  -48.1129 H         1 UNK         0.0600 
    204 H204        2.8562  -28.3585  -47.9023 H         1 UNK         0.0600 
    205 H205       -1.6239  -28.3271  -47.1808 H         1 UNK         0.3000 
    206 H206       -3.2492  -29.0515  -48.4684 H         1 UNK         0.0600 
    207 H207       -2.2330  -31.3306  -48.4293 H         1 UNK         0.0600 
    208 H208       -3.0553  -30.9995  -49.9457 H         1 UNK         0.0600 
    209 H209       -1.3027  -30.9523  -49.8783 H         1 UNK         0.0600 
    210 H210       -2.7342  -26.7115  -48.9638 H         1 UNK         0.3000 
    211 H211       -2.8324  -26.3266  -51.8842 H         1 UNK         0.0600 
    212 H212       -0.9699  -24.7276  -50.0238 H         1 UNK         0.0600 
    213 H213       -1.2467  -24.4004  -51.7307 H         1 UNK         0.0600 
    214 H214       -0.4344  -25.8773  -51.2435 H         1 UNK         0.0600 
    215 H215       -3.4853  -23.9215  -52.2518 H         1 UNK         0.3000 
    216 H216       -5.7818  -23.2452  -50.5312 H         1 UNK         0.0600 
    217 H217       -6.1690  -21.5054  -52.2746 H         1 UNK         0.0600 
    218 H218       -6.0034  -23.0898  -53.0168 H         1 UNK         0.0600 
    219 H219       -4.6678  -21.9381  -53.0779 H         1 UNK         0.0600 
    220 H220       -5.8821  -21.3476  -49.2897 H         1 UNK         0.3000 
    221 H221       -3.3744  -20.0493  -48.4622 H         1 UNK         0.0600 
    222 H222       -6.2919  -19.6862  -47.5836 H         1 UNK         0.0600 
    223 H223       -5.0606  -20.6245  -46.7439 H         1 UNK         0.0600 
    224 H224       -4.9059  -18.8819  -46.8602 H         1 UNK         0.0600 
    225 H225       -2.9846  -19.3510  -50.6927 H         1 UNK         0.3000 
    226 H226       -2.7711  -17.8818  -52.3255 H         1 UNK         0.0600 
    227 H227       -2.6763  -16.0154  -50.7169 H         1 UNK         0.0600 
    228 H228       -3.5329  -15.5280  -52.1648 H         1 UNK         0.0600 
    229 H229       -4.4259  -15.8781  -50.6904 H         1 UNK         0.0600 
    230 H230       -5.8730  -16.3898  -51.9794 H         1 UNK         0.3000 
    231 H231       -7.7281  -16.3674  -53.1937 H         1 UNK         0.0600 
    232 H232       -8.8654  -18.5416  -53.6803 H         1 UNK         0.0600 
    233 H233       -8.2403  -18.4802  -52.0421 H         1 UNK         0.0600 
    234 H234       -7.3996  -19.4228  -53.2625 H         1 UNK         0.0600 
    235 H235       -6.9584  -19.1060  -55.1951 H         1 UNK         0.3000 
    236 H236       -7.1779  -17.7282  -57.6408 H         1 UNK         0.0600 
    237 H237       -5.9404  -20.4613  -57.0088 H         1 UNK         0.0600 
    238 H238       -7.6374  -20.1477  -57.3759 H         1 UNK         0.0600 
    239 H239       -6.4125  -19.9076  -58.6111 H         1 UNK         0.0600 
    240 H240       -4.3109  -18.3411  -55.6555 H         1 UNK         0.3000 
    241 H241       -2.5898  -17.0136  -57.6963 H         1 UNK         0.0600 
    242 H242       -4.5133  -15.7731  -55.4122 H         1 UNK         0.3800 
    243 H243       -3.4074  -14.5941  -54.7549 H         1 UNK         0.3800 
    244 H244       -1.7649  -19.2327  -57.1552 H         1 UNK         0.0800 
    245 H245       -0.6476  -18.0092  -56.6462 H         1 UNK         0.0800 
    246 H246        0.7533  -19.1018  -54.5594 H         1 UNK         0.0800 
    247 H247        0.0551  -17.5129  -54.3304 H         1 UNK         0.0800 
@<TRIPOS>BOND
     1    1    2 1    
     2    1  127 1    
     3    1  128 1    
     4    1  129 1    
     5    2    3 2    
     6    2    4 am   BACKBONE|DICT|INTERRES
     7    4    5 1    
     8    4  130 1    
     9    5    6 1    
    10    5   65 1    
    11    5  131 1    
    12    6    7 1    
    13    6  132 1    
    14    6  133 1    
    15    7    8 1    
    16    8    9 1    
    17    8  134 1    
    18    8  135 1    
    19    9   10 ar   
    20    9   14 ar   
    21   10   11 ar   
    22   10  136 1    
    23   11   12 ar   
    24   11  126 1    
    25   12   13 ar   
    26   12  137 1    
    27   13   14 ar   
    28   13   15 1    
    29   14  138 1    
    30   15   16 1    
    31   15  139 1    
    32   15  140 1    
    33   16   17 1    
    34   17   18 1    
    35   17  141 1    
    36   17  142 1    
    37   18   19 1    
    38   18   67 1    
    39   18  143 1    
    40   19   20 am   BACKBONE|DICT|INTERRES
    41   19  144 1    
    42   20   21 2    
    43   20   22 1    
    44   22   23 1    
    45   22   24 1    
    46   22  145 1    
    47   23  146 1    
    48   23  147 1    
    49   23  148 1    
    50   24   25 am   BACKBONE|DICT|INTERRES
    51   24  149 1    
    52   25   26 2    
    53   25   27 1    
    54   27   28 1    
    55   27   29 1    
    56   27  150 1    
    57   28  151 1    
    58   28  152 1    
    59   28  153 1    
    60   29   30 am   BACKBONE|DICT|INTERRES
    61   29  154 1    
    62   30   31 2    
    63   30   32 1    
    64   32   33 1    
    65   32   34 1    
    66   32  155 1    
    67   33  156 1    
    68   33  157 1    
    69   33  158 1    
    70   34   35 am   BACKBONE|DICT|INTERRES
    71   34  159 1    
    72   35   36 2    
    73   35   37 1    
    74   37   38 1    
    75   37   39 1    
    76   37  160 1    
    77   38  161 1    
    78   38  162 1    
    79   38  163 1    
    80   39   40 am   BACKBONE|DICT|INTERRES
    81   39  164 1    
    82   40   41 2    
    83   40   42 1    
    84   42   43 1    
    85   42   44 1    
    86   42  165 1    
    87   43  166 1    
    88   43  167 1    
    89   43  168 1    
    90   44   45 am   BACKBONE|DICT|INTERRES
    91   44  169 1    
    92   45   46 2    
    93   45   47 1    
    94   47   48 1    
    95   47   49 1    
    96   47  170 1    
    97   48  171 1    
    98   48  172 1    
    99   48  173 1    
   100   49   50 am   BACKBONE|DICT|INTERRES
   101   49  174 1    
   102   50   51 2    
   103   50   52 1    
   104   52   53 1    
   105   52   54 1    
   106   52  175 1    
   107   53  176 1    
   108   53  177 1    
   109   53  178 1    
   110   54   55 am   BACKBONE|DICT|INTERRES
   111   54  179 1    
   112   55   56 2    
   113   55   57 1    
   114   57   58 1    
   115   57   59 1    
   116   57  180 1    
   117   58  181 1    
   118   58  182 1    
   119   58  183 1    
   120   59   60 am   BACKBONE|DICT|INTERRES
   121   59  184 1    
   122   60   61 2    
   123   60   62 1    
   124   62   63 1    
   125   62   64 1    
   126   62  185 1    
   127   63  186 1    
   128   63  187 1    
   129   63  188 1    
   130   64   65 am   BACKBONE|DICT|INTERRES
   131   64  189 1    
   132   65   66 2    
   133   67   68 2    
   134   67   69 am   BACKBONE|DICT|INTERRES
   135   69   70 1    
   136   69  190 1    
   137   70   71 1    
   138   70   72 1    
   139   70  191 1    
   140   71  192 1    
   141   71  193 1    
   142   71  194 1    
   143   72   73 2    
   144   72   74 am   BACKBONE|DICT|INTERRES
   145   74   75 1    
   146   74  195 1    
   147   75   76 1    
   148   75   77 1    
   149   75  196 1    
   150   76  197 1    
   151   76  198 1    
   152   76  199 1    
   153   77   78 2    
   154   77   79 am   BACKBONE|DICT|INTERRES
   155   79   80 1    
   156   79  200 1    
   157   80   81 1    
   158   80   82 1    
   159   80  201 1    
   160   81  202 1    
   161   81  203 1    
   162   81  204 1    
   163   82   83 2    
   164   82   84 am   BACKBONE|DICT|INTERRES
   165   84   85 1    
   166   84  205 1    
   167   85   86 1    
   168   85   87 1    
   169   85  206 1    
   170   86  207 1    
   171   86  208 1    
   172   86  209 1    
   173   87   88 2    
   174   87   89 am   BACKBONE|DICT|INTERRES
   175   89   90 1    
   176   89  210 1    
   177   90   91 1    
   178   90   92 1    
   179   90  211 1    
   180   91  212 1    
   181   91  213 1    
   182   91  214 1    
   183   92   93 2    
   184   92   94 am   BACKBONE|DICT|INTERRES
   185   94   95 1    
   186   94  215 1    
   187   95   96 1    
   188   95   97 1    
   189   95  216 1    
   190   96  217 1    
   191   96  218 1    
   192   96  219 1    
   193   97   98 2    
   194   97   99 am   BACKBONE|DICT|INTERRES
   195   99  100 1    
   196   99  220 1    
   197  100  101 1    
   198  100  102 1    
   199  100  221 1    
   200  101  222 1    
   201  101  223 1    
   202  101  224 1    
   203  102  103 2    
   204  102  104 am   BACKBONE|DICT|INTERRES
   205  104  105 1    
   206  104  225 1    
   207  105  106 1    
   208  105  107 1    
   209  105  226 1    
   210  106  227 1    
   211  106  228 1    
   212  106  229 1    
   213  107  108 2    
   214  107  109 am   BACKBONE|DICT|INTERRES
   215  109  110 1    
   216  109  230 1    
   217  110  111 1    
   218  110  112 1    
   219  110  231 1    
   220  111  232 1    
   221  111  233 1    
   222  111  234 1    
   223  112  113 2    
   224  112  114 am   BACKBONE|DICT|INTERRES
   225  114  115 1    
   226  114  235 1    
   227  115  116 1    
   228  115  117 1    
   229  115  236 1    
   230  116  237 1    
   231  116  238 1    
   232  116  239 1    
   233  117  118 2    
   234  117  119 am   BACKBONE|DICT|INTERRES
   235  119  120 1    
   236  119  240 1    
   237  120  121 1    
   238  120  124 1    
   239  120  241 1    
   240  121  122 am   BACKBONE|DICT|INTERRES
   241  121  123 2    
   242  122  242 1    
   243  122  243 1    
   244  124  125 1    
   245  124  244 1    
   246  124  245 1    
   247  125  126 1    
   248  126  246 1    
   249  126  247 1    
@<TRIPOS>SUBSTRUCTURE
     1 UNK         1 GROUP             0       ****    0 ROOT    
