@<TRIPOS>MOLECULE
3R540
247   249    1
SMALL
USER_CHARGES


@<TRIPOS>ATOM
      1 CA          4.7005  -17.1054  -44.7486 C.3       0 UNK        -0.1800 
      2 C           4.2888  -15.8780  -45.5473 C.2       0 UNK         0.5000 
      3 O           3.6510  -14.9767  -45.0032 O.2       0 UNK        -0.5000 
      4 N           4.6823  -15.8244  -46.8260 N.am      1 UNK        -0.5000 
      5 CA          4.3514  -14.7942  -47.8249 C.3       1 UNK         0.1400 
      6 C6          4.5702  -15.3497  -49.2573 C.3       23 UNK        -0.0398 
      7 S7          3.4396  -14.6320  -50.4975 S.3       23 UNK        -0.2404 
      8 C8          3.3667  -15.9713  -51.7316 C.3       23 UNK        -0.0205 
      9 C9          2.4365  -17.0926  -51.2941 C.ar      23 UNK        -0.0193 
     10 C10         1.0662  -17.0057  -51.5592 C.ar      23 UNK        -0.1150 
     11 C11         0.1975  -18.0189  -51.1453 C.ar      23 UNK        -0.0193 
     12 C12         0.7122  -19.1226  -50.4602 C.ar      23 UNK        -0.1150 
     13 C13         2.0768  -19.2189  -50.1813 C.ar      23 UNK        -0.0193 
     14 C14         2.9383  -18.2116  -50.6205 C.ar      23 UNK        -0.1150 
     15 C15         2.6058  -20.4017  -49.3860 C.3       23 UNK        -0.0205 
     16 S16         2.4616  -20.0862  -47.5977 S.3       23 UNK        -0.2404 
     17 C17         2.5337  -21.7715  -46.9103 C.3       23 UNK        -0.0398 
     18 CA          1.1678  -22.4308  -46.5851 C.3       11 UNK         0.1400 
     19 N           0.3725  -21.7391  -45.5610 N.am      11 UNK        -0.5000 
     20 C          -0.6012  -22.3572  -44.8703 C.2       10 UNK         0.5000 
     21 O          -0.8629  -23.5552  -44.9960 O.2       10 UNK        -0.5000 
     22 CA         -1.4614  -21.5056  -43.9201 C.3       10 UNK         0.1400 
     23 CB         -0.7226  -21.2190  -42.6043 C.3       10 UNK        -0.1800 
     24 N          -1.9154  -20.2584  -44.5348 N.am      10 UNK        -0.5000 
     25 C          -2.7741  -20.1960  -45.5625 C.2       9 UNK         0.5000 
     26 O          -3.2964  -21.1885  -46.0673 O.2       9 UNK        -0.5000 
     27 CA         -3.0840  -18.8061  -46.1534 C.3       9 UNK         0.1400 
     28 CB         -4.2888  -18.1697  -45.4472 C.3       9 UNK        -0.1800 
     29 N          -1.9439  -17.8887  -46.1160 N.am      9 UNK        -0.5000 
     30 C          -0.7917  -18.0991  -46.7684 C.2       8 UNK         0.5000 
     31 O          -0.6029  -19.0761  -47.4883 O.2       8 UNK        -0.5000 
     32 CA          0.3577  -17.1045  -46.5080 C.3       8 UNK         0.1400 
     33 CB          0.1710  -15.8022  -47.2993 C.3       8 UNK        -0.1800 
     34 N           0.5038  -16.8045  -45.0833 N.am      8 UNK        -0.5000 
     35 C           0.8259  -17.7136  -44.1513 C.2       7 UNK         0.5000 
     36 O           1.1300  -18.8791  -44.4070 O.2       7 UNK        -0.5000 
     37 CA          0.7264  -17.2646  -42.6829 C.3       7 UNK         0.1400 
     38 CB          2.0011  -16.5415  -42.2252 C.3       7 UNK        -0.1800 
     39 N          -0.4379  -16.4065  -42.4604 N.am      7 UNK        -0.5000 
     40 C          -1.7030  -16.8496  -42.4355 C.2       6 UNK         0.5000 
     41 O          -2.0098  -18.0346  -42.5524 O.2       6 UNK        -0.5000 
     42 CA         -2.8138  -15.7932  -42.2830 C.3       6 UNK         0.1400 
     43 CB         -3.0826  -15.5067  -40.7983 C.3       6 UNK        -0.1800 
     44 N          -2.5005  -14.5380  -42.9656 N.am      6 UNK        -0.5000 
     45 C          -2.4061  -14.3934  -44.2955 C.2       5 UNK         0.5000 
     46 O          -2.6382  -15.2957  -45.0976 O.2       5 UNK        -0.5000 
     47 CA         -1.9075  -13.0269  -44.8067 C.3       5 UNK         0.1400 
     48 CB         -3.0855  -12.0658  -45.0223 C.3       5 UNK        -0.1800 
     49 N          -0.9338  -12.4127  -43.8978 N.am      5 UNK        -0.5000 
     50 C           0.2623  -12.9449  -43.6172 C.2       4 UNK         0.5000 
     51 O           0.6982  -13.9632  -44.1588 O.2       4 UNK        -0.5000 
     52 CA          1.0490  -12.2925  -42.4757 C.3       4 UNK         0.1400 
     53 CB          0.4862  -12.7792  -41.1222 C.3       4 UNK        -0.1800 
     54 N           2.4597  -12.6466  -42.6048 N.am      4 UNK        -0.5000 
     55 C           3.4578  -12.1458  -41.8665 C.2       3 UNK         0.5000 
     56 O           3.3064  -11.2968  -40.9869 O.2       3 UNK        -0.5000 
     57 CA          4.8713  -12.6670  -42.1746 C.3       3 UNK         0.1400 
     58 CB          5.0663  -14.0878  -41.6215 C.3       3 UNK        -0.1800 
     59 N           5.1766  -12.6593  -43.6038 N.am      3 UNK        -0.5000 
     60 C           5.3443  -11.5541  -44.3467 C.2       2 UNK         0.5000 
     61 O           5.2444  -10.4091  -43.9049 O.2       2 UNK        -0.5000 
     62 CA          5.6955  -11.7598  -45.8282 C.3       2 UNK         0.1400 
     63 CB          7.2289  -11.7948  -45.9960 C.3       2 UNK        -0.1800 
     64 N           5.0745  -12.9842  -46.3322 N.am      2 UNK        -0.5000 
     65 C           5.0799  -13.4448  -47.5852 C.2       1 UNK         0.5000 
     66 O           5.6339  -12.8578  -48.5164 O.2       1 UNK        -0.5000 
     67 C           0.3321  -22.7617  -47.8403 C.2       11 UNK         0.5000 
     68 O           0.5696  -23.8017  -48.4538 O.2       11 UNK        -0.5000 
     69 N          -0.6636  -21.9227  -48.1703 N.am      12 UNK        -0.5000 
     70 CA         -1.6482  -22.1900  -49.2202 C.3       12 UNK         0.1400 
     71 CB         -2.5611  -20.9740  -49.4295 C.3       12 UNK        -0.1800 
     72 C          -2.4932  -23.4349  -48.9105 C.2       12 UNK         0.5000 
     73 O          -2.6394  -24.2919  -49.7779 O.2       12 UNK        -0.5000 
     74 N          -3.0007  -23.5351  -47.6747 N.am      13 UNK        -0.5000 
     75 CA         -3.7693  -24.6789  -47.1847 C.3       13 UNK         0.1400 
     76 CB         -4.3269  -24.3693  -45.7881 C.3       13 UNK        -0.1800 
     77 C          -2.9506  -25.9820  -47.1791 C.2       13 UNK         0.5000 
     78 O          -3.4698  -27.0212  -47.5867 O.2       13 UNK        -0.5000 
     79 N          -1.6717  -25.8948  -46.7837 N.am      14 UNK        -0.5000 
     80 CA         -0.7080  -26.9983  -46.8413 C.3       14 UNK         0.1400 
     81 CB          0.5861  -26.5855  -46.1247 C.3       14 UNK        -0.1800 
     82 C          -0.4102  -27.4681  -48.2810 C.2       14 UNK         0.5000 
     83 O          -0.2261  -28.6648  -48.5043 O.2       14 UNK        -0.5000 
     84 N          -0.4073  -26.5258  -49.2333 N.am      15 UNK        -0.5000 
     85 CA         -0.2620  -26.7670  -50.6710 C.3       15 UNK         0.1400 
     86 CB          0.3030  -25.4951  -51.3262 C.3       15 UNK        -0.1800 
     87 C          -1.5740  -27.2024  -51.3623 C.2       15 UNK         0.5000 
     88 O          -1.5541  -27.4588  -52.5669 O.2       15 UNK        -0.5000 
     89 N          -2.6811  -27.2704  -50.6068 N.am      16 UNK        -0.5000 
     90 CA         -4.0457  -27.5956  -51.0368 C.3       16 UNK         0.1400 
     91 CB         -4.1307  -29.0310  -51.5979 C.3       16 UNK        -0.1800 
     92 C          -4.6709  -26.5354  -51.9713 C.2       16 UNK         0.5000 
     93 O          -5.5152  -26.8703  -52.8048 O.2       16 UNK        -0.5000 
     94 N          -4.2647  -25.2724  -51.7955 N.am      17 UNK        -0.5000 
     95 CA         -4.8556  -24.0882  -52.4079 C.3       17 UNK         0.1400 
     96 CB         -3.7260  -23.1611  -52.9035 C.3       17 UNK        -0.1800 
     97 C          -5.8088  -23.4416  -51.3815 C.2       17 UNK         0.5000 
     98 O          -6.7732  -24.0925  -50.9768 O.2       17 UNK        -0.5000 
     99 N          -5.5428  -22.1852  -50.9888 N.am      18 UNK        -0.5000 
    100 CA        -6.3441  -21.3483  -50.0817 C.3       18 UNK         0.1400 
    101 CB        -6.4123  -21.9515  -48.6624 C.3       18 UNK        -0.1800 
    102 C         -7.7290  -20.9971  -50.6692 C.2       18 UNK         0.5000 
    103 O         -8.7054  -20.8572  -49.9307 O.2       18 UNK        -0.5000 
    104 N         -7.7703  -20.8575  -51.9987 N.am      19 UNK        -0.5000 
    105 CA        -8.9287  -20.4862  -52.8064 C.3       19 UNK         0.1400 
    106 CB        -9.9870  -21.6068  -52.8243 C.3       19 UNK        -0.1800 
    107 C         -8.4566  -20.1491  -54.2272 C.2       19 UNK         0.5000 
    108 O         -8.7758  -19.0762  -54.7392 O.2       19 UNK        -0.5000 
    109 N         -7.6742  -21.0617  -54.8271 N.am      20 UNK        -0.5000 
    110 CA        -7.0282  -20.8750  -56.1326 C.3       20 UNK         0.1400 
    111 CB        -6.4901  -22.2266  -56.6277 C.3       20 UNK        -0.1800 
    112 C         -5.8979  -19.8286  -56.0773 C.2       20 UNK         0.5000 
    113 O         -5.7285  -19.0478  -57.0142 O.2       20 UNK        -0.5000 
    114 N         -5.1787  -19.8212  -54.9524 N.am      21 UNK        -0.5000 
    115 CA        -4.2394  -18.7993  -54.5214 C.3       21 UNK         0.1400 
    116 CB        -2.8028  -19.2511  -54.8280 C.3       21 UNK        -0.1800 
    117 C         -4.4678  -18.6419  -53.0136 C.2       21 UNK         0.5000 
    118 O         -4.6743  -19.6554  -52.3364 O.2       21 UNK        -0.5000 
    119 N         -4.4438  -17.3953  -52.5255 N.am      22 UNK        -0.5000 
    120 CA        -4.7989  -17.0052  -51.1471 C.3       22 UNK         0.1400 
    121 C         -6.2899  -17.3179  -50.7884 C.2       22 UNK         0.5000 
    122 N         -6.6737  -17.2975  -49.5182 N.am      22 UNK        -0.7600 
    123 O         -7.1302  -17.5324  -51.6589 O.2       22 UNK        -0.5000 
    124 C124       -3.7810  -17.5357  -50.0954 C.3       23 UNK        -0.0398 
    125 S125       -2.1176  -16.8021  -50.2540 S.3       23 UNK        -0.2404 
    126 C126       -1.2928  -17.9187  -51.4310 C.3       23 UNK        -0.0205 
    127 H127        5.0767  -16.8105  -43.7691 H         1 UNK         0.0600 
    128 H128        5.4814  -17.6730  -45.2550 H         1 UNK         0.0600 
    129 H129        3.8428  -17.7618  -44.6049 H         1 UNK         0.0600 
    130 H130        5.2502  -16.5825  -47.1760 H         1 UNK         0.3000 
    131 H131        3.2859  -14.5875  -47.7061 H         1 UNK         0.0600 
    132 H132        5.6027  -15.2294  -49.5903 H         1 UNK         0.0800 
    133 H133        4.3988  -16.4233  -49.2466 H         1 UNK         0.0800 
    134 H134        3.0171  -15.5567  -52.6783 H         1 UNK         0.0800 
    135 H135        4.3703  -16.3550  -51.9220 H         1 UNK         0.0800 
    136 H136        0.6725  -16.1420  -52.0765 H         1 UNK         0.1150 
    137 H137        0.0527  -19.9045  -50.1200 H         1 UNK         0.1150 
    138 H138        3.9965  -18.2931  -50.4181 H         1 UNK         0.1150 
    139 H139        2.0483  -21.2981  -49.6590 H         1 UNK         0.0800 
    140 H140        3.6491  -20.5985  -49.6367 H         1 UNK         0.0800 
    141 H141        3.1242  -21.7180  -45.9949 H         1 UNK         0.0800 
    142 H142        3.1082  -22.4085  -47.5851 H         1 UNK         0.0800 
    143 H143        1.4289  -23.4005  -46.1556 H         1 UNK         0.0600 
    144 H144        0.5435  -20.7481  -45.4258 H         1 UNK         0.3000 
    145 H145       -2.3509  -22.0897  -43.6746 H         1 UNK         0.0600 
    146 H146       -1.3534  -20.6634  -41.9104 H         1 UNK         0.0600 
    147 H147       -0.4379  -22.1486  -42.1102 H         1 UNK         0.0600 
    148 H148        0.1885  -20.6442  -42.7633 H         1 UNK         0.0600 
    149 H149       -1.5725  -19.3954  -44.1306 H         1 UNK         0.3000 
    150 H150       -3.3500  -18.9501  -47.2020 H         1 UNK         0.0600 
    151 H151       -5.1629  -18.8195  -45.5062 H         1 UNK         0.0600 
    152 H152       -4.5585  -17.2183  -45.9059 H         1 UNK         0.0600 
    153 H153       -4.0854  -17.9882  -44.3921 H         1 UNK         0.0600 
    154 H154       -2.0609  -17.0314  -45.5824 H         1 UNK         0.3000 
    155 H155        1.2886  -17.5627  -46.8438 H         1 UNK         0.0600 
    156 H156       -0.7843  -15.3260  -47.0800 H         1 UNK         0.0600 
    157 H157        0.2034  -15.9976  -48.3719 H         1 UNK         0.0600 
    158 H158        0.9618  -15.0868  -47.0742 H         1 UNK         0.0600 
    159 H159        0.3384  -15.8462  -44.7936 H         1 UNK         0.3000 
    160 H160        0.6138  -18.1602  -42.0680 H         1 UNK         0.0600 
    161 H161        2.1963  -15.6502  -42.8195 H         1 UNK         0.0600 
    162 H162        2.8705  -17.1928  -42.3169 H         1 UNK         0.0600 
    163 H163        1.9320  -16.2387  -41.1805 H         1 UNK         0.0600 
    164 H164       -0.2675  -15.4136  -42.4187 H         1 UNK         0.3000 
    165 H165       -3.7260  -16.2009  -42.7233 H         1 UNK         0.0600 
    166 H166       -3.9170  -14.8160  -40.6746 H         1 UNK         0.0600 
    167 H167       -3.3392  -16.4230  -40.2648 H         1 UNK         0.0600 
    168 H168       -2.2110  -15.0732  -40.3061 H         1 UNK         0.0600 
    169 H169       -2.3078  -13.7387  -42.3813 H         1 UNK         0.3000 
    170 H170       -1.4174  -13.1911  -45.7688 H         1 UNK         0.0600 
    171 H171       -3.8154  -12.4930  -45.7114 H         1 UNK         0.0600 
    172 H172       -3.6047  -11.8467  -44.0884 H         1 UNK         0.0600 
    173 H173       -2.7503  -11.1211  -45.4508 H         1 UNK         0.0600 
    174 H174       -1.2301  -11.5767  -43.4145 H         1 UNK         0.3000 
    175 H175        0.9475  -11.2084  -42.5549 H         1 UNK         0.0600 
    176 H176        0.6411  -13.8498  -40.9846 H         1 UNK         0.0600 
    177 H177        0.9546  -12.2673  -40.2822 H         1 UNK         0.0600 
    178 H178       -0.5848  -12.5886  -41.0445 H         1 UNK         0.0600 
    179 H179        2.6560  -13.3295  -43.3292 H         1 UNK         0.3000 
    180 H180        5.5846  -12.0096  -41.6727 H         1 UNK         0.0600 
    181 H181        4.4262  -14.8102  -42.1279 H         1 UNK         0.0600 
    182 H182        4.8311  -14.1294  -40.5572 H         1 UNK         0.0600 
    183 H183        6.0987  -14.4174  -41.7387 H         1 UNK         0.0600 
    184 H184        5.2785  -13.5641  -44.0383 H         1 UNK         0.3000 
    185 H185        5.2921  -10.9142  -46.3886 H         1 UNK         0.0600 
    186 H186        7.6929  -10.9223  -45.5340 H         1 UNK         0.0600 
    187 H187        7.6622  -12.6814  -45.5316 H         1 UNK         0.0600 
    188 H188        7.5229  -11.7887  -47.0450 H         1 UNK         0.0600 
    189 H189        4.5248  -13.5198  -45.6639 H         1 UNK         0.3000 
    190 H190       -0.7473  -21.0397  -47.6739 H         1 UNK         0.3000 
    191 H191       -1.0967  -22.3669  -50.1458 H         1 UNK         0.0600 
    192 H192       -2.0078  -20.0403  -49.3948 H         1 UNK         0.0600 
    193 H193       -3.0482  -21.0236  -50.4021 H         1 UNK         0.0600 
    194 H194       -3.3453  -20.9086  -48.6768 H         1 UNK         0.0600 
    195 H195       -2.8857  -22.7556  -47.0313 H         1 UNK         0.3000 
    196 H196       -4.6139  -24.8220  -47.8623 H         1 UNK         0.0600 
    197 H197       -4.9164  -25.2045  -45.4082 H         1 UNK         0.0600 
    198 H198       -4.9777  -23.4950  -45.8107 H         1 UNK         0.0600 
    199 H199       -3.5305  -24.1736  -45.0697 H         1 UNK         0.0600 
    200 H200       -1.3358  -25.0090  -46.4201 H         1 UNK         0.3000 
    201 H201       -1.1401  -27.8428  -46.3006 H         1 UNK         0.0600 
    202 H202        0.3889  -26.2740  -45.0988 H         1 UNK         0.0600 
    203 H203        1.0840  -25.7621  -46.6359 H         1 UNK         0.0600 
    204 H204        1.2901  -27.4176  -46.0836 H         1 UNK         0.0600 
    205 H205       -0.5149  -25.5567  -48.9550 H         1 UNK         0.3000 
    206 H206        0.4614  -27.5711  -50.8192 H         1 UNK         0.0600 
    207 H207        1.2494  -25.2039  -50.8703 H         1 UNK         0.0600 
    208 H208        0.4901  -25.6490  -52.3895 H         1 UNK         0.0600 
    209 H209       -0.3849  -24.6546  -51.2330 H         1 UNK         0.0600 
    210 H210       -2.5921  -27.0194  -49.6302 H         1 UNK         0.3000 
    211 H211       -4.6490  -27.5719  -50.1284 H         1 UNK         0.0600 
    212 H212       -3.6233  -29.1238  -52.5583 H         1 UNK         0.0600 
    213 H213       -5.1685  -29.3298  -51.7490 H         1 UNK         0.0600 
    214 H214       -3.6848  -29.7499  -50.9106 H         1 UNK         0.0600 
    215 H215       -3.5899  -25.0812  -51.0555 H         1 UNK         0.3000 
    216 H216       -5.4591  -24.3691  -53.2733 H         1 UNK         0.0600 
    217 H217       -3.0689  -22.8415  -52.0948 H         1 UNK         0.0600 
    218 H218       -4.1243  -22.2699  -53.3891 H         1 UNK         0.0600 
    219 H219       -3.1060  -23.6718  -53.6405 H         1 UNK         0.0600 
    220 H220       -4.7612  -21.7046  -51.4160 H         1 UNK         0.3000 
    221 H221       -5.8112  -20.4004  -49.9969 H         1 UNK         0.0600 
    222 H222       -6.9926  -22.8737  -48.6370 H         1 UNK         0.0600 
    223 H223       -5.4177  -22.1707  -48.2772 H         1 UNK         0.0600 
    224 H224       -6.8786  -21.2545  -47.9655 H         1 UNK         0.0600 
    225 H225       -6.8889  -20.8977  -52.4877 H         1 UNK         0.3000 
    226 H226       -9.3717  -19.5848  -52.3775 H         1 UNK         0.0600 
    227 H227      -10.4197  -21.7627  -51.8363 H         1 UNK         0.0600 
    228 H228      -10.8081  -21.3571  -53.4974 H         1 UNK         0.0600 
    229 H229       -9.5655  -22.5564  -53.1557 H         1 UNK         0.0600 
    230 H230       -7.5221  -21.9486  -54.3705 H         1 UNK         0.3000 
    231 H231       -7.7789  -20.5222  -56.8430 H         1 UNK         0.0600 
    232 H232       -5.7456  -22.6409  -55.9465 H         1 UNK         0.0600 
    233 H233       -6.0180  -22.1230  -57.6056 H         1 UNK         0.0600 
    234 H234       -7.2932  -22.9564  -56.7319 H         1 UNK         0.0600 
    235 H235       -5.4123  -20.4791  -54.2244 H         1 UNK         0.3000 
    236 H236       -4.4503  -17.8540  -55.0259 H         1 UNK         0.0600 
    237 H237       -2.6733  -19.4532  -55.8914 H         1 UNK         0.0600 
    238 H238       -2.0841  -18.4784  -54.5556 H         1 UNK         0.0600 
    239 H239       -2.5386  -20.1575  -54.2812 H         1 UNK         0.0600 
    240 H240       -4.2848  -16.6277  -53.1615 H         1 UNK         0.3000 
    241 H241       -4.7454  -15.9162  -51.1345 H         1 UNK         0.0600 
    242 H242       -7.6435  -17.4752  -49.3084 H         1 UNK         0.3800 
    243 H243       -6.0440  -17.0643  -48.7683 H         1 UNK         0.3800 
    244 H244       -4.1017  -17.2893  -49.0835 H         1 UNK         0.0800 
    245 H245       -3.7238  -18.6208  -50.1261 H         1 UNK         0.0800 
    246 H246       -1.4455  -17.5369  -52.4404 H         1 UNK         0.0800 
    247 H247       -1.7484  -18.9084  -51.4088 H         1 UNK         0.0800 
@<TRIPOS>BOND
     1    1    2 1    
     2    1  127 1    
     3    1  128 1    
     4    1  129 1    
     5    2    3 2    
     6    2    4 am   BACKBONE|DICT|INTERRES
     7    4    5 1    
     8    4  130 1    
     9    5    6 1    
    10    5   65 1    
    11    5  131 1    
    12    6    7 1    
    13    6  132 1    
    14    6  133 1    
    15    7    8 1    
    16    8    9 1    
    17    8  134 1    
    18    8  135 1    
    19    9   10 ar   
    20    9   14 ar   
    21   10   11 ar   
    22   10  136 1    
    23   11   12 ar   
    24   11  126 1    
    25   12   13 ar   
    26   12  137 1    
    27   13   14 ar   
    28   13   15 1    
    29   14  138 1    
    30   15   16 1    
    31   15  139 1    
    32   15  140 1    
    33   16   17 1    
    34   17   18 1    
    35   17  141 1    
    36   17  142 1    
    37   18   19 1    
    38   18   67 1    
    39   18  143 1    
    40   19   20 am   BACKBONE|DICT|INTERRES
    41   19  144 1    
    42   20   21 2    
    43   20   22 1    
    44   22   23 1    
    45   22   24 1    
    46   22  145 1    
    47   23  146 1    
    48   23  147 1    
    49   23  148 1    
    50   24   25 am   BACKBONE|DICT|INTERRES
    51   24  149 1    
    52   25   26 2    
    53   25   27 1    
    54   27   28 1    
    55   27   29 1    
    56   27  150 1    
    57   28  151 1    
    58   28  152 1    
    59   28  153 1    
    60   29   30 am   BACKBONE|DICT|INTERRES
    61   29  154 1    
    62   30   31 2    
    63   30   32 1    
    64   32   33 1    
    65   32   34 1    
    66   32  155 1    
    67   33  156 1    
    68   33  157 1    
    69   33  158 1    
    70   34   35 am   BACKBONE|DICT|INTERRES
    71   34  159 1    
    72   35   36 2    
    73   35   37 1    
    74   37   38 1    
    75   37   39 1    
    76   37  160 1    
    77   38  161 1    
    78   38  162 1    
    79   38  163 1    
    80   39   40 am   BACKBONE|DICT|INTERRES
    81   39  164 1    
    82   40   41 2    
    83   40   42 1    
    84   42   43 1    
    85   42   44 1    
    86   42  165 1    
    87   43  166 1    
    88   43  167 1    
    89   43  168 1    
    90   44   45 am   BACKBONE|DICT|INTERRES
    91   44  169 1    
    92   45   46 2    
    93   45   47 1    
    94   47   48 1    
    95   47   49 1    
    96   47  170 1    
    97   48  171 1    
    98   48  172 1    
    99   48  173 1    
   100   49   50 am   BACKBONE|DICT|INTERRES
   101   49  174 1    
   102   50   51 2    
   103   50   52 1    
   104   52   53 1    
   105   52   54 1    
   106   52  175 1    
   107   53  176 1    
   108   53  177 1    
   109   53  178 1    
   110   54   55 am   BACKBONE|DICT|INTERRES
   111   54  179 1    
   112   55   56 2    
   113   55   57 1    
   114   57   58 1    
   115   57   59 1    
   116   57  180 1    
   117   58  181 1    
   118   58  182 1    
   119   58  183 1    
   120   59   60 am   BACKBONE|DICT|INTERRES
   121   59  184 1    
   122   60   61 2    
   123   60   62 1    
   124   62   63 1    
   125   62   64 1    
   126   62  185 1    
   127   63  186 1    
   128   63  187 1    
   129   63  188 1    
   130   64   65 am   BACKBONE|DICT|INTERRES
   131   64  189 1    
   132   65   66 2    
   133   67   68 2    
   134   67   69 am   BACKBONE|DICT|INTERRES
   135   69   70 1    
   136   69  190 1    
   137   70   71 1    
   138   70   72 1    
   139   70  191 1    
   140   71  192 1    
   141   71  193 1    
   142   71  194 1    
   143   72   73 2    
   144   72   74 am   BACKBONE|DICT|INTERRES
   145   74   75 1    
   146   74  195 1    
   147   75   76 1    
   148   75   77 1    
   149   75  196 1    
   150   76  197 1    
   151   76  198 1    
   152   76  199 1    
   153   77   78 2    
   154   77   79 am   BACKBONE|DICT|INTERRES
   155   79   80 1    
   156   79  200 1    
   157   80   81 1    
   158   80   82 1    
   159   80  201 1    
   160   81  202 1    
   161   81  203 1    
   162   81  204 1    
   163   82   83 2    
   164   82   84 am   BACKBONE|DICT|INTERRES
   165   84   85 1    
   166   84  205 1    
   167   85   86 1    
   168   85   87 1    
   169   85  206 1    
   170   86  207 1    
   171   86  208 1    
   172   86  209 1    
   173   87   88 2    
   174   87   89 am   BACKBONE|DICT|INTERRES
   175   89   90 1    
   176   89  210 1    
   177   90   91 1    
   178   90   92 1    
   179   90  211 1    
   180   91  212 1    
   181   91  213 1    
   182   91  214 1    
   183   92   93 2    
   184   92   94 am   BACKBONE|DICT|INTERRES
   185   94   95 1    
   186   94  215 1    
   187   95   96 1    
   188   95   97 1    
   189   95  216 1    
   190   96  217 1    
   191   96  218 1    
   192   96  219 1    
   193   97   98 2    
   194   97   99 am   BACKBONE|DICT|INTERRES
   195   99  100 1    
   196   99  220 1    
   197  100  101 1    
   198  100  102 1    
   199  100  221 1    
   200  101  222 1    
   201  101  223 1    
   202  101  224 1    
   203  102  103 2    
   204  102  104 am   BACKBONE|DICT|INTERRES
   205  104  105 1    
   206  104  225 1    
   207  105  106 1    
   208  105  107 1    
   209  105  226 1    
   210  106  227 1    
   211  106  228 1    
   212  106  229 1    
   213  107  108 2    
   214  107  109 am   BACKBONE|DICT|INTERRES
   215  109  110 1    
   216  109  230 1    
   217  110  111 1    
   218  110  112 1    
   219  110  231 1    
   220  111  232 1    
   221  111  233 1    
   222  111  234 1    
   223  112  113 2    
   224  112  114 am   BACKBONE|DICT|INTERRES
   225  114  115 1    
   226  114  235 1    
   227  115  116 1    
   228  115  117 1    
   229  115  236 1    
   230  116  237 1    
   231  116  238 1    
   232  116  239 1    
   233  117  118 2    
   234  117  119 am   BACKBONE|DICT|INTERRES
   235  119  120 1    
   236  119  240 1    
   237  120  121 1    
   238  120  124 1    
   239  120  241 1    
   240  121  122 am   BACKBONE|DICT|INTERRES
   241  121  123 2    
   242  122  242 1    
   243  122  243 1    
   244  124  125 1    
   245  124  244 1    
   246  124  245 1    
   247  125  126 1    
   248  126  246 1    
   249  126  247 1    
@<TRIPOS>SUBSTRUCTURE
     1 UNK         1 GROUP             0       ****    0 ROOT    
