@<TRIPOS>MOLECULE
3R540
247   249    1
SMALL
USER_CHARGES


@<TRIPOS>ATOM
      1 CA          2.5315   -8.3396  -47.4727 C.3       0 UNK        -0.1800 
      2 C           2.7436   -9.8440  -47.5587 C.2       0 UNK         0.5000 
      3 O           2.9250  -10.4952  -46.5302 O.2       0 UNK        -0.5000 
      4 N           2.7189  -10.3995  -48.7782 N.am      1 UNK        -0.5000 
      5 CA          2.9211  -11.8231  -49.0811 C.3       1 UNK         0.1400 
      6 C6          1.7662  -12.7075  -48.5235 C.3       23 UNK        -0.0398 
      7 S7          1.3962  -14.1370  -49.5918 S.3       23 UNK        -0.2404 
      8 C8          0.5220  -15.2193  -48.4226 C.3       23 UNK        -0.0205 
      9 C9         -0.2656  -16.2952  -49.1513 C.ar      23 UNK        -0.0193 
     10 C10        -1.6447  -16.1533  -49.3253 C.ar      23 UNK        -0.1150 
     11 C11        -2.3841  -17.1444  -49.9753 C.ar      23 UNK        -0.0193 
     12 C12        -1.7290  -18.2744  -50.4702 C.ar      23 UNK        -0.1150 
     13 C13        -0.3486  -18.4272  -50.3126 C.ar      23 UNK        -0.0193 
     14 C14         0.3770  -17.4357  -49.6433 C.ar      23 UNK        -0.1150 
     15 C15         0.3607  -19.6581  -50.8687 C.3       23 UNK        -0.0205 
     16 S16        -0.3351  -21.2281  -50.2527 S.3       23 UNK        -0.2404 
     17 C17        -0.3058  -20.9278  -48.4564 C.3       23 UNK        -0.0398 
     18 CA         -0.2937  -22.2106  -47.5961 C.3       11 UNK         0.1400 
     19 N           0.0682  -21.9003  -46.2120 N.am      11 UNK        -0.5000 
     20 C           0.3034  -22.7935  -45.2432 C.2       10 UNK         0.5000 
     21 O           0.2807  -24.0106  -45.4149 O.2       10 UNK        -0.5000 
     22 CA          0.5514  -22.2323  -43.8314 C.3       10 UNK         0.1400 
     23 CB          1.9950  -21.7301  -43.6843 C.3       10 UNK        -0.1800 
     24 N          -0.3861  -21.1626  -43.4847 N.am      10 UNK        -0.5000 
     25 C          -1.7117  -21.3329  -43.3708 C.2       9 UNK         0.5000 
     26 O          -2.2721  -22.4221  -43.4917 O.2       9 UNK        -0.5000 
     27 CA         -2.5599  -20.0727  -43.1248 C.3       9 UNK         0.1400 
     28 CB         -2.5246  -19.6719  -41.6427 C.3       9 UNK        -0.1800 
     29 N          -2.1450  -18.9406  -43.9538 N.am      9 UNK        -0.5000 
     30 C          -2.2016  -18.9159  -45.2933 C.2       8 UNK         0.5000 
     31 O          -2.6485  -19.8378  -45.9735 O.2       8 UNK        -0.5000 
     32 CA         -1.6035  -17.6818  -45.9935 C.3       8 UNK         0.1400 
     33 CB         -2.5808  -16.4982  -45.9510 C.3       8 UNK        -0.1800 
     34 N          -0.3112  -17.2871  -45.4267 N.am      8 UNK        -0.5000 
     35 C           0.7778  -18.0697  -45.4367 C.2       7 UNK         0.5000 
     36 O           0.8157  -19.1806  -45.9607 O.2       7 UNK        -0.5000 
     37 CA          2.0243  -17.5546  -44.7014 C.3       7 UNK         0.1400 
     38 CB          2.8370  -16.6178  -45.6006 C.3       7 UNK        -0.1800 
     39 N           1.6947  -16.8951  -43.4390 N.am      7 UNK        -0.5000 
     40 C           1.1815  -17.5360  -42.3790 C.2       6 UNK         0.5000 
     41 O           1.0062  -18.7542  -42.3327 O.2       6 UNK        -0.5000 
     42 CA          0.7259  -16.6577  -41.2023 C.3       6 UNK         0.1400 
     43 CB          1.9133  -16.2549  -40.3152 C.3       6 UNK        -0.1800 
     44 N           0.0137  -15.4647  -41.6642 N.am      6 UNK        -0.5000 
     45 C          -1.1965  -15.5000  -42.2418 C.2       5 UNK         0.5000 
     46 O          -1.8403  -16.5353  -42.4036 O.2       5 UNK        -0.5000 
     47 CA         -1.7866  -14.1720  -42.7479 C.3       5 UNK         0.1400 
     48 CB         -2.6870  -13.5432  -41.6744 C.3       5 UNK        -0.1800 
     49 N          -0.7802  -13.1958  -43.1594 N.am      5 UNK        -0.5000 
     50 C           0.0694  -13.3351  -44.1858 C.2       4 UNK         0.5000 
     51 O           0.1119  -14.3351  -44.9073 O.2       4 UNK        -0.5000 
     52 CA          1.0356  -12.1575  -44.4496 C.3       4 UNK         0.1400 
     53 CB          0.9543  -11.0262  -43.4002 C.3       4 UNK        -0.1800 
     54 N           2.4371  -12.5565  -44.6143 N.am      4 UNK        -0.5000 
     55 C           3.1563  -13.3647  -43.8216 C.2       3 UNK         0.5000 
     56 O           2.6820  -13.9945  -42.8742 O.2       3 UNK        -0.5000 
     57 CA          4.6454  -13.5165  -44.1823 C.3       3 UNK         0.1400 
     58 CB          5.3650  -14.5639  -43.3022 C.3       3 UNK        -0.1800 
     59 N           4.7650  -13.8352  -45.6056 N.am      3 UNK        -0.5000 
     60 C           5.8883  -13.8153  -46.3359 C.2       2 UNK         0.5000 
     61 O           6.9980  -13.5253  -45.8879 O.2       2 UNK        -0.5000 
     62 CA          5.7384  -14.1555  -47.8329 C.3       2 UNK         0.1400 
     63 CB          5.7668  -15.6744  -48.0596 C.3       2 UNK        -0.1800 
     64 N           4.5076  -13.5985  -48.4003 N.am      2 UNK        -0.5000 
     65 C           4.3408  -12.2972  -48.6730 C.2       1 UNK         0.5000 
     66 O           5.2645  -11.4800  -48.6173 O.2       1 UNK        -0.5000 
     67 C          -1.6296  -22.9786  -47.6819 C.2       11 UNK         0.5000 
     68 O          -1.7050  -23.9883  -48.3827 O.2       11 UNK        -0.5000 
     69 N          -2.6446  -22.5235  -46.9349 N.am      12 UNK        -0.5000 
     70 CA         -3.9495  -23.1754  -46.8214 C.3       12 UNK         0.1400 
     71 CB         -4.9129  -22.2652  -46.0465 C.3       12 UNK        -0.1800 
     72 C          -3.8803  -24.5747  -46.1829 C.2       12 UNK         0.5000 
     73 O          -4.6478  -25.4525  -46.5756 O.2       12 UNK        -0.5000 
     74 N          -2.9630  -24.7655  -45.2275 N.am      13 UNK        -0.5000 
     75 CA         -2.7226  -26.0439  -44.5661 C.3       13 UNK         0.1400 
     76 CB         -2.0194  -25.7999  -43.2208 C.3       13 UNK        -0.1800 
     77 C          -1.9146  -27.0172  -45.4435 C.2       13 UNK         0.5000 
     78 O          -2.3535  -28.1476  -45.6584 O.2       13 UNK        -0.5000 
     79 N          -0.7360  -26.5787  -45.9041 N.am      14 UNK        -0.5000 
     80 CA          0.2664  -27.4410  -46.5309 C.3       14 UNK         0.1400 
     81 CB          1.6637  -26.8559  -46.2722 C.3       14 UNK        -0.1800 
     82 C           0.0547  -27.6479  -48.0385 C.2       14 UNK         0.5000 
     83 O           0.3381  -28.7385  -48.5362 O.2       14 UNK        -0.5000 
     84 N          -0.4077  -26.6069  -48.7415 N.am      15 UNK        -0.5000 
     85 CA         -0.5298  -26.5795  -50.2023 C.3       15 UNK         0.1400 
     86 CB          0.3259  -25.4196  -50.7437 C.3       15 UNK        -0.1800 
     87 C          -1.9909  -26.4506  -50.6663 C.2       15 UNK         0.5000 
     88 O          -2.2247  -26.2729  -51.8622 O.2       15 UNK        -0.5000 
     89 N          -2.9463  -26.4971  -49.7237 N.am      16 UNK        -0.5000 
     90 CA         -4.3955  -26.3365  -49.9148 C.3       16 UNK         0.1400 
     91 CB         -4.9630  -27.5210  -50.7248 C.3       16 UNK        -0.1800 
     92 C          -4.8038  -24.9708  -50.5162 C.2       16 UNK         0.5000 
     93 O          -5.9089  -24.8489  -51.0469 O.2       16 UNK        -0.5000 
     94 N          -3.8972  -23.9818  -50.4478 N.am      17 UNK        -0.5000 
     95 CA         -3.9452  -22.6799  -51.1207 C.3       17 UNK         0.1400 
     96 CB         -4.9873  -21.7521  -50.4626 C.3       17 UNK        -0.1800 
     97 C          -4.1203  -22.7956  -52.6519 C.2       17 UNK         0.5000 
     98 O          -4.8337  -21.9868  -53.2467 O.2       17 UNK        -0.5000 
     99 N          -3.4863  -23.8088  -53.2654 N.am      18 UNK        -0.5000 
    100 CA        -3.5609  -24.1132  -54.6976 C.3       18 UNK         0.1400 
    101 CB        -2.6503  -25.3086  -55.0144 C.3       18 UNK        -0.1800 
    102 C         -3.2025  -22.9079  -55.5882 C.2       18 UNK         0.5000 
    103 O         -2.1699  -22.2715  -55.3667 O.2       18 UNK        -0.5000 
    104 N         -4.0898  -22.6004  -56.5445 N.am      19 UNK        -0.5000 
    105 CA        -4.0875  -21.4697  -57.4860 C.3       19 UNK         0.1400 
    106 CB        -2.8349  -21.4842  -58.3832 C.3       19 UNK        -0.1800 
    107 C         -4.2929  -20.0820  -56.8396 C.2       19 UNK         0.5000 
    108 O         -4.9728  -19.2414  -57.4295 O.2       19 UNK        -0.5000 
    109 N         -3.7173  -19.8610  -55.6525 N.am      20 UNK        -0.5000 
    110 CA        -3.8061  -18.6230  -54.8792 C.3       20 UNK         0.1400 
    111 CB        -2.7367  -18.6564  -53.7804 C.3       20 UNK        -0.1800 
    112 C         -5.2010  -18.3813  -54.2711 C.2       20 UNK         0.5000 
    113 O         -5.6278  -17.2296  -54.1802 O.2       20 UNK        -0.5000 
    114 N         -5.8756  -19.4656  -53.8636 N.am      21 UNK        -0.5000 
    115 CA        -7.2313  -19.5824  -53.3103 C.3       21 UNK         0.1400 
    116 CB        -8.2842  -19.0817  -54.3167 C.3       21 UNK        -0.1800 
    117 C         -7.4478  -18.9473  -51.9212 C.2       21 UNK         0.5000 
    118 O         -8.1575  -19.5357  -51.1041 O.2       21 UNK        -0.5000 
    119 N         -6.8493  -17.7752  -51.6810 N.am      22 UNK        -0.5000 
    120 CA        -7.0190  -16.9210  -50.4928 C.3       22 UNK         0.1400 
    121 C         -8.4562  -16.3200  -50.3656 C.2       22 UNK         0.5000 
    122 N         -8.7759  -15.6493  -49.2658 N.am      22 UNK        -0.7600 
    123 O         -9.2823  -16.4052  -51.2724 O.2       22 UNK        -0.5000 
    124 C124       -6.5221  -17.5927  -49.1736 C.3       23 UNK        -0.0398 
    125 S125       -4.7985  -18.2095  -49.1492 S.3       23 UNK        -0.2404 
    126 C126       -3.8866  -16.9911  -50.1479 C.3       23 UNK        -0.0205 
    127 H127        2.3675   -7.8958  -48.4549 H         1 UNK         0.0600 
    128 H128        3.4042   -7.8641  -47.0251 H         1 UNK         0.0600 
    129 H129        1.6647   -8.1189  -46.8499 H         1 UNK         0.0600 
    130 H130        2.5995   -9.8020  -49.5842 H         1 UNK         0.3000 
    131 H131        2.8975  -11.8766  -50.1707 H         1 UNK         0.0600 
    132 H132        0.8450  -12.1252  -48.4705 H         1 UNK         0.0800 
    133 H133        1.9604  -13.0319  -47.4999 H         1 UNK         0.0800 
    134 H134        1.2414  -15.6853  -47.7525 H         1 UNK         0.0800 
    135 H135       -0.1435  -14.6245  -47.7944 H         1 UNK         0.0800 
    136 H136       -2.1439  -15.2735  -48.9446 H         1 UNK         0.1150 
    137 H137       -2.3000  -19.0472  -50.9626 H         1 UNK         0.1150 
    138 H138        1.4442  -17.5439  -49.5103 H         1 UNK         0.1150 
    139 H139        0.2894  -19.6444  -51.9570 H         1 UNK         0.0800 
    140 H140        1.4248  -19.6309  -50.6292 H         1 UNK         0.0800 
    141 H141       -1.1448  -20.2830  -48.1898 H         1 UNK         0.0800 
    142 H142        0.5957  -20.3509  -48.2483 H         1 UNK         0.0800 
    143 H143        0.4858  -22.8703  -47.9831 H         1 UNK         0.0600 
    144 H144        0.1563  -20.9115  -45.9879 H         1 UNK         0.3000 
    145 H145        0.4036  -23.0477  -43.1203 H         1 UNK         0.0600 
    146 H146        2.1919  -21.3902  -42.6674 H         1 UNK         0.0600 
    147 H147        2.7085  -22.5246  -43.9064 H         1 UNK         0.0600 
    148 H148        2.2061  -20.9012  -44.3597 H         1 UNK         0.0600 
    149 H149        0.0074  -20.2405  -43.3279 H         1 UNK         0.3000 
    150 H150       -3.5924  -20.3132  -43.3857 H         1 UNK         0.0600 
    151 H151       -2.8358  -20.5007  -41.0056 H         1 UNK         0.0600 
    152 H152       -3.1991  -18.8386  -41.4447 H         1 UNK         0.0600 
    153 H153       -1.5240  -19.3727  -41.3293 H         1 UNK         0.0600 
    154 H154       -1.8091  -18.1178  -43.4602 H         1 UNK         0.3000 
    155 H155       -1.4355  -17.9463  -47.0390 H         1 UNK         0.0600 
    156 H156       -3.4823  -16.7250  -46.5215 H         1 UNK         0.0600 
    157 H157       -2.1391  -15.5998  -46.3818 H         1 UNK         0.0600 
    158 H158       -2.8901  -16.2662  -44.9329 H         1 UNK         0.0600 
    159 H159       -0.2464  -16.3617  -45.0164 H         1 UNK         0.3000 
    160 H160        2.6488  -18.4218  -44.4767 H         1 UNK         0.0600 
    161 H161        2.3579  -15.6455  -45.7066 H         1 UNK         0.0600 
    162 H162        2.9559  -17.0433  -46.5977 H         1 UNK         0.0600 
    163 H163        3.8366  -16.4673  -45.1982 H         1 UNK         0.0600 
    164 H164        1.8019  -15.8881  -43.3929 H         1 UNK         0.3000 
    165 H165        0.0383  -17.2487  -40.5932 H         1 UNK         0.0600 
    166 H166        1.5843  -15.6633  -39.4608 H         1 UNK         0.0600 
    167 H167        2.4205  -17.1374  -39.9234 H         1 UNK         0.0600 
    168 H168        2.6531  -15.6710  -40.8624 H         1 UNK         0.0600 
    169 H169        0.5109  -14.5861  -41.6175 H         1 UNK         0.3000 
    170 H170       -2.4043  -14.3947  -43.6191 H         1 UNK         0.0600 
    171 H171       -3.4688  -14.2382  -41.3646 H         1 UNK         0.0600 
    172 H172       -2.1204  -13.2684  -40.7838 H         1 UNK         0.0600 
    173 H173       -3.1817  -12.6468  -42.0488 H         1 UNK         0.0600 
    174 H174       -0.7339  -12.3459  -42.6165 H         1 UNK         0.3000 
    175 H175        0.7255  -11.7376  -45.4072 H         1 UNK         0.0600 
    176 H176        1.2415  -11.3719  -42.4062 H         1 UNK         0.0600 
    177 H177        1.6211  -10.2057  -43.6668 H         1 UNK         0.0600 
    178 H178       -0.0499  -10.6051  -43.3385 H         1 UNK         0.0600 
    179 H179        2.9167  -12.0453  -45.3501 H         1 UNK         0.3000 
    180 H180        5.1121  -12.5446  -44.0104 H         1 UNK         0.0600 
    181 H181        4.9367  -15.5587  -43.4189 H         1 UNK         0.0600 
    182 H182        5.2872  -14.3007  -42.2466 H         1 UNK         0.0600 
    183 H183        6.4277  -14.6284  -43.5328 H         1 UNK         0.0600 
    184 H184        3.8984  -14.0637  -46.0682 H         1 UNK         0.3000 
    185 H185        6.5939  -13.7257  -48.3589 H         1 UNK         0.0600 
    186 H186        6.6770  -16.1128  -47.6482 H         1 UNK         0.0600 
    187 H187        4.9214  -16.1722  -47.5874 H         1 UNK         0.0600 
    188 H188        5.7440  -15.9134  -49.1230 H         1 UNK         0.0600 
    189 H189        3.7339  -14.2326  -48.5422 H         1 UNK         0.3000 
    190 H190       -2.5296  -21.6506  -46.4245 H         1 UNK         0.3000 
    191 H191       -4.3483  -23.3022  -47.8274 H         1 UNK         0.0600 
    192 H192       -5.0347  -21.3047  -46.5481 H         1 UNK         0.0600 
    193 H193       -5.9017  -22.7187  -45.9673 H         1 UNK         0.0600 
    194 H194       -4.5566  -22.0718  -45.0346 H         1 UNK         0.0600 
    195 H195       -2.4111  -23.9745  -44.9151 H         1 UNK         0.3000 
    196 H196       -3.6864  -26.5110  -44.3523 H         1 UNK         0.0600 
    197 H197       -1.8270  -26.7406  -42.7035 H         1 UNK         0.0600 
    198 H198       -2.6351  -25.1865  -42.5627 H         1 UNK         0.0600 
    199 H199       -1.0629  -25.2921  -43.3471 H         1 UNK         0.0600 
    200 H200       -0.4441  -25.6239  -45.6981 H         1 UNK         0.3000 
    201 H201        0.2296  -28.4237  -46.0553 H         1 UNK         0.0600 
    202 H202        1.8519  -26.7402  -45.2046 H         1 UNK         0.0600 
    203 H203        1.7844  -25.8784  -46.7409 H         1 UNK         0.0600 
    204 H204        2.4411  -27.5087  -46.6712 H         1 UNK         0.0600 
    205 H205       -0.6569  -25.7469  -48.2639 H         1 UNK         0.3000 
    206 H206       -0.1503  -27.5045  -50.6403 H         1 UNK         0.0600 
    207 H207        1.3644  -25.5160  -50.4272 H         1 UNK         0.0600 
    208 H208        0.3217  -25.4021  -51.8342 H         1 UNK         0.0600 
    209 H209       -0.0389  -24.4512  -50.4010 H         1 UNK         0.0600 
    210 H210       -2.6430  -26.6118  -48.7671 H         1 UNK         0.3000 
    211 H211       -4.8461  -26.3804  -48.9250 H         1 UNK         0.0600 
    212 H212       -4.6252  -27.5025  -51.7614 H         1 UNK         0.0600 
    213 H213       -6.0533  -27.5012  -50.7373 H         1 UNK         0.0600 
    214 H214       -4.6637  -28.4750  -50.2907 H         1 UNK         0.0600 
    215 H215       -3.0375  -24.1776  -49.9449 H         1 UNK         0.3000 
    216 H216       -2.9674  -22.2247  -50.9703 H         1 UNK         0.0600 
    217 H217       -4.9742  -20.7625  -50.9209 H         1 UNK         0.0600 
    218 H218       -4.7794  -21.6094  -49.4030 H         1 UNK         0.0600 
    219 H219       -6.0003  -22.1428  -50.5606 H         1 UNK         0.0600 
    220 H220       -2.9469  -24.4574  -52.7033 H         1 UNK         0.3000 
    221 H221       -4.5911  -24.4079  -54.9067 H         1 UNK         0.0600 
    222 H222       -1.6153  -25.1098  -54.7330 H         1 UNK         0.0600 
    223 H223       -2.9763  -26.2033  -54.4839 H         1 UNK         0.0600 
    224 H224       -2.6639  -25.5420  -56.0798 H         1 UNK         0.0600 
    225 H225       -4.9169  -23.1784  -56.6031 H         1 UNK         0.3000 
    226 H226       -4.9496  -21.6338  -58.1346 H         1 UNK         0.0600 
    227 H227       -2.7204  -22.4447  -58.8856 H         1 UNK         0.0600 
    228 H228       -2.9043  -20.7188  -59.1571 H         1 UNK         0.0600 
    229 H229       -1.9235  -21.2895  -57.8176 H         1 UNK         0.0600 
    230 H230       -3.1534  -20.6107  -55.2640 H         1 UNK         0.3000 
    231 H231       -3.5855  -17.7872  -55.5464 H         1 UNK         0.0600 
    232 H232       -2.8868  -19.5037  -53.1107 H         1 UNK         0.0600 
    233 H233       -2.7605  -17.7445  -53.1832 H         1 UNK         0.0600 
    234 H234       -1.7359  -18.7398  -54.2044 H         1 UNK         0.0600 
    235 H235       -5.3819  -20.3559  -53.8970 H         1 UNK         0.3000 
    236 H236       -7.3913  -20.6542  -53.1819 H         1 UNK         0.0600 
    237 H237       -8.1845  -19.5885  -55.2767 H         1 UNK         0.0600 
    238 H238       -9.2933  -19.2730  -53.9498 H         1 UNK         0.0600 
    239 H239       -8.2014  -18.0088  -54.4923 H         1 UNK         0.0600 
    240 H240       -6.3393  -17.3637  -52.4573 H         1 UNK         0.3000 
    241 H241       -6.3958  -16.0490  -50.6860 H         1 UNK         0.0600 
    242 H242       -9.6983  -15.2474  -49.1960 H         1 UNK         0.3800 
    243 H243       -8.1249  -15.5165  -48.5083 H         1 UNK         0.3800 
    244 H244       -6.5937  -16.8891  -48.3440 H         1 UNK         0.0800 
    245 H245       -7.1743  -18.4250  -48.9066 H         1 UNK         0.0800 
    246 H246       -4.1412  -17.1130  -51.2009 H         1 UNK         0.0800 
    247 H247       -4.1953  -15.9854  -49.8597 H         1 UNK         0.0800 
@<TRIPOS>BOND
     1    1    2 1    
     2    1  127 1    
     3    1  128 1    
     4    1  129 1    
     5    2    3 2    
     6    2    4 am   BACKBONE|DICT|INTERRES
     7    4    5 1    
     8    4  130 1    
     9    5    6 1    
    10    5   65 1    
    11    5  131 1    
    12    6    7 1    
    13    6  132 1    
    14    6  133 1    
    15    7    8 1    
    16    8    9 1    
    17    8  134 1    
    18    8  135 1    
    19    9   10 ar   
    20    9   14 ar   
    21   10   11 ar   
    22   10  136 1    
    23   11   12 ar   
    24   11  126 1    
    25   12   13 ar   
    26   12  137 1    
    27   13   14 ar   
    28   13   15 1    
    29   14  138 1    
    30   15   16 1    
    31   15  139 1    
    32   15  140 1    
    33   16   17 1    
    34   17   18 1    
    35   17  141 1    
    36   17  142 1    
    37   18   19 1    
    38   18   67 1    
    39   18  143 1    
    40   19   20 am   BACKBONE|DICT|INTERRES
    41   19  144 1    
    42   20   21 2    
    43   20   22 1    
    44   22   23 1    
    45   22   24 1    
    46   22  145 1    
    47   23  146 1    
    48   23  147 1    
    49   23  148 1    
    50   24   25 am   BACKBONE|DICT|INTERRES
    51   24  149 1    
    52   25   26 2    
    53   25   27 1    
    54   27   28 1    
    55   27   29 1    
    56   27  150 1    
    57   28  151 1    
    58   28  152 1    
    59   28  153 1    
    60   29   30 am   BACKBONE|DICT|INTERRES
    61   29  154 1    
    62   30   31 2    
    63   30   32 1    
    64   32   33 1    
    65   32   34 1    
    66   32  155 1    
    67   33  156 1    
    68   33  157 1    
    69   33  158 1    
    70   34   35 am   BACKBONE|DICT|INTERRES
    71   34  159 1    
    72   35   36 2    
    73   35   37 1    
    74   37   38 1    
    75   37   39 1    
    76   37  160 1    
    77   38  161 1    
    78   38  162 1    
    79   38  163 1    
    80   39   40 am   BACKBONE|DICT|INTERRES
    81   39  164 1    
    82   40   41 2    
    83   40   42 1    
    84   42   43 1    
    85   42   44 1    
    86   42  165 1    
    87   43  166 1    
    88   43  167 1    
    89   43  168 1    
    90   44   45 am   BACKBONE|DICT|INTERRES
    91   44  169 1    
    92   45   46 2    
    93   45   47 1    
    94   47   48 1    
    95   47   49 1    
    96   47  170 1    
    97   48  171 1    
    98   48  172 1    
    99   48  173 1    
   100   49   50 am   BACKBONE|DICT|INTERRES
   101   49  174 1    
   102   50   51 2    
   103   50   52 1    
   104   52   53 1    
   105   52   54 1    
   106   52  175 1    
   107   53  176 1    
   108   53  177 1    
   109   53  178 1    
   110   54   55 am   BACKBONE|DICT|INTERRES
   111   54  179 1    
   112   55   56 2    
   113   55   57 1    
   114   57   58 1    
   115   57   59 1    
   116   57  180 1    
   117   58  181 1    
   118   58  182 1    
   119   58  183 1    
   120   59   60 am   BACKBONE|DICT|INTERRES
   121   59  184 1    
   122   60   61 2    
   123   60   62 1    
   124   62   63 1    
   125   62   64 1    
   126   62  185 1    
   127   63  186 1    
   128   63  187 1    
   129   63  188 1    
   130   64   65 am   BACKBONE|DICT|INTERRES
   131   64  189 1    
   132   65   66 2    
   133   67   68 2    
   134   67   69 am   BACKBONE|DICT|INTERRES
   135   69   70 1    
   136   69  190 1    
   137   70   71 1    
   138   70   72 1    
   139   70  191 1    
   140   71  192 1    
   141   71  193 1    
   142   71  194 1    
   143   72   73 2    
   144   72   74 am   BACKBONE|DICT|INTERRES
   145   74   75 1    
   146   74  195 1    
   147   75   76 1    
   148   75   77 1    
   149   75  196 1    
   150   76  197 1    
   151   76  198 1    
   152   76  199 1    
   153   77   78 2    
   154   77   79 am   BACKBONE|DICT|INTERRES
   155   79   80 1    
   156   79  200 1    
   157   80   81 1    
   158   80   82 1    
   159   80  201 1    
   160   81  202 1    
   161   81  203 1    
   162   81  204 1    
   163   82   83 2    
   164   82   84 am   BACKBONE|DICT|INTERRES
   165   84   85 1    
   166   84  205 1    
   167   85   86 1    
   168   85   87 1    
   169   85  206 1    
   170   86  207 1    
   171   86  208 1    
   172   86  209 1    
   173   87   88 2    
   174   87   89 am   BACKBONE|DICT|INTERRES
   175   89   90 1    
   176   89  210 1    
   177   90   91 1    
   178   90   92 1    
   179   90  211 1    
   180   91  212 1    
   181   91  213 1    
   182   91  214 1    
   183   92   93 2    
   184   92   94 am   BACKBONE|DICT|INTERRES
   185   94   95 1    
   186   94  215 1    
   187   95   96 1    
   188   95   97 1    
   189   95  216 1    
   190   96  217 1    
   191   96  218 1    
   192   96  219 1    
   193   97   98 2    
   194   97   99 am   BACKBONE|DICT|INTERRES
   195   99  100 1    
   196   99  220 1    
   197  100  101 1    
   198  100  102 1    
   199  100  221 1    
   200  101  222 1    
   201  101  223 1    
   202  101  224 1    
   203  102  103 2    
   204  102  104 am   BACKBONE|DICT|INTERRES
   205  104  105 1    
   206  104  225 1    
   207  105  106 1    
   208  105  107 1    
   209  105  226 1    
   210  106  227 1    
   211  106  228 1    
   212  106  229 1    
   213  107  108 2    
   214  107  109 am   BACKBONE|DICT|INTERRES
   215  109  110 1    
   216  109  230 1    
   217  110  111 1    
   218  110  112 1    
   219  110  231 1    
   220  111  232 1    
   221  111  233 1    
   222  111  234 1    
   223  112  113 2    
   224  112  114 am   BACKBONE|DICT|INTERRES
   225  114  115 1    
   226  114  235 1    
   227  115  116 1    
   228  115  117 1    
   229  115  236 1    
   230  116  237 1    
   231  116  238 1    
   232  116  239 1    
   233  117  118 2    
   234  117  119 am   BACKBONE|DICT|INTERRES
   235  119  120 1    
   236  119  240 1    
   237  120  121 1    
   238  120  124 1    
   239  120  241 1    
   240  121  122 am   BACKBONE|DICT|INTERRES
   241  121  123 2    
   242  122  242 1    
   243  122  243 1    
   244  124  125 1    
   245  124  244 1    
   246  124  245 1    
   247  125  126 1    
   248  126  246 1    
   249  126  247 1    
@<TRIPOS>SUBSTRUCTURE
     1 UNK         1 GROUP             0       ****    0 ROOT    
