@<TRIPOS>MOLECULE
3R540
247   249    1
SMALL
USER_CHARGES


@<TRIPOS>ATOM
      1 CA         -3.0456  -16.6440  -46.1332 C.3       0 UNK        -0.1800 
      2 C          -3.7320  -15.2947  -46.2383 C.2       0 UNK         0.5000 
      3 O          -3.7878  -14.5598  -45.2534 O.2       0 UNK        -0.5000 
      4 N          -4.2408  -14.9549  -47.4304 N.am      1 UNK        -0.5000 
      5 CA         -4.9806  -13.7144  -47.7002 C.3       1 UNK         0.1400 
      6 C6         -5.7666  -13.7860  -49.0344 C.3       23 UNK        -0.0398 
      7 S7         -4.7798  -13.6098  -50.5649 S.3       23 UNK        -0.2404 
      8 C8         -4.4514  -15.3338  -51.0577 C.3       23 UNK        -0.0205 
      9 C9         -3.0948  -15.8305  -50.5742 C.ar      23 UNK        -0.0193 
     10 C10        -1.9312  -15.1474  -50.9399 C.ar      23 UNK        -0.1150 
     11 C11        -0.6752  -15.5980  -50.5299 C.ar      23 UNK        -0.0193 
     12 C12        -0.5958  -16.7589  -49.7536 C.ar      23 UNK        -0.1150 
     13 C13        -1.7399  -17.4825  -49.4102 C.ar      23 UNK        -0.0193 
     14 C14        -2.9932  -16.9929  -49.8037 C.ar      23 UNK        -0.1150 
     15 C15        -1.5644  -18.7647  -48.5953 C.3       23 UNK        -0.0205 
     16 S16        -2.9366  -19.9598  -48.7169 S.3       23 UNK        -0.2404 
     17 C17        -3.0085  -20.6566  -47.0334 C.3       23 UNK        -0.0398 
     18 CA         -2.4790  -22.1100  -46.9766 C.3       11 UNK         0.1400 
     19 N          -1.0199  -22.1905  -46.8339 N.am      11 UNK        -0.5000 
     20 C          -0.3201  -23.3342  -46.8951 C.2       10 UNK         0.5000 
     21 O          -0.8210  -24.4257  -47.1534 O.2       10 UNK        -0.5000 
     22 CA          1.1712  -23.2694  -46.5342 C.3       10 UNK         0.1400 
     23 CB          2.0136  -22.7774  -47.7220 C.3       10 UNK        -0.1800 
     24 N           1.3956  -22.4330  -45.3550 N.am      10 UNK        -0.5000 
     25 C           1.0306  -22.7781  -44.1109 C.2       9 UNK         0.5000 
     26 O           0.5223  -23.8634  -43.8289 O.2       9 UNK        -0.5000 
     27 CA          1.2282  -21.7251  -43.0029 C.3       9 UNK         0.1400 
     28 CB          2.6345  -21.8376  -42.3971 C.3       9 UNK        -0.1800 
     29 N           1.0101  -20.3577  -43.4775 N.am      9 UNK        -0.5000 
     30 C          -0.1851  -19.8710  -43.8472 C.2       8 UNK         0.5000 
     31 O          -1.2341  -20.5092  -43.7643 O.2       8 UNK        -0.5000 
     32 CA         -0.2075  -18.4696  -44.4926 C.3       8 UNK         0.1400 
     33 CB         -0.4089  -17.3790  -43.4318 C.3       8 UNK        -0.1800 
     34 N           0.9932  -18.1739  -45.2781 N.am      8 UNK        -0.5000 
     35 C           1.4296  -18.9265  -46.3000 C.2       7 UNK         0.5000 
     36 O           0.7740  -19.8581  -46.7635 O.2       7 UNK        -0.5000 
     37 CA          2.8406  -18.6603  -46.8627 C.3       7 UNK         0.1400 
     38 CB          2.7527  -18.0369  -48.2600 C.3       7 UNK        -0.1800 
     39 N           3.6800  -17.8078  -46.0223 N.am      7 UNK        -0.5000 
     40 C           4.0590  -18.0505  -44.7591 C.2       6 UNK         0.5000 
     41 O           3.7952  -19.0896  -44.1529 O.2       6 UNK        -0.5000 
     42 CA          4.7932  -16.9019  -44.0368 C.3       6 UNK         0.1400 
     43 CB          6.3106  -17.1378  -44.0550 C.3       6 UNK        -0.1800 
     44 N           4.5028  -15.5802  -44.6101 N.am      6 UNK        -0.5000 
     45 C           3.2945  -14.9992  -44.6181 C.2       5 UNK         0.5000 
     46 O           2.2892  -15.5046  -44.1141 O.2       5 UNK        -0.5000 
     47 CA          3.1738  -13.6797  -45.3995 C.3       5 UNK         0.1400 
     48 CB          2.5626  -13.9423  -46.7859 C.3       5 UNK        -0.1800 
     49 N           2.3496  -12.7016  -44.6935 N.am      5 UNK        -0.5000 
     50 C           2.7092  -12.0711  -43.5675 C.2       4 UNK         0.5000 
     51 O           3.7956  -12.2380  -43.0110 O.2       4 UNK        -0.5000 
     52 CA          1.7076  -11.0624  -42.9736 C.3       4 UNK         0.1400 
     53 CB          2.1532   -9.6235  -43.2782 C.3       4 UNK        -0.1800 
     54 N           0.3427  -11.2404  -43.4703 N.am      4 UNK        -0.5000 
     55 C          -0.5340  -12.1404  -43.0144 C.2       3 UNK         0.5000 
     56 O          -0.2746  -12.9525  -42.1262 O.2       3 UNK        -0.5000 
     57 CA         -1.9414  -12.1292  -43.6430 C.3       3 UNK         0.1400 
     58 CB         -2.7849  -10.9621  -43.0960 C.3       3 UNK        -0.1800 
     59 N          -1.9742  -12.1639  -45.1117 N.am      3 UNK        -0.5000 
     60 C          -1.5495  -11.2533  -46.0032 C.2       2 UNK         0.5000 
     61 O          -0.9844  -10.2034  -45.6948 O.2       2 UNK        -0.5000 
     62 CA         -1.7801  -11.5648  -47.4975 C.3       2 UNK         0.1400 
     63 CB         -0.4699  -12.0089  -48.1652 C.3       2 UNK        -0.1800 
     64 N          -2.7887  -12.5989  -47.7257 N.am      2 UNK        -0.5000 
     65 C          -4.1112  -12.4409  -47.5705 C.2       1 UNK         0.5000 
     66 O          -4.6438  -11.3638  -47.2997 O.2       1 UNK        -0.5000 
     67 C          -3.2135  -22.9183  -45.8885 C.2       11 UNK         0.5000 
     68 O          -4.1738  -23.6129  -46.2177 O.2       11 UNK        -0.5000 
     69 N          -2.7462  -22.8539  -44.6341 N.am      12 UNK        -0.5000 
     70 CA         -3.2899  -23.6384  -43.5231 C.3       12 UNK         0.1400 
     71 CB         -2.6449  -23.1898  -42.2032 C.3       12 UNK        -0.1800 
     72 C          -3.1297  -25.1578  -43.7279 C.2       12 UNK         0.5000 
     73 O          -4.0723  -25.9060  -43.4676 O.2       12 UNK        -0.5000 
     74 N          -1.9564  -25.5804  -44.2183 N.am      13 UNK        -0.5000 
     75 CA         -1.6444  -26.9753  -44.5307 C.3       13 UNK         0.1400 
     76 CB         -0.1280  -27.1225  -44.7300 C.3       13 UNK        -0.1800 
     77 C          -2.4078  -27.5040  -45.7605 C.2       13 UNK         0.5000 
     78 O          -2.9186  -28.6239  -45.7245 O.2       13 UNK        -0.5000 
     79 N          -2.4681  -26.6940  -46.8251 N.am      14 UNK        -0.5000 
     80 CA         -3.0614  -27.0466  -48.1172 C.3       14 UNK         0.1400 
     81 CB         -2.3895  -26.1982  -49.2090 C.3       14 UNK        -0.1800 
     82 C          -4.5911  -26.8721  -48.1774 C.2       14 UNK         0.5000 
     83 O          -5.1834  -27.2104  -49.2020 O.2       14 UNK        -0.5000 
     84 N          -5.1995  -26.3185  -47.1182 N.am      15 UNK        -0.5000 
     85 CA         -6.6160  -25.9477  -47.0081 C.3       15 UNK         0.1400 
     86 CB         -7.5246  -27.1947  -47.0357 C.3       15 UNK        -0.1800 
     87 C          -7.0056  -24.8786  -48.0515 C.2       15 UNK         0.5000 
     88 O          -7.9687  -25.0460  -48.8008 O.2       15 UNK        -0.5000 
     89 N          -6.1992  -23.8096  -48.0854 N.am      16 UNK        -0.5000 
     90 CA         -6.2654  -22.6189  -48.9393 C.3       16 UNK         0.1400 
     91 CB         -7.6161  -21.8912  -48.7905 C.3       16 UNK        -0.1800 
     92 C          -5.8954  -22.8485  -50.4183 C.2       16 UNK         0.5000 
     93 O          -5.8493  -21.8773  -51.1720 O.2       16 UNK        -0.5000 
     94 N          -5.5851  -24.0894  -50.8228 N.am      17 UNK        -0.5000 
     95 CA         -5.2107  -24.4348  -52.2005 C.3       17 UNK         0.1400 
     96 CB         -5.2032  -25.9614  -52.3619 C.3       17 UNK        -0.1800 
     97 C          -3.8648  -23.8286  -52.6517 C.2       17 UNK         0.5000 
     98 O          -3.6489  -23.6543  -53.8515 O.2       17 UNK        -0.5000 
     99 N          -3.0000  -23.4842  -51.6864 N.am      18 UNK        -0.5000 
    100 CA        -1.7152  -22.8168  -51.9052 C.3       18 UNK         0.1400 
    101 CB        -0.8743  -22.9104  -50.6226 C.3       18 UNK        -0.1800 
    102 C         -1.8446  -21.3457  -52.3495 C.2       18 UNK         0.5000 
    103 O         -0.8582  -20.7838  -52.8290 O.2       18 UNK        -0.5000 
    104 N         -3.0352  -20.7439  -52.1984 N.am      19 UNK        -0.5000 
    105 CA        -3.3232  -19.3405  -52.5114 C.3       19 UNK         0.1400 
    106 CB        -4.7546  -19.0085  -52.0653 C.3       19 UNK        -0.1800 
    107 C         -3.1417  -18.9690  -53.9935 C.2       19 UNK         0.5000 
    108 O         -2.8881  -17.8037  -54.2973 O.2       19 UNK        -0.5000 
    109 N         -3.2537  -19.9629  -54.8852 N.am      20 UNK        -0.5000 
    110 CA        -3.0432  -19.8195  -56.3258 C.3       20 UNK         0.1400 
    111 CB        -3.5151  -21.1037  -57.0247 C.3       20 UNK        -0.1800 
    112 C         -1.5814  -19.5062  -56.7039 C.2       20 UNK         0.5000 
    113 O         -1.3509  -18.8861  -57.7429 O.2       20 UNK        -0.5000 
    114 N         -0.6305  -19.9398  -55.8653 N.am      21 UNK        -0.5000 
    115 CA         0.8083  -19.7581  -56.0654 C.3       21 UNK         0.1400 
    116 CB         1.4712  -21.1455  -56.0457 C.3       21 UNK        -0.1800 
    117 C          1.4503  -18.8546  -54.9961 C.2       21 UNK         0.5000 
    118 O          2.5959  -18.4421  -55.1806 O.2       21 UNK        -0.5000 
    119 N          0.7327  -18.5920  -53.8942 N.am      22 UNK        -0.5000 
    120 CA         1.2675  -18.0591  -52.6309 C.3       22 UNK         0.1400 
    121 C          2.2491  -19.0735  -51.9670 C.2       22 UNK         0.5000 
    122 N          1.8326  -20.3258  -51.8219 N.am      22 UNK        -0.7600 
    123 O          3.3819  -18.7574  -51.6149 O.2       22 UNK        -0.5000 
    124 C124        1.7913  -16.5991  -52.7541 C.3       23 UNK        -0.0398 
    125 S125        2.0838  -15.7710  -51.1495 S.3       23 UNK        -0.2404 
    126 C126        0.5652  -14.7885  -50.9059 C.3       23 UNK        -0.0205 
    127 H127       -3.1676  -17.0551  -45.1311 H         1 UNK         0.0600 
    128 H128       -1.9807  -16.5295  -46.3337 H         1 UNK         0.0600 
    129 H129       -3.4677  -17.3567  -46.8411 H         1 UNK         0.0600 
    130 H130       -4.1241  -15.5764  -48.2180 H         1 UNK         0.3000 
    131 H131       -5.7303  -13.6364  -46.9094 H         1 UNK         0.0600 
    132 H132       -6.5085  -12.9858  -49.0476 H         1 UNK         0.0800 
    133 H133       -6.3484  -14.7074  -49.0771 H         1 UNK         0.0800 
    134 H134       -4.4614  -15.3869  -52.1473 H         1 UNK         0.0800 
    135 H135       -5.2585  -15.9832  -50.7167 H         1 UNK         0.0800 
    136 H136       -2.0088  -14.2519  -51.5406 H         1 UNK         0.1150 
    137 H137        0.3661  -17.1155  -49.4228 H         1 UNK         0.1150 
    138 H138       -3.8926  -17.5258  -49.5331 H         1 UNK         0.1150 
    139 H139       -0.6598  -19.2797  -48.9225 H         1 UNK         0.0800 
    140 H140       -1.3977  -18.4825  -47.5588 H         1 UNK         0.0800 
    141 H141       -4.0608  -20.6085  -46.7455 H         1 UNK         0.0800 
    142 H142       -2.4855  -20.0228  -46.3178 H         1 UNK         0.0800 
    143 H143       -2.7335  -22.6009  -47.9182 H         1 UNK         0.0600 
    144 H144       -0.5166  -21.3251  -46.6625 H         1 UNK         0.3000 
    145 H145        1.5003  -24.2827  -46.2936 H         1 UNK         0.0600 
    146 H146        3.0671  -22.6967  -47.4543 H         1 UNK         0.0600 
    147 H147        1.9431  -23.4770  -48.5558 H         1 UNK         0.0600 
    148 H148        1.6850  -21.8075  -48.0930 H         1 UNK         0.0600 
    149 H149        1.7339  -21.4967  -45.5223 H         1 UNK         0.3000 
    150 H150        0.5018  -21.9304  -42.2140 H         1 UNK         0.0600 
    151 H151        2.8058  -22.8360  -41.9925 H         1 UNK         0.0600 
    152 H152        2.7710  -21.1279  -41.5811 H         1 UNK         0.0600 
    153 H153        3.4100  -21.6471  -43.1401 H         1 UNK         0.0600 
    154 H154        1.8375  -19.7860  -43.6073 H         1 UNK         0.3000 
    155 H155       -1.0588  -18.4456  -45.1714 H         1 UNK         0.0600 
    156 H156        0.4326  -17.3320  -42.7394 H         1 UNK         0.0600 
    157 H157       -1.3100  -17.5640  -42.8457 H         1 UNK         0.0600 
    158 H158       -0.5173  -16.3964  -43.8921 H         1 UNK         0.0600 
    159 H159        1.5691  -17.4085  -44.9480 H         1 UNK         0.3000 
    160 H160        3.3349  -19.6297  -46.9502 H         1 UNK         0.0600 
    161 H161        2.3312  -17.0321  -48.2236 H         1 UNK         0.0600 
    162 H162        2.1269  -18.6399  -48.9191 H         1 UNK         0.0600 
    163 H163        3.7355  -17.9698  -48.7269 H         1 UNK         0.0600 
    164 H164        3.9532  -16.9241  -46.4245 H         1 UNK         0.3000 
    165 H165        4.4565  -16.9006  -42.9981 H         1 UNK         0.0600 
    166 H166        6.8359  -16.3733  -43.4821 H         1 UNK         0.0600 
    167 H167        6.5609  -18.1027  -43.6119 H         1 UNK         0.0600 
    168 H168        6.7078  -17.1301  -45.0708 H         1 UNK         0.0600 
    169 H169        5.2786  -15.1034  -45.0474 H         1 UNK         0.3000 
    170 H170        4.1691  -13.2511  -45.5353 H         1 UNK         0.0600 
    171 H171        3.1855  -14.6237  -47.3666 H         1 UNK         0.0600 
    172 H172        1.5711  -14.3911  -46.7108 H         1 UNK         0.0600 
    173 H173        2.4732  -13.0202  -47.3606 H         1 UNK         0.0600 
    174 H174        1.4248  -12.5329  -45.0578 H         1 UNK         0.3000 
    175 H175        1.7097  -11.1970  -41.8899 H         1 UNK         0.0600 
    176 H176        2.1604   -9.4240  -44.3506 H         1 UNK         0.0600 
    177 H177        1.4903   -8.8978  -42.8066 H         1 UNK         0.0600 
    178 H178        3.1595   -9.4359  -42.9013 H         1 UNK         0.0600 
    179 H179        0.0346  -10.6276  -44.2222 H         1 UNK         0.3000 
    180 H180       -2.4270  -13.0526  -43.3230 H         1 UNK         0.0600 
    181 H181       -3.8076  -11.0085  -43.4703 H         1 UNK         0.0600 
    182 H182       -2.3708   -9.9921  -43.3724 H         1 UNK         0.0600 
    183 H183       -2.8353  -10.9958  -42.0070 H         1 UNK         0.0600 
    184 H184       -2.4409  -12.9849  -45.4803 H         1 UNK         0.3000 
    185 H185       -2.1139  -10.6418  -47.9760 H         1 UNK         0.0600 
    186 H186       -0.5983  -12.1185  -49.2422 H         1 UNK         0.0600 
    187 H187        0.3232  -11.2769  -48.0066 H         1 UNK         0.0600 
    188 H188       -0.1230  -12.9638  -47.7707 H         1 UNK         0.0600 
    189 H189       -2.4500  -13.5180  -47.9699 H         1 UNK         0.3000 
    190 H190       -1.9964  -22.2055  -44.4141 H         1 UNK         0.3000 
    191 H191       -4.3593  -23.4257  -43.4622 H         1 UNK         0.0600 
    192 H192       -3.0704  -23.7319  -41.3579 H         1 UNK         0.0600 
    193 H193       -2.8102  -22.1272  -42.0245 H         1 UNK         0.0600 
    194 H194       -1.5698  -23.3669  -42.1974 H         1 UNK         0.0600 
    195 H195       -1.2160  -24.9034  -44.3667 H         1 UNK         0.3000 
    196 H196       -1.9316  -27.5872  -43.6730 H         1 UNK         0.0600 
    197 H197        0.2315  -26.5094  -45.5572 H         1 UNK         0.0600 
    198 H198        0.4172  -26.8248  -43.8341 H         1 UNK         0.0600 
    199 H199        0.1401  -28.1574  -44.9461 H         1 UNK         0.0600 
    200 H200       -1.9755  -25.8033  -46.7911 H         1 UNK         0.3000 
    201 H201       -2.8463  -28.0964  -48.3265 H         1 UNK         0.0600 
    202 H202       -2.6273  -25.1404  -49.0932 H         1 UNK         0.0600 
    203 H203       -2.7119  -26.5043  -50.2035 H         1 UNK         0.0600 
    204 H204       -1.3049  -26.3035  -49.1797 H         1 UNK         0.0600 
    205 H205       -4.6104  -26.0234  -46.3508 H         1 UNK         0.3000 
    206 H206       -6.7335  -25.4790  -46.0298 H         1 UNK         0.0600 
    207 H207       -7.2245  -27.9164  -46.2760 H         1 UNK         0.0600 
    208 H208       -8.5614  -26.9232  -46.8344 H         1 UNK         0.0600 
    209 H209       -7.5025  -27.6973  -48.0029 H         1 UNK         0.0600 
    210 H210       -5.4340  -23.8008  -47.4100 H         1 UNK         0.3000 
    211 H211       -5.4978  -21.9479  -48.5519 H         1 UNK         0.0600 
    212 H212       -7.5966  -20.9261  -49.2984 H         1 UNK         0.0600 
    213 H213       -7.8481  -21.6998  -47.7428 H         1 UNK         0.0600 
    214 H214       -8.4378  -22.4652  -49.2190 H         1 UNK         0.0600 
    215 H215       -5.6655  -24.8521  -50.1642 H         1 UNK         0.3000 
    216 H216       -5.9809  -24.0331  -52.8623 H         1 UNK         0.0600 
    217 H217       -4.4397  -26.4300  -51.7427 H         1 UNK         0.0600 
    218 H218       -5.0029  -26.2433  -53.3964 H         1 UNK         0.0600 
    219 H219       -6.1664  -26.3926  -52.0882 H         1 UNK         0.0600 
    220 H220       -3.2666  -23.6548  -50.7294 H         1 UNK         0.3000 
    221 H221       -1.1867  -23.3494  -52.6984 H         1 UNK         0.0600 
    222 H222       -0.7394  -23.9446  -50.3070 H         1 UNK         0.0600 
    223 H223       -1.3339  -22.3627  -49.8012 H         1 UNK         0.0600 
    224 H224        0.1205  -22.4904  -50.7730 H         1 UNK         0.0600 
    225 H225       -3.8034  -21.2741  -51.8061 H         1 UNK         0.3000 
    226 H226       -2.6249  -18.7289  -51.9387 H         1 UNK         0.0600 
    227 H227       -5.4904  -19.5999  -52.6113 H         1 UNK         0.0600 
    228 H228       -4.8955  -19.2001  -51.0019 H         1 UNK         0.0600 
    229 H229       -4.9868  -17.9587  -52.2425 H         1 UNK         0.0600 
    230 H230       -3.4676  -20.8902  -54.5452 H         1 UNK         0.3000 
    231 H231       -3.6602  -18.9901  -56.6779 H         1 UNK         0.0600 
    232 H232       -2.9512  -21.9749  -56.6885 H         1 UNK         0.0600 
    233 H233       -3.3921  -21.0290  -58.1060 H         1 UNK         0.0600 
    234 H234       -4.5711  -21.2931  -56.8312 H         1 UNK         0.0600 
    235 H235       -0.9099  -20.4358  -55.0285 H         1 UNK         0.3000 
    236 H236        1.0108  -19.2984  -57.0347 H         1 UNK         0.0600 
    237 H237        1.0661  -21.7867  -56.8287 H         1 UNK         0.0600 
    238 H238        2.5465  -21.0702  -56.2126 H         1 UNK         0.0600 
    239 H239        1.3213  -21.6481  -55.0889 H         1 UNK         0.0600 
    240 H240       -0.1798  -19.0193  -53.8186 H         1 UNK         0.3000 
    241 H241        0.4064  -18.0264  -51.9648 H         1 UNK         0.0600 
    242 H242        2.4492  -21.0106  -51.4168 H         1 UNK         0.3800 
    243 H243        0.9099  -20.5940  -52.1495 H         1 UNK         0.3800 
    244 H244        1.0830  -16.0016  -53.3292 H         1 UNK         0.0800 
    245 H245        2.7256  -16.5773  -53.3160 H         1 UNK         0.0800 
    246 H246        0.7536  -14.0736  -50.1048 H         1 UNK         0.0800 
    247 H247        0.3802  -14.1990  -51.8052 H         1 UNK         0.0800 
@<TRIPOS>BOND
     1    1    2 1    
     2    1  127 1    
     3    1  128 1    
     4    1  129 1    
     5    2    3 2    
     6    2    4 am   BACKBONE|DICT|INTERRES
     7    4    5 1    
     8    4  130 1    
     9    5    6 1    
    10    5   65 1    
    11    5  131 1    
    12    6    7 1    
    13    6  132 1    
    14    6  133 1    
    15    7    8 1    
    16    8    9 1    
    17    8  134 1    
    18    8  135 1    
    19    9   10 ar   
    20    9   14 ar   
    21   10   11 ar   
    22   10  136 1    
    23   11   12 ar   
    24   11  126 1    
    25   12   13 ar   
    26   12  137 1    
    27   13   14 ar   
    28   13   15 1    
    29   14  138 1    
    30   15   16 1    
    31   15  139 1    
    32   15  140 1    
    33   16   17 1    
    34   17   18 1    
    35   17  141 1    
    36   17  142 1    
    37   18   19 1    
    38   18   67 1    
    39   18  143 1    
    40   19   20 am   BACKBONE|DICT|INTERRES
    41   19  144 1    
    42   20   21 2    
    43   20   22 1    
    44   22   23 1    
    45   22   24 1    
    46   22  145 1    
    47   23  146 1    
    48   23  147 1    
    49   23  148 1    
    50   24   25 am   BACKBONE|DICT|INTERRES
    51   24  149 1    
    52   25   26 2    
    53   25   27 1    
    54   27   28 1    
    55   27   29 1    
    56   27  150 1    
    57   28  151 1    
    58   28  152 1    
    59   28  153 1    
    60   29   30 am   BACKBONE|DICT|INTERRES
    61   29  154 1    
    62   30   31 2    
    63   30   32 1    
    64   32   33 1    
    65   32   34 1    
    66   32  155 1    
    67   33  156 1    
    68   33  157 1    
    69   33  158 1    
    70   34   35 am   BACKBONE|DICT|INTERRES
    71   34  159 1    
    72   35   36 2    
    73   35   37 1    
    74   37   38 1    
    75   37   39 1    
    76   37  160 1    
    77   38  161 1    
    78   38  162 1    
    79   38  163 1    
    80   39   40 am   BACKBONE|DICT|INTERRES
    81   39  164 1    
    82   40   41 2    
    83   40   42 1    
    84   42   43 1    
    85   42   44 1    
    86   42  165 1    
    87   43  166 1    
    88   43  167 1    
    89   43  168 1    
    90   44   45 am   BACKBONE|DICT|INTERRES
    91   44  169 1    
    92   45   46 2    
    93   45   47 1    
    94   47   48 1    
    95   47   49 1    
    96   47  170 1    
    97   48  171 1    
    98   48  172 1    
    99   48  173 1    
   100   49   50 am   BACKBONE|DICT|INTERRES
   101   49  174 1    
   102   50   51 2    
   103   50   52 1    
   104   52   53 1    
   105   52   54 1    
   106   52  175 1    
   107   53  176 1    
   108   53  177 1    
   109   53  178 1    
   110   54   55 am   BACKBONE|DICT|INTERRES
   111   54  179 1    
   112   55   56 2    
   113   55   57 1    
   114   57   58 1    
   115   57   59 1    
   116   57  180 1    
   117   58  181 1    
   118   58  182 1    
   119   58  183 1    
   120   59   60 am   BACKBONE|DICT|INTERRES
   121   59  184 1    
   122   60   61 2    
   123   60   62 1    
   124   62   63 1    
   125   62   64 1    
   126   62  185 1    
   127   63  186 1    
   128   63  187 1    
   129   63  188 1    
   130   64   65 am   BACKBONE|DICT|INTERRES
   131   64  189 1    
   132   65   66 2    
   133   67   68 2    
   134   67   69 am   BACKBONE|DICT|INTERRES
   135   69   70 1    
   136   69  190 1    
   137   70   71 1    
   138   70   72 1    
   139   70  191 1    
   140   71  192 1    
   141   71  193 1    
   142   71  194 1    
   143   72   73 2    
   144   72   74 am   BACKBONE|DICT|INTERRES
   145   74   75 1    
   146   74  195 1    
   147   75   76 1    
   148   75   77 1    
   149   75  196 1    
   150   76  197 1    
   151   76  198 1    
   152   76  199 1    
   153   77   78 2    
   154   77   79 am   BACKBONE|DICT|INTERRES
   155   79   80 1    
   156   79  200 1    
   157   80   81 1    
   158   80   82 1    
   159   80  201 1    
   160   81  202 1    
   161   81  203 1    
   162   81  204 1    
   163   82   83 2    
   164   82   84 am   BACKBONE|DICT|INTERRES
   165   84   85 1    
   166   84  205 1    
   167   85   86 1    
   168   85   87 1    
   169   85  206 1    
   170   86  207 1    
   171   86  208 1    
   172   86  209 1    
   173   87   88 2    
   174   87   89 am   BACKBONE|DICT|INTERRES
   175   89   90 1    
   176   89  210 1    
   177   90   91 1    
   178   90   92 1    
   179   90  211 1    
   180   91  212 1    
   181   91  213 1    
   182   91  214 1    
   183   92   93 2    
   184   92   94 am   BACKBONE|DICT|INTERRES
   185   94   95 1    
   186   94  215 1    
   187   95   96 1    
   188   95   97 1    
   189   95  216 1    
   190   96  217 1    
   191   96  218 1    
   192   96  219 1    
   193   97   98 2    
   194   97   99 am   BACKBONE|DICT|INTERRES
   195   99  100 1    
   196   99  220 1    
   197  100  101 1    
   198  100  102 1    
   199  100  221 1    
   200  101  222 1    
   201  101  223 1    
   202  101  224 1    
   203  102  103 2    
   204  102  104 am   BACKBONE|DICT|INTERRES
   205  104  105 1    
   206  104  225 1    
   207  105  106 1    
   208  105  107 1    
   209  105  226 1    
   210  106  227 1    
   211  106  228 1    
   212  106  229 1    
   213  107  108 2    
   214  107  109 am   BACKBONE|DICT|INTERRES
   215  109  110 1    
   216  109  230 1    
   217  110  111 1    
   218  110  112 1    
   219  110  231 1    
   220  111  232 1    
   221  111  233 1    
   222  111  234 1    
   223  112  113 2    
   224  112  114 am   BACKBONE|DICT|INTERRES
   225  114  115 1    
   226  114  235 1    
   227  115  116 1    
   228  115  117 1    
   229  115  236 1    
   230  116  237 1    
   231  116  238 1    
   232  116  239 1    
   233  117  118 2    
   234  117  119 am   BACKBONE|DICT|INTERRES
   235  119  120 1    
   236  119  240 1    
   237  120  121 1    
   238  120  124 1    
   239  120  241 1    
   240  121  122 am   BACKBONE|DICT|INTERRES
   241  121  123 2    
   242  122  242 1    
   243  122  243 1    
   244  124  125 1    
   245  124  244 1    
   246  124  245 1    
   247  125  126 1    
   248  126  246 1    
   249  126  247 1    
@<TRIPOS>SUBSTRUCTURE
     1 UNK         1 GROUP             0       ****    0 ROOT    
