@<TRIPOS>MOLECULE
3R540
247   249    1
SMALL
USER_CHARGES


@<TRIPOS>ATOM
      1 CA         -3.0173  -15.9072  -44.5724 C.3       0 UNK        -0.1800 
      2 C          -1.8279  -15.0243  -44.9211 C.2       0 UNK         0.5000 
      3 O          -2.0177  -13.9145  -45.4183 O.2       0 UNK        -0.5000 
      4 N          -0.6043  -15.4908  -44.6410 N.am      1 UNK        -0.5000 
      5 CA          0.6566  -14.7819  -44.9120 C.3       1 UNK         0.1400 
      6 C6          1.8591  -15.7441  -45.0926 C.3       23 UNK        -0.0398 
      7 S7          1.5505  -17.0735  -46.2975 S.3       23 UNK        -0.2404 
      8 C8          2.0890  -16.3144  -47.8535 C.3       23 UNK        -0.0205 
      9 C9          1.5596  -17.1074  -49.0375 C.ar      23 UNK        -0.0193 
     10 C10         0.4436  -16.6545  -49.7458 C.ar      23 UNK        -0.1150 
     11 C11        -0.0414  -17.3718  -50.8433 C.ar      23 UNK        -0.0193 
     12 C12         0.5855  -18.5637  -51.2190 C.ar      23 UNK        -0.1150 
     13 C13         1.7010  -19.0290  -50.5146 C.ar      23 UNK        -0.0193 
     14 C14         2.1855  -18.2938  -49.4287 C.ar      23 UNK        -0.1150 
     15 C15         2.4129  -20.3028  -50.9446 C.3       23 UNK        -0.0205 
     16 S16         2.1428  -21.6742  -49.7784 S.3       23 UNK        -0.2404 
     17 C17         0.4259  -22.1585  -50.1585 C.3       23 UNK        -0.0398 
     18 CA         -0.4264  -22.3663  -48.8852 C.3       11 UNK         0.1400 
     19 N          -0.4930  -21.1593  -48.0463 N.am      11 UNK        -0.5000 
     20 C          -1.0762  -21.0786  -46.8423 C.2       10 UNK         0.5000 
     21 O          -1.6978  -22.0079  -46.3172 O.2       10 UNK        -0.5000 
     22 CA         -0.9808  -19.7262  -46.1266 C.3       10 UNK         0.1400 
     23 CB         -1.7521  -18.6305  -46.8853 C.3       10 UNK        -0.1800 
     24 N          -1.5120  -19.8734  -44.7757 N.am      10 UNK        -0.5000 
     25 C          -1.1193  -19.1845  -43.7012 C.2       9 UNK         0.5000 
     26 O          -0.3236  -18.2440  -43.7477 O.2       9 UNK        -0.5000 
     27 CA         -1.7196  -19.6291  -42.3517 C.3       9 UNK         0.1400 
     28 CB         -1.5106  -21.1357  -42.1084 C.3       9 UNK        -0.1800 
     29 N          -1.1069  -18.8992  -41.2437 N.am      9 UNK        -0.5000 
     30 C          -1.5122  -17.7161  -40.7645 C.2       8 UNK         0.5000 
     31 O          -2.5330  -17.1347  -41.1337 O.2       8 UNK        -0.5000 
     32 CA         -0.6104  -17.0749  -39.6904 C.3       8 UNK         0.1400 
     33 CB         -1.0403  -17.5239  -38.2854 C.3       8 UNK        -0.1800 
     34 N           0.8032  -17.4092  -39.8939 N.am      8 UNK        -0.5000 
     35 C           1.5747  -16.8169  -40.8131 C.2       7 UNK         0.5000 
     36 O           1.2181  -15.8452  -41.4817 O.2       7 UNK        -0.5000 
     37 CA          2.9646  -17.4229  -41.0462 C.3       7 UNK         0.1400 
     38 CB          2.8558  -18.6781  -41.9356 C.3       7 UNK        -0.1800 
     39 N           3.7943  -16.4112  -41.6913 N.am      7 UNK        -0.5000 
     40 C           5.1189  -16.4568  -41.8692 C.2       6 UNK         0.5000 
     41 O           5.8310  -17.3876  -41.4905 O.2       6 UNK        -0.5000 
     42 CA          5.7610  -15.2546  -42.5862 C.3       6 UNK         0.1400 
     43 CB          5.8341  -15.5026  -44.1005 C.3       6 UNK        -0.1800 
     44 N           5.0448  -14.0016  -42.3402 N.am      6 UNK        -0.5000 
     45 C           5.1535  -13.2767  -41.2173 C.2       5 UNK         0.5000 
     46 O           5.8605  -13.6063  -40.2635 O.2       5 UNK        -0.5000 
     47 CA          4.3278  -11.9746  -41.1495 C.3       5 UNK         0.1400 
     48 CB          4.9543  -10.9037  -40.2328 C.3       5 UNK        -0.1800 
     49 N           4.0120  -11.4270  -42.4722 N.am      5 UNK        -0.5000 
     50 C           4.8456  -10.9084  -43.3867 C.2       4 UNK         0.5000 
     51 O           6.0550  -10.7559  -43.2143 O.2       4 UNK        -0.5000 
     52 CA          4.2182  -10.5155  -44.7393 C.3       4 UNK         0.1400 
     53 CB          4.5446  -11.5761  -45.8039 C.3       4 UNK        -0.1800 
     54 N           2.7625  -10.3760  -44.6465 N.am      4 UNK        -0.5000 
     55 C           2.1205   -9.2393  -44.3415 C.2       3 UNK         0.5000 
     56 O           2.6808   -8.1509  -44.2075 O.2       3 UNK        -0.5000 
     57 CA          0.5962   -9.3403  -44.1252 C.3       3 UNK         0.1400 
     58 CB         -0.1509   -9.1566  -45.4548 C.3       3 UNK        -0.1800 
     59 N           0.1904  -10.6104  -43.5183 N.am      3 UNK        -0.5000 
     60 C           0.4881  -10.9906  -42.2673 C.2       2 UNK         0.5000 
     61 O           1.0640  -10.2685  -41.4543 O.2       2 UNK        -0.5000 
     62 CA          0.1283  -12.4343  -41.8647 C.3       2 UNK         0.1400 
     63 CB         -1.1792  -12.4646  -41.0600 C.3       2 UNK        -0.1800 
     64 N           0.0112  -13.3644  -42.9891 N.am      2 UNK        -0.5000 
     65 C           0.9788  -13.6985  -43.8548 C.2       1 UNK         0.5000 
     66 O           2.0980  -13.1820  -43.8380 O.2       1 UNK        -0.5000 
     67 C          -1.8076  -22.9512  -49.2548 C.2       11 UNK         0.5000 
     68 O          -1.8960  -24.1437  -49.5414 O.2       11 UNK        -0.5000 
     69 N          -2.8697  -22.1372  -49.1750 N.am      12 UNK        -0.5000 
     70 CA         -4.2673  -22.5525  -49.3083 C.3       12 UNK         0.1400 
     71 CB         -5.1634  -21.3115  -49.1761 C.3       12 UNK        -0.1800 
     72 C          -4.7091  -23.6378  -48.3030 C.2       12 UNK         0.5000 
     73 O          -5.6359  -24.3916  -48.5977 O.2       12 UNK        -0.5000 
     74 N          -4.0347  -23.7170  -47.1473 N.am      13 UNK        -0.5000 
     75 CA         -4.2397  -24.7669  -46.1510 C.3       13 UNK         0.1400 
     76 CB         -3.7223  -24.2669  -44.7926 C.3       13 UNK        -0.1800 
     77 C          -3.5577  -26.0987  -46.5277 C.2       13 UNK         0.5000 
     78 O          -3.9235  -27.1326  -45.9667 O.2       13 UNK        -0.5000 
     79 N          -2.5707  -26.0622  -47.4355 N.am      14 UNK        -0.5000 
     80 CA         -1.7590  -27.2183  -47.8128 C.3       14 UNK         0.1400 
     81 CB         -0.3399  -26.7538  -48.1797 C.3       14 UNK        -0.1800 
     82 C          -2.3746  -28.0298  -48.9643 C.2       14 UNK         0.5000 
     83 O          -2.2440  -29.2551  -48.9599 O.2       14 UNK        -0.5000 
     84 N          -3.0230  -27.3606  -49.9278 N.am      15 UNK        -0.5000 
     85 CA         -3.6079  -27.9968  -51.1069 C.3       15 UNK         0.1400 
     86 CB         -2.5082  -28.2866  -52.1467 C.3       15 UNK        -0.1800 
     87 C          -4.6938  -27.1090  -51.7238 C.2       15 UNK         0.5000 
     88 O          -4.5892  -25.8821  -51.6732 O.2       15 UNK        -0.5000 
     89 N          -5.6822  -27.7484  -52.3632 N.am      16 UNK        -0.5000 
     90 CA         -6.7652  -27.0884  -53.0976 C.3       16 UNK         0.1400 
     91 CB         -7.8445  -28.1218  -53.4518 C.3       16 UNK        -0.1800 
     92 C          -6.2761  -26.3624  -54.3651 C.2       16 UNK         0.5000 
     93 O          -6.8150  -25.3117  -54.7094 O.2       16 UNK        -0.5000 
     94 N          -5.2355  -26.9053  -55.0138 N.am      17 UNK        -0.5000 
     95 CA         -4.5629  -26.2830  -56.1574 C.3       17 UNK         0.1400 
     96 CB         -3.5925  -27.2921  -56.7889 C.3       17 UNK        -0.1800 
     97 C          -3.8238  -24.9910  -55.7630 C.2       17 UNK         0.5000 
     98 O          -3.8380  -24.0187  -56.5181 O.2       17 UNK        -0.5000 
     99 N          -3.2315  -24.9900  -54.5613 N.am      18 UNK        -0.5000 
    100 CA        -2.6027  -23.8170  -53.9621 C.3       18 UNK         0.1400 
    101 CB        -1.6829  -24.2518  -52.8166 C.3       18 UNK        -0.1800 
    102 C         -3.6411  -22.7855  -53.4895 C.2       18 UNK         0.5000 
    103 O         -3.3925  -21.5896  -53.6195 O.2       18 UNK        -0.5000 
    104 N         -4.8016  -23.2494  -53.0034 N.am      19 UNK        -0.5000 
    105 CA        -5.9441  -22.4037  -52.6452 C.3       19 UNK         0.1400 
    106 CB        -6.9959  -23.2333  -51.8933 C.3       19 UNK        -0.1800 
    107 C         -6.5756  -21.7032  -53.8608 C.2       19 UNK         0.5000 
    108 O         -7.0061  -20.5575  -53.7397 O.2       19 UNK        -0.5000 
    109 N         -6.5985  -22.3891  -55.0120 N.am      20 UNK        -0.5000 
    110 CA        -7.0390  -21.8374  -56.2932 C.3       20 UNK         0.1400 
    111 CB        -7.2040  -22.9747  -57.3126 C.3       20 UNK        -0.1800 
    112 C         -6.0861  -20.7502  -56.8276 C.2       20 UNK         0.5000 
    113 O         -6.5536  -19.7748  -57.4168 O.2       20 UNK        -0.5000 
    114 N         -4.7762  -20.9255  -56.5998 N.am      21 UNK        -0.5000 
    115 CA        -3.7432  -19.9398  -56.9191 C.3       21 UNK         0.1400 
    116 CB        -2.3637  -20.6178  -56.9144 C.3       21 UNK        -0.1800 
    117 C         -3.7821  -18.7417  -55.9517 C.2       21 UNK         0.5000 
    118 O         -3.8380  -17.5945  -56.3975 O.2       21 UNK        -0.5000 
    119 N         -3.7875  -19.0314  -54.6452 N.am      22 UNK        -0.5000 
    120 CA        -3.8972  -18.0760  -53.5326 C.3       22 UNK         0.1400 
    121 C         -5.3429  -17.5162  -53.3486 C.2       22 UNK         0.5000 
    122 N         -5.9560  -16.9887  -54.4001 N.am      22 UNK        -0.7600 
    123 O         -5.9179  -17.5495  -52.2639 O.2       22 UNK        -0.5000 
    124 C124       -3.2644  -18.6738  -52.2431 C.3       23 UNK        -0.0398 
    125 S125       -2.8117  -17.4122  -51.0028 S.3       23 UNK        -0.2404 
    126 C126       -1.2130  -16.8262  -51.6437 C.3       23 UNK        -0.0205 
    127 H127       -3.5121  -16.2497  -45.4810 H         1 UNK         0.0600 
    128 H128       -3.7399  -15.3467  -43.9794 H         1 UNK         0.0600 
    129 H129       -2.7177  -16.7799  -43.9943 H         1 UNK         0.0600 
    130 H130       -0.4954  -16.4236  -44.2455 H         1 UNK         0.3000 
    131 H131        0.5380  -14.2464  -45.8559 H         1 UNK         0.0600 
    132 H132        2.7464  -15.1942  -45.4086 H         1 UNK         0.0800 
    133 H133        2.1090  -16.2176  -44.1421 H         1 UNK         0.0800 
    134 H134        1.7363  -15.2830  -47.9010 H         1 UNK         0.0800 
    135 H135        3.1788  -16.2749  -47.8839 H         1 UNK         0.0800 
    136 H136       -0.0430  -15.7355  -49.4500 H         1 UNK         0.1150 
    137 H137        0.2162  -19.1169  -52.0711 H         1 UNK         0.1150 
    138 H138        3.0499  -18.6478  -48.8840 H         1 UNK         0.1150 
    139 H139        2.1029  -20.6073  -51.9456 H         1 UNK         0.0800 
    140 H140        3.4839  -20.1047  -51.0077 H         1 UNK         0.0800 
    141 H141        0.4810  -23.0841  -50.7342 H         1 UNK         0.0800 
    142 H142       -0.0386  -21.4175  -50.8110 H         1 UNK         0.0800 
    143 H143        0.0669  -23.1318  -48.2821 H         1 UNK         0.0600 
    144 H144        0.0014  -20.3537  -48.4040 H         1 UNK         0.3000 
    145 H145        0.0777  -19.4714  -46.0726 H         1 UNK         0.0600 
    146 H146       -1.6207  -17.6622  -46.4064 H         1 UNK         0.0600 
    147 H147       -1.3929  -18.5231  -47.9097 H         1 UNK         0.0600 
    148 H148       -2.8206  -18.8441  -46.9284 H         1 UNK         0.0600 
    149 H149       -2.1169  -20.6777  -44.6661 H         1 UNK         0.3000 
    150 H150       -2.7918  -19.4239  -42.3763 H         1 UNK         0.0600 
    151 H151       -0.4555  -21.4084  -42.1564 H         1 UNK         0.0600 
    152 H152       -2.0408  -21.7395  -42.8458 H         1 UNK         0.0600 
    153 H153       -1.8869  -21.4309  -41.1286 H         1 UNK         0.0600 
    154 H154       -0.2298  -19.2653  -40.9085 H         1 UNK         0.3000 
    155 H155       -0.7347  -15.9913  -39.7526 H         1 UNK         0.0600 
    156 H156       -0.9360  -18.6017  -38.1552 H         1 UNK         0.0600 
    157 H157       -2.0846  -17.2702  -38.0981 H         1 UNK         0.0600 
    158 H158       -0.4446  -17.0329  -37.5157 H         1 UNK         0.0600 
    159 H159        1.1717  -18.1813  -39.3573 H         1 UNK         0.3000 
    160 H160        3.4042  -17.6830  -40.0813 H         1 UNK         0.0600 
    161 H161        2.4328  -18.4404  -42.9128 H         1 UNK         0.0600 
    162 H162        2.2147  -19.4319  -41.4778 H         1 UNK         0.0600 
    163 H163        3.8280  -19.1427  -42.0976 H         1 UNK         0.0600 
    164 H164        3.2750  -15.5962  -41.9933 H         1 UNK         0.3000 
    165 H165        6.7826  -15.1515  -42.2135 H         1 UNK         0.0600 
    166 H166        6.4184  -16.3971  -44.3198 H         1 UNK         0.0600 
    167 H167        4.8454  -15.6453  -44.5343 H         1 UNK         0.0600 
    168 H168        6.3110  -14.6684  -44.6156 H         1 UNK         0.0600 
    169 H169        4.4253  -13.6702  -43.0669 H         1 UNK         0.3000 
    170 H170        3.3703  -12.2557  -40.7095 H         1 UNK         0.0600 
    171 H171        5.0290  -11.2635  -39.2060 H         1 UNK         0.0600 
    172 H172        5.9590  -10.6288  -40.5545 H         1 UNK         0.0600 
    173 H173        4.3468   -9.9987  -40.2141 H         1 UNK         0.0600 
    174 H174        3.0535  -11.5564  -42.7664 H         1 UNK         0.3000 
    175 H175        4.6632   -9.5687  -45.0523 H         1 UNK         0.0600 
    176 H176        4.1370  -11.2968  -46.7755 H         1 UNK         0.0600 
    177 H177        5.6228  -11.6891  -45.9249 H         1 UNK         0.0600 
    178 H178        4.1412  -12.5544  -45.5401 H         1 UNK         0.0600 
    179 H179        2.2314  -11.2357  -44.7061 H         1 UNK         0.3000 
    180 H180        0.3015   -8.5323  -43.4522 H         1 UNK         0.0600 
    181 H181        0.0864   -9.9506  -46.1640 H         1 UNK         0.0600 
    182 H182        0.1138   -8.2077  -45.9232 H         1 UNK         0.0600 
    183 H183       -1.2305   -9.1529  -45.3033 H         1 UNK         0.0600 
    184 H184       -0.2981  -11.2656  -44.1116 H         1 UNK         0.3000 
    185 H185        0.9312  -12.8025  -41.2231 H         1 UNK         0.0600 
    186 H186       -1.1209  -11.8061  -40.1923 H         1 UNK         0.0600 
    187 H187       -2.0292  -12.1416  -41.6624 H         1 UNK         0.0600 
    188 H188       -1.3904  -13.4686  -40.6907 H         1 UNK         0.0600 
    189 H189       -0.8681  -13.8513  -43.0773 H         1 UNK         0.3000 
    190 H190       -2.7094  -21.1747  -48.9187 H         1 UNK         0.3000 
    191 H191       -4.3821  -22.9753  -50.3056 H         1 UNK         0.0600 
    192 H192       -4.9024  -20.5497  -49.9098 H         1 UNK         0.0600 
    193 H193       -6.2121  -21.5677  -49.3321 H         1 UNK         0.0600 
    194 H194       -5.0798  -20.8615  -48.1860 H         1 UNK         0.0600 
    195 H195       -3.2787  -23.0638  -46.9648 H         1 UNK         0.3000 
    196 H196       -5.3105  -24.9586  -46.0545 H         1 UNK         0.0600 
    197 H197       -3.9180  -24.9977  -44.0069 H         1 UNK         0.0600 
    198 H198       -4.2110  -23.3373  -44.5006 H         1 UNK         0.0600 
    199 H199       -2.6465  -24.0885  -44.8127 H         1 UNK         0.0600 
    200 H200       -2.3673  -25.1945  -47.9187 H         1 UNK         0.3000 
    201 H201       -1.6684  -27.8836  -46.9512 H         1 UNK         0.0600 
    202 H202        0.3140  -27.6099  -48.3501 H         1 UNK         0.0600 
    203 H203       -0.3280  -26.1538  -49.0895 H         1 UNK         0.0600 
    204 H204        0.1028  -26.1610  -47.3791 H         1 UNK         0.0600 
    205 H205       -3.1180  -26.3529  -49.8785 H         1 UNK         0.3000 
    206 H206       -4.0760  -28.9370  -50.8068 H         1 UNK         0.0600 
    207 H207       -1.7678  -28.9856  -51.7578 H         1 UNK         0.0600 
    208 H208       -2.9249  -28.7327  -53.0505 H         1 UNK         0.0600 
    209 H209       -1.9835  -27.3765  -52.4394 H         1 UNK         0.0600 
    210 H210       -5.6919  -28.7585  -52.3650 H         1 UNK         0.3000 
    211 H211       -7.2127  -26.3420  -52.4386 H         1 UNK         0.0600 
    212 H212       -7.4525  -28.9124  -54.0929 H         1 UNK         0.0600 
    213 H213       -8.6753  -27.6521  -53.9803 H         1 UNK         0.0600 
    214 H214       -8.2539  -28.5876  -52.5552 H         1 UNK         0.0600 
    215 H215       -4.8594  -27.7799  -54.6797 H         1 UNK         0.3000 
    216 H216       -5.3196  -26.0216  -56.9004 H         1 UNK         0.0600 
    217 H217       -3.0880  -26.8587  -57.6535 H         1 UNK         0.0600 
    218 H218       -4.1190  -28.1821  -57.1338 H         1 UNK         0.0600 
    219 H219       -2.8227  -27.6088  -56.0840 H         1 UNK         0.0600 
    220 H220       -3.2961  -25.8156  -53.9860 H         1 UNK         0.3000 
    221 H221       -1.9825  -23.3337  -54.7203 H         1 UNK         0.0600 
    222 H222       -2.2278  -24.7929  -52.0445 H         1 UNK         0.0600 
    223 H223       -0.8815  -24.8975  -53.1754 H         1 UNK         0.0600 
    224 H224       -1.2190  -23.3844  -52.3488 H         1 UNK         0.0600 
    225 H225       -4.8996  -24.2463  -52.8461 H         1 UNK         0.3000 
    226 H226       -5.5799  -21.6228  -51.9768 H         1 UNK         0.0600 
    227 H227       -7.7618  -22.5864  -51.4641 H         1 UNK         0.0600 
    228 H228       -7.5014  -23.9386  -52.5516 H         1 UNK         0.0600 
    229 H229       -6.5533  -23.8011  -51.0760 H         1 UNK         0.0600 
    230 H230       -6.3159  -23.3632  -55.0026 H         1 UNK         0.3000 
    231 H231       -8.0171  -21.3759  -56.1418 H         1 UNK         0.0600 
    232 H232       -6.2593  -23.4799  -57.5124 H         1 UNK         0.0600 
    233 H233       -7.5794  -22.5940  -58.2632 H         1 UNK         0.0600 
    234 H234       -7.9139  -23.7222  -56.9576 H         1 UNK         0.0600 
    235 H235       -4.4747  -21.7754  -56.1420 H         1 UNK         0.3000 
    236 H236       -3.9266  -19.5630  -57.9277 H         1 UNK         0.0600 
    237 H237       -2.3256  -21.4355  -57.6346 H         1 UNK         0.0600 
    238 H238       -1.5809  -19.9082  -57.1849 H         1 UNK         0.0600 
    239 H239       -2.1118  -21.0257  -55.9356 H         1 UNK         0.0600 
    240 H240       -3.7391  -20.0100  -54.3670 H         1 UNK         0.3000 
    241 H241       -3.2907  -17.2110  -53.8060 H         1 UNK         0.0600 
    242 H242       -5.4836  -16.9715  -55.2961 H         1 UNK         0.3800 
    243 H243       -6.8923  -16.6275  -54.3088 H         1 UNK         0.3800 
    244 H244       -2.3612  -19.2347  -52.4882 H         1 UNK         0.0800 
    245 H245       -3.9416  -19.3963  -51.7864 H         1 UNK         0.0800 
    246 H246       -1.2056  -15.7359  -51.6059 H         1 UNK         0.0800 
    247 H247       -1.1009  -17.0858  -52.6974 H         1 UNK         0.0800 
@<TRIPOS>BOND
     1    1    2 1    
     2    1  127 1    
     3    1  128 1    
     4    1  129 1    
     5    2    3 2    
     6    2    4 am   BACKBONE|DICT|INTERRES
     7    4    5 1    
     8    4  130 1    
     9    5    6 1    
    10    5   65 1    
    11    5  131 1    
    12    6    7 1    
    13    6  132 1    
    14    6  133 1    
    15    7    8 1    
    16    8    9 1    
    17    8  134 1    
    18    8  135 1    
    19    9   10 ar   
    20    9   14 ar   
    21   10   11 ar   
    22   10  136 1    
    23   11   12 ar   
    24   11  126 1    
    25   12   13 ar   
    26   12  137 1    
    27   13   14 ar   
    28   13   15 1    
    29   14  138 1    
    30   15   16 1    
    31   15  139 1    
    32   15  140 1    
    33   16   17 1    
    34   17   18 1    
    35   17  141 1    
    36   17  142 1    
    37   18   19 1    
    38   18   67 1    
    39   18  143 1    
    40   19   20 am   BACKBONE|DICT|INTERRES
    41   19  144 1    
    42   20   21 2    
    43   20   22 1    
    44   22   23 1    
    45   22   24 1    
    46   22  145 1    
    47   23  146 1    
    48   23  147 1    
    49   23  148 1    
    50   24   25 am   BACKBONE|DICT|INTERRES
    51   24  149 1    
    52   25   26 2    
    53   25   27 1    
    54   27   28 1    
    55   27   29 1    
    56   27  150 1    
    57   28  151 1    
    58   28  152 1    
    59   28  153 1    
    60   29   30 am   BACKBONE|DICT|INTERRES
    61   29  154 1    
    62   30   31 2    
    63   30   32 1    
    64   32   33 1    
    65   32   34 1    
    66   32  155 1    
    67   33  156 1    
    68   33  157 1    
    69   33  158 1    
    70   34   35 am   BACKBONE|DICT|INTERRES
    71   34  159 1    
    72   35   36 2    
    73   35   37 1    
    74   37   38 1    
    75   37   39 1    
    76   37  160 1    
    77   38  161 1    
    78   38  162 1    
    79   38  163 1    
    80   39   40 am   BACKBONE|DICT|INTERRES
    81   39  164 1    
    82   40   41 2    
    83   40   42 1    
    84   42   43 1    
    85   42   44 1    
    86   42  165 1    
    87   43  166 1    
    88   43  167 1    
    89   43  168 1    
    90   44   45 am   BACKBONE|DICT|INTERRES
    91   44  169 1    
    92   45   46 2    
    93   45   47 1    
    94   47   48 1    
    95   47   49 1    
    96   47  170 1    
    97   48  171 1    
    98   48  172 1    
    99   48  173 1    
   100   49   50 am   BACKBONE|DICT|INTERRES
   101   49  174 1    
   102   50   51 2    
   103   50   52 1    
   104   52   53 1    
   105   52   54 1    
   106   52  175 1    
   107   53  176 1    
   108   53  177 1    
   109   53  178 1    
   110   54   55 am   BACKBONE|DICT|INTERRES
   111   54  179 1    
   112   55   56 2    
   113   55   57 1    
   114   57   58 1    
   115   57   59 1    
   116   57  180 1    
   117   58  181 1    
   118   58  182 1    
   119   58  183 1    
   120   59   60 am   BACKBONE|DICT|INTERRES
   121   59  184 1    
   122   60   61 2    
   123   60   62 1    
   124   62   63 1    
   125   62   64 1    
   126   62  185 1    
   127   63  186 1    
   128   63  187 1    
   129   63  188 1    
   130   64   65 am   BACKBONE|DICT|INTERRES
   131   64  189 1    
   132   65   66 2    
   133   67   68 2    
   134   67   69 am   BACKBONE|DICT|INTERRES
   135   69   70 1    
   136   69  190 1    
   137   70   71 1    
   138   70   72 1    
   139   70  191 1    
   140   71  192 1    
   141   71  193 1    
   142   71  194 1    
   143   72   73 2    
   144   72   74 am   BACKBONE|DICT|INTERRES
   145   74   75 1    
   146   74  195 1    
   147   75   76 1    
   148   75   77 1    
   149   75  196 1    
   150   76  197 1    
   151   76  198 1    
   152   76  199 1    
   153   77   78 2    
   154   77   79 am   BACKBONE|DICT|INTERRES
   155   79   80 1    
   156   79  200 1    
   157   80   81 1    
   158   80   82 1    
   159   80  201 1    
   160   81  202 1    
   161   81  203 1    
   162   81  204 1    
   163   82   83 2    
   164   82   84 am   BACKBONE|DICT|INTERRES
   165   84   85 1    
   166   84  205 1    
   167   85   86 1    
   168   85   87 1    
   169   85  206 1    
   170   86  207 1    
   171   86  208 1    
   172   86  209 1    
   173   87   88 2    
   174   87   89 am   BACKBONE|DICT|INTERRES
   175   89   90 1    
   176   89  210 1    
   177   90   91 1    
   178   90   92 1    
   179   90  211 1    
   180   91  212 1    
   181   91  213 1    
   182   91  214 1    
   183   92   93 2    
   184   92   94 am   BACKBONE|DICT|INTERRES
   185   94   95 1    
   186   94  215 1    
   187   95   96 1    
   188   95   97 1    
   189   95  216 1    
   190   96  217 1    
   191   96  218 1    
   192   96  219 1    
   193   97   98 2    
   194   97   99 am   BACKBONE|DICT|INTERRES
   195   99  100 1    
   196   99  220 1    
   197  100  101 1    
   198  100  102 1    
   199  100  221 1    
   200  101  222 1    
   201  101  223 1    
   202  101  224 1    
   203  102  103 2    
   204  102  104 am   BACKBONE|DICT|INTERRES
   205  104  105 1    
   206  104  225 1    
   207  105  106 1    
   208  105  107 1    
   209  105  226 1    
   210  106  227 1    
   211  106  228 1    
   212  106  229 1    
   213  107  108 2    
   214  107  109 am   BACKBONE|DICT|INTERRES
   215  109  110 1    
   216  109  230 1    
   217  110  111 1    
   218  110  112 1    
   219  110  231 1    
   220  111  232 1    
   221  111  233 1    
   222  111  234 1    
   223  112  113 2    
   224  112  114 am   BACKBONE|DICT|INTERRES
   225  114  115 1    
   226  114  235 1    
   227  115  116 1    
   228  115  117 1    
   229  115  236 1    
   230  116  237 1    
   231  116  238 1    
   232  116  239 1    
   233  117  118 2    
   234  117  119 am   BACKBONE|DICT|INTERRES
   235  119  120 1    
   236  119  240 1    
   237  120  121 1    
   238  120  124 1    
   239  120  241 1    
   240  121  122 am   BACKBONE|DICT|INTERRES
   241  121  123 2    
   242  122  242 1    
   243  122  243 1    
   244  124  125 1    
   245  124  244 1    
   246  124  245 1    
   247  125  126 1    
   248  126  246 1    
   249  126  247 1    
@<TRIPOS>SUBSTRUCTURE
     1 UNK         1 GROUP             0       ****    0 ROOT    
