@<TRIPOS>MOLECULE
3R540
247   249    1
SMALL
USER_CHARGES


@<TRIPOS>ATOM
      1 CA         -3.7323  -13.2270  -50.9202 C.3       0 UNK        -0.1800 
      2 C          -4.4300  -14.2609  -50.0376 C.2       0 UNK         0.5000 
      3 O          -5.6099  -14.5303  -50.2461 O.2       0 UNK        -0.5000 
      4 N          -3.7641  -14.8606  -49.0397 N.am      1 UNK        -0.5000 
      5 CA         -2.3990  -14.5784  -48.5700 C.3       1 UNK         0.1400 
      6 C6         -1.9178  -15.6553  -47.5710 C.3       23 UNK        -0.0398 
      7 S7         -1.6755  -17.2711  -48.3806 S.3       23 UNK        -0.2404 
      8 C8          0.1393  -17.3737  -48.3968 C.3       23 UNK        -0.0205 
      9 C9          0.6480  -18.4219  -49.3756 C.ar      23 UNK        -0.0193 
     10 C10         0.8927  -18.0657  -50.7049 C.ar      23 UNK        -0.1150 
     11 C11         1.4038  -18.9986  -51.6102 C.ar      23 UNK        -0.0193 
     12 C12         1.6767  -20.2959  -51.1684 C.ar      23 UNK        -0.1150 
     13 C13         1.4331  -20.6779  -49.8453 C.ar      23 UNK        -0.0193 
     14 C14         0.9115  -19.7298  -48.9525 C.ar      23 UNK        -0.1150 
     15 C15         1.7357  -22.1255  -49.4500 C.3       23 UNK        -0.0205 
     16 S16         2.1811  -22.3948  -47.6992 S.3       23 UNK        -0.2404 
     17 C17         0.5496  -22.7522  -46.9646 C.3       23 UNK        -0.0398 
     18 CA          0.6276  -23.6244  -45.6869 C.3       11 UNK         0.1400 
     19 N           1.3949  -22.9711  -44.6261 N.am      11 UNK        -0.5000 
     20 C           2.0337  -23.5818  -43.6221 C.2       10 UNK         0.5000 
     21 O           2.0637  -24.8052  -43.4778 O.2       10 UNK        -0.5000 
     22 CA          2.7111  -22.6698  -42.5834 C.3       10 UNK         0.1400 
     23 CB          4.0214  -22.0859  -43.1336 C.3       10 UNK        -0.1800 
     24 N           1.8317  -21.5838  -42.1474 N.am      10 UNK        -0.5000 
     25 C           0.7222  -21.7565  -41.4136 C.2       9 UNK         0.5000 
     26 O           0.3565  -22.8462  -40.9714 O.2       9 UNK        -0.5000 
     27 CA         -0.1290  -20.5051  -41.1307 C.3       9 UNK         0.1400 
     28 CB          0.4300  -19.7262  -39.9303 C.3       9 UNK        -0.1800 
     29 N          -0.2248  -19.6152  -42.2867 N.am      9 UNK        -0.5000 
     30 C          -0.8802  -19.9045  -43.4199 C.2       8 UNK         0.5000 
     31 O          -1.5374  -20.9305  -43.5878 O.2       8 UNK        -0.5000 
     32 CA         -0.7605  -18.8826  -44.5670 C.3       8 UNK         0.1400 
     33 CB         -1.7809  -17.7511  -44.3840 C.3       8 UNK        -0.1800 
     34 N           0.5847  -18.3139  -44.6858 N.am      8 UNK        -0.5000 
     35 C           1.6841  -19.0300  -44.9607 C.2       7 UNK         0.5000 
     36 O           1.6715  -20.2399  -45.1647 O.2       7 UNK        -0.5000 
     37 CA          3.0293  -18.2885  -44.9476 C.3       7 UNK         0.1400 
     38 CB          3.2869  -17.5785  -46.2843 C.3       7 UNK        -0.1800 
     39 N           3.1031  -17.3320  -43.8451 N.am      7 UNK        -0.5000 
     40 C           3.1915  -17.6842  -42.5542 C.2       6 UNK         0.5000 
     41 O           3.2808  -18.8496  -42.1670 O.2       6 UNK        -0.5000 
     42 CA          3.1144  -16.5424  -41.5244 C.3       6 UNK         0.1400 
     43 CB          4.4854  -15.8729  -41.3491 C.3       6 UNK        -0.1800 
     44 N           2.1206  -15.5311  -41.8903 N.am      6 UNK        -0.5000 
     45 C           0.7994  -15.7543  -41.9357 C.2       5 UNK         0.5000 
     46 O           0.2793  -16.8244  -41.6240 O.2       5 UNK        -0.5000 
     47 CA         -0.0850  -14.6077  -42.4567 C.3       5 UNK         0.1400 
     48 CB         -0.5340  -13.7006  -41.3023 C.3       5 UNK        -0.1800 
     49 N           0.5645  -13.7923  -43.4834 N.am      5 UNK        -0.5000 
     50 C           0.9415  -14.2189  -44.6950 C.2       4 UNK         0.5000 
     51 O           0.8193  -15.3879  -45.0660 O.2       4 UNK        -0.5000 
     52 CA          1.5515  -13.1548  -45.6336 C.3       4 UNK         0.1400 
     53 CB          1.8607  -13.7004  -47.0391 C.3       4 UNK        -0.1800 
     54 N           0.6910  -11.9738  -45.7539 N.am      4 UNK        -0.5000 
     55 C           0.6199  -10.9773  -44.8583 C.2       3 UNK         0.5000 
     56 O           1.2872  -10.9566  -43.8228 O.2       3 UNK        -0.5000 
     57 CA         -0.3676   -9.8263  -45.1331 C.3       3 UNK         0.1400 
     58 CB          0.3684   -8.6242  -45.7440 C.3       3 UNK        -0.1800 
     59 N          -1.4796  -10.1948  -46.0088 N.am      3 UNK        -0.5000 
     60 C          -2.4675  -11.0430  -45.6934 C.2       2 UNK         0.5000 
     61 O          -2.5622  -11.6097  -44.6039 O.2       2 UNK        -0.5000 
     62 CA         -3.5234  -11.3239  -46.7835 C.3       2 UNK         0.1400 
     63 CB         -3.5721  -10.2563  -47.9001 C.3       2 UNK        -0.1800 
     64 N          -3.3702  -12.6577  -47.3723 N.am      2 UNK        -0.5000 
     65 C          -2.2693  -13.1738  -47.9422 C.2       1 UNK         0.5000 
     66 O          -1.1910  -12.5837  -48.0144 O.2       1 UNK        -0.5000 
     67 C          -0.7765  -24.0189  -45.1766 C.2       11 UNK         0.5000 
     68 O          -1.7855  -23.5588  -45.7117 O.2       11 UNK        -0.5000 
     69 N          -0.8237  -24.8723  -44.1453 N.am      12 UNK        -0.5000 
     70 CA         -2.0608  -25.4171  -43.5813 C.3       12 UNK         0.1400 
     71 CB         -1.7388  -26.1333  -42.2614 C.3       12 UNK        -0.1800 
     72 C          -2.7888  -26.3646  -44.5565 C.2       12 UNK         0.5000 
     73 O          -4.0186  -26.4345  -44.5406 O.2       12 UNK        -0.5000 
     74 N          -2.0135  -27.0605  -45.3982 N.am      13 UNK        -0.5000 
     75 CA         -2.5021  -27.8909  -46.4941 C.3       13 UNK         0.1400 
     76 CB         -1.3939  -28.8761  -46.8969 C.3       13 UNK        -0.1800 
     77 C          -2.9195  -27.0335  -47.7030 C.2       13 UNK         0.5000 
     78 O          -2.3594  -25.9561  -47.9232 O.2       13 UNK        -0.5000 
     79 N          -3.8772  -27.5557  -48.4816 N.am      14 UNK        -0.5000 
     80 CA         -4.3812  -27.0132  -49.7509 C.3       14 UNK         0.1400 
     81 CB         -3.2823  -27.0693  -50.8342 C.3       14 UNK        -0.1800 
     82 C          -5.0221  -25.6125  -49.6417 C.2       14 UNK         0.5000 
     83 O          -5.0426  -24.8800  -50.6310 O.2       14 UNK        -0.5000 
     84 N          -5.5300  -25.2611  -48.4496 N.am      15 UNK        -0.5000 
     85 CA         -6.1879  -23.9915  -48.1114 C.3       15 UNK         0.1400 
     86 CB         -7.5797  -23.9205  -48.7741 C.3       15 UNK        -0.1800 
     87 C          -5.3130  -22.7581  -48.4258 C.2       15 UNK         0.5000 
     88 O          -5.7859  -21.8042  -49.0475 O.2       15 UNK        -0.5000 
     89 N          -4.0346  -22.8291  -48.0256 N.am      16 UNK        -0.5000 
     90 CA         -2.9855  -21.8364  -48.2765 C.3       16 UNK         0.1400 
     91 CB         -3.2465  -20.5455  -47.4778 C.3       16 UNK        -0.1800 
     92 C          -2.7555  -21.6024  -49.7817 C.2       16 UNK         0.5000 
     93 O          -2.7791  -20.4628  -50.2483 O.2       16 UNK        -0.5000 
     94 N          -2.5919  -22.7170  -50.5122 N.am      17 UNK        -0.5000 
     95 CA         -2.4677  -22.8060  -51.9711 C.3       17 UNK         0.1400 
     96 CB         -1.1245  -22.2092  -52.4380 C.3       17 UNK        -0.1800 
     97 C          -3.6849  -22.1914  -52.6922 C.2       17 UNK         0.5000 
     98 O          -3.5206  -21.3684  -53.5927 O.2       17 UNK        -0.5000 
     99 N          -4.8860  -22.5810  -52.2396 N.am      18 UNK        -0.5000 
    100 CA        -6.2021  -22.0840  -52.6512 C.3       18 UNK         0.1400 
    101 CB        -6.5613  -22.6183  -54.0521 C.3       18 UNK        -0.1800 
    102 C         -6.3180  -20.5491  -52.5321 C.2       18 UNK         0.5000 
    103 O         -6.7521  -19.8853  -53.4751 O.2       18 UNK        -0.5000 
    104 N         -5.8988  -20.0262  -51.3702 N.am      19 UNK        -0.5000 
    105 CA        -5.7659  -18.6077  -51.0294 C.3       19 UNK         0.1400 
    106 CB        -7.1516  -17.9368  -50.9303 C.3       19 UNK        -0.1800 
    107 C         -4.7921  -17.8718  -51.9748 C.2       19 UNK         0.5000 
    108 O         -5.1769  -16.9120  -52.6457 O.2       19 UNK        -0.5000 
    109 N         -3.5432  -18.3571  -52.0039 N.am      20 UNK        -0.5000 
    110 CA        -2.4007  -17.8290  -52.7534 C.3       20 UNK         0.1400 
    111 CB        -1.9755  -16.4556  -52.1934 C.3       20 UNK        -0.1800 
    112 C         -2.6113  -17.7919  -54.2816 C.2       20 UNK         0.5000 
    113 O         -2.1912  -16.8354  -54.9377 O.2       20 UNK        -0.5000 
    114 N         -3.2117  -18.8460  -54.8496 N.am      21 UNK        -0.5000 
    115 CA        -3.3891  -19.0377  -56.2931 C.3       21 UNK         0.1400 
    116 CB        -4.5978  -19.9590  -56.5311 C.3       21 UNK        -0.1800 
    117 C         -2.0935  -19.5722  -56.9444 C.2       21 UNK         0.5000 
    118 O         -2.1077  -20.6008  -57.6236 O.2       21 UNK        -0.5000 
    119 N         -0.9852  -18.8728  -56.6851 N.am      22 UNK        -0.5000 
    120 CA         0.3911  -19.2842  -56.9992 C.3       22 UNK         0.1400 
    121 C          0.9200  -18.7472  -58.3606 C.2       22 UNK         0.5000 
    122 N          0.1529  -17.9692  -59.1147 N.am      22 UNK        -0.7600 
    123 O          2.0444  -19.0523  -58.7491 O.2       22 UNK        -0.5000 
    124 C124        1.3539  -18.9274  -55.8351 C.3       23 UNK        -0.0398 
    125 S125        0.8217  -19.6592  -54.2480 S.3       23 UNK        -0.2404 
    126 C126        1.6932  -18.5983  -53.0526 C.3       23 UNK        -0.0205 
    127 H127       -4.2523  -13.1366  -51.8740 H         1 UNK         0.0600 
    128 H128       -2.7015  -13.5012  -51.1396 H         1 UNK         0.0600 
    129 H129       -3.7406  -12.2487  -50.4402 H         1 UNK         0.0600 
    130 H130       -4.2509  -15.5693  -48.5107 H         1 UNK         0.3000 
    131 H131       -1.7264  -14.6024  -49.4289 H         1 UNK         0.0600 
    132 H132       -2.6481  -15.7750  -46.7697 H         1 UNK         0.0800 
    133 H133       -0.9863  -15.3616  -47.0855 H         1 UNK         0.0800 
    134 H134        0.5602  -16.4015  -48.6578 H         1 UNK         0.0800 
    135 H135        0.4853  -17.5970  -47.3888 H         1 UNK         0.0800 
    136 H136        0.6950  -17.0542  -51.0292 H         1 UNK         0.1150 
    137 H137        2.0757  -21.0168  -51.8684 H         1 UNK         0.1150 
    138 H138        0.7201  -19.9936  -47.9239 H         1 UNK         0.1150 
    139 H139        0.8878  -22.7523  -49.7269 H         1 UNK         0.0800 
    140 H140        2.5770  -22.4848  -50.0446 H         1 UNK         0.0800 
    141 H141       -0.0451  -23.2730  -47.7158 H         1 UNK         0.0800 
    142 H142        0.0415  -21.8106  -46.7525 H         1 UNK         0.0800 
    143 H143        1.1346  -24.5528  -45.9581 H         1 UNK         0.0600 
    144 H144        1.4429  -21.9552  -44.6895 H         1 UNK         0.3000 
    145 H145        2.9541  -23.2796  -41.7108 H         1 UNK         0.0600 
    146 H146        4.7052  -22.8799  -43.4359 H         1 UNK         0.0600 
    147 H147        3.8490  -21.4529  -44.0042 H         1 UNK         0.0600 
    148 H148        4.5317  -21.4852  -42.3804 H         1 UNK         0.0600 
    149 H149        2.0862  -20.6466  -42.4361 H         1 UNK         0.3000 
    150 H150       -1.1374  -20.8391  -40.8777 H         1 UNK         0.0600 
    151 H151        0.4994  -20.3638  -39.0482 H         1 UNK         0.0600 
    152 H152       -0.2132  -18.8842  -39.6737 H         1 UNK         0.0600 
    153 H153        1.4272  -19.3343  -40.1329 H         1 UNK         0.0600 
    154 H154        0.2210  -18.7070  -42.2008 H         1 UNK         0.3000 
    155 H155       -0.9804  -19.3960  -45.5052 H         1 UNK         0.0600 
    156 H156       -1.6150  -16.9521  -45.1024 H         1 UNK         0.0600 
    157 H157       -1.7279  -17.3142  -43.3871 H         1 UNK         0.0600 
    158 H158       -2.7972  -18.1198  -44.5264 H         1 UNK         0.0600 
    159 H159        0.6724  -17.3085  -44.5763 H         1 UNK         0.3000 
    160 H160        3.8171  -19.0319  -44.8080 H         1 UNK         0.0600 
    161 H161        2.5476  -16.8040  -46.4804 H         1 UNK         0.0600 
    162 H162        3.2466  -18.2858  -47.1141 H         1 UNK         0.0600 
    163 H163        4.2723  -17.1130  -46.3004 H         1 UNK         0.0600 
    164 H164        2.9771  -16.3584  -44.0778 H         1 UNK         0.3000 
    165 H165        2.8208  -16.9771  -40.5665 H         1 UNK         0.0600 
    166 H166        4.4558  -15.1132  -40.5678 H         1 UNK         0.0600 
    167 H167        5.2419  -16.6043  -41.0612 H         1 UNK         0.0600 
    168 H168        4.8237  -15.3955  -42.2696 H         1 UNK         0.0600 
    169 H169        2.4653  -14.6211  -42.1579 H         1 UNK         0.3000 
    170 H170       -0.9749  -15.0538  -42.9042 H         1 UNK         0.0600 
    171 H171       -1.0450  -14.2759  -40.5291 H         1 UNK         0.0600 
    172 H172        0.3120  -13.1965  -40.8334 H         1 UNK         0.0600 
    173 H173       -1.2291  -12.9362  -41.6510 H         1 UNK         0.0600 
    174 H174        0.7110  -12.8118  -43.2683 H         1 UNK         0.3000 
    175 H175        2.5020  -12.8506  -45.1908 H         1 UNK         0.0600 
    176 H176        2.2796  -12.9239  -47.6792 H         1 UNK         0.0600 
    177 H177        2.5926  -14.5065  -46.9927 H         1 UNK         0.0600 
    178 H178        0.9709  -14.0916  -47.5302 H         1 UNK         0.0600 
    179 H179        0.0665  -11.9569  -46.5545 H         1 UNK         0.3000 
    180 H180       -0.7844   -9.5185  -44.1718 H         1 UNK         0.0600 
    181 H181        0.7911   -8.8653  -46.7202 H         1 UNK         0.0600 
    182 H182        1.1887   -8.3002  -45.1020 H         1 UNK         0.0600 
    183 H183       -0.3007   -7.7724  -45.8678 H         1 UNK         0.0600 
    184 H184       -1.4674   -9.8046  -46.9399 H         1 UNK         0.3000 
    185 H185       -4.4907  -11.3140  -46.2789 H         1 UNK         0.0600 
    186 H186       -3.7031   -9.2564  -47.4842 H         1 UNK         0.0600 
    187 H187       -2.6679  -10.2497  -48.5098 H         1 UNK         0.0600 
    188 H188       -4.4142  -10.4356  -48.5687 H         1 UNK         0.0600 
    189 H189       -4.1976  -13.2371  -47.3490 H         1 UNK         0.3000 
    190 H190        0.0524  -25.1687  -43.7288 H         1 UNK         0.3000 
    191 H191       -2.7313  -24.5828  -43.3642 H         1 UNK         0.0600 
    192 H192       -1.0538  -26.9685  -42.4127 H         1 UNK         0.0600 
    193 H193       -1.2818  -25.4498  -41.5451 H         1 UNK         0.0600 
    194 H194       -2.6448  -26.5292  -41.8009 H         1 UNK         0.0600 
    195 H195       -1.0179  -26.9025  -45.3641 H         1 UNK         0.3000 
    196 H196       -3.3665  -28.4608  -46.1465 H         1 UNK         0.0600 
    197 H197       -1.7290  -29.5377  -47.6968 H         1 UNK         0.0600 
    198 H198       -1.1018  -29.5064  -46.0567 H         1 UNK         0.0600 
    199 H199       -0.5031  -28.3568  -47.2530 H         1 UNK         0.0600 
    200 H200       -4.2808  -28.4410  -48.2071 H         1 UNK         0.3000 
    201 H201       -5.1846  -27.6802  -50.0666 H         1 UNK         0.0600 
    202 H202       -2.8534  -28.0685  -50.9094 H         1 UNK         0.0600 
    203 H203       -2.4711  -26.3713  -50.6253 H         1 UNK         0.0600 
    204 H204       -3.6841  -26.8177  -51.8165 H         1 UNK         0.0600 
    205 H205       -5.4437  -25.9253  -47.6934 H         1 UNK         0.3000 
    206 H206       -6.3352  -23.9938  -47.0305 H         1 UNK         0.0600 
    207 H207       -8.1897  -24.7817  -48.5020 H         1 UNK         0.0600 
    208 H208       -8.1199  -23.0280  -48.4561 H         1 UNK         0.0600 
    209 H209       -7.5099  -23.8905  -49.8618 H         1 UNK         0.0600 
    210 H210       -3.7270  -23.6639  -47.5425 H         1 UNK         0.3000 
    211 H211       -2.0618  -22.2660  -47.9019 H         1 UNK         0.0600 
    212 H212       -4.1086  -19.9949  -47.8554 H         1 UNK         0.0600 
    213 H213       -2.3812  -19.8878  -47.5350 H         1 UNK         0.0600 
    214 H214       -3.4152  -20.7615  -46.4227 H         1 UNK         0.0600 
    215 H215       -2.6500  -23.6025  -50.0292 H         1 UNK         0.3000 
    216 H216       -2.4655  -23.8679  -52.2211 H         1 UNK         0.0600 
    217 H217       -0.9916  -22.3346  -53.5131 H         1 UNK         0.0600 
    218 H218       -0.2830  -22.6986  -51.9490 H         1 UNK         0.0600 
    219 H219       -1.0601  -21.1416  -52.2253 H         1 UNK         0.0600 
    220 H220       -4.9064  -23.2972  -51.5153 H         1 UNK         0.3000 
    221 H221       -6.9211  -22.5004  -51.9446 H         1 UNK         0.0600 
    222 H222       -5.8848  -22.2367  -54.8159 H         1 UNK         0.0600 
    223 H223       -6.5170  -23.7070  -54.0799 H         1 UNK         0.0600 
    224 H224       -7.5736  -22.3273  -54.3347 H         1 UNK         0.0600 
    225 H225       -5.5963  -20.6728  -50.6461 H         1 UNK         0.3000 
    226 H226       -5.3151  -18.5747  -50.0361 H         1 UNK         0.0600 
    227 H227       -7.7939  -18.4630  -50.2243 H         1 UNK         0.0600 
    228 H228       -7.0591  -16.9080  -50.5811 H         1 UNK         0.0600 
    229 H229       -7.6624  -17.9086  -51.8931 H         1 UNK         0.0600 
    230 H230       -3.3303  -19.1628  -51.4158 H         1 UNK         0.3000 
    231 H231       -1.5819  -18.5269  -52.5742 H         1 UNK         0.0600 
    232 H232       -2.7228  -15.6894  -52.3989 H         1 UNK         0.0600 
    233 H233       -1.0361  -16.1247  -52.6372 H         1 UNK         0.0600 
    234 H234       -1.8264  -16.4966  -51.1172 H         1 UNK         0.0600 
    235 H235       -3.4537  -19.6457  -54.2666 H         1 UNK         0.3000 
    236 H236       -3.6140  -18.0744  -56.7550 H         1 UNK         0.0600 
    237 H237       -5.4924  -19.5733  -56.0417 H         1 UNK         0.0600 
    238 H238       -4.8196  -20.0465  -57.5952 H         1 UNK         0.0600 
    239 H239       -4.4142  -20.9636  -56.1502 H         1 UNK         0.0600 
    240 H240       -1.0847  -18.0323  -56.1266 H         1 UNK         0.3000 
    241 H241        0.4059  -20.3712  -57.0985 H         1 UNK         0.0600 
    242 H242        0.5009  -17.6307  -59.9983 H         1 UNK         0.3800 
    243 H243       -0.7748  -17.7197  -58.8104 H         1 UNK         0.3800 
    244 H244        2.3637  -19.2838  -56.0453 H         1 UNK         0.0800 
    245 H245        1.4241  -17.8441  -55.7239 H         1 UNK         0.0800 
    246 H246        1.4066  -17.5601  -53.2269 H         1 UNK         0.0800 
    247 H247        2.7677  -18.6621  -53.2296 H         1 UNK         0.0800 
@<TRIPOS>BOND
     1    1    2 1    
     2    1  127 1    
     3    1  128 1    
     4    1  129 1    
     5    2    3 2    
     6    2    4 am   BACKBONE|DICT|INTERRES
     7    4    5 1    
     8    4  130 1    
     9    5    6 1    
    10    5   65 1    
    11    5  131 1    
    12    6    7 1    
    13    6  132 1    
    14    6  133 1    
    15    7    8 1    
    16    8    9 1    
    17    8  134 1    
    18    8  135 1    
    19    9   10 ar   
    20    9   14 ar   
    21   10   11 ar   
    22   10  136 1    
    23   11   12 ar   
    24   11  126 1    
    25   12   13 ar   
    26   12  137 1    
    27   13   14 ar   
    28   13   15 1    
    29   14  138 1    
    30   15   16 1    
    31   15  139 1    
    32   15  140 1    
    33   16   17 1    
    34   17   18 1    
    35   17  141 1    
    36   17  142 1    
    37   18   19 1    
    38   18   67 1    
    39   18  143 1    
    40   19   20 am   BACKBONE|DICT|INTERRES
    41   19  144 1    
    42   20   21 2    
    43   20   22 1    
    44   22   23 1    
    45   22   24 1    
    46   22  145 1    
    47   23  146 1    
    48   23  147 1    
    49   23  148 1    
    50   24   25 am   BACKBONE|DICT|INTERRES
    51   24  149 1    
    52   25   26 2    
    53   25   27 1    
    54   27   28 1    
    55   27   29 1    
    56   27  150 1    
    57   28  151 1    
    58   28  152 1    
    59   28  153 1    
    60   29   30 am   BACKBONE|DICT|INTERRES
    61   29  154 1    
    62   30   31 2    
    63   30   32 1    
    64   32   33 1    
    65   32   34 1    
    66   32  155 1    
    67   33  156 1    
    68   33  157 1    
    69   33  158 1    
    70   34   35 am   BACKBONE|DICT|INTERRES
    71   34  159 1    
    72   35   36 2    
    73   35   37 1    
    74   37   38 1    
    75   37   39 1    
    76   37  160 1    
    77   38  161 1    
    78   38  162 1    
    79   38  163 1    
    80   39   40 am   BACKBONE|DICT|INTERRES
    81   39  164 1    
    82   40   41 2    
    83   40   42 1    
    84   42   43 1    
    85   42   44 1    
    86   42  165 1    
    87   43  166 1    
    88   43  167 1    
    89   43  168 1    
    90   44   45 am   BACKBONE|DICT|INTERRES
    91   44  169 1    
    92   45   46 2    
    93   45   47 1    
    94   47   48 1    
    95   47   49 1    
    96   47  170 1    
    97   48  171 1    
    98   48  172 1    
    99   48  173 1    
   100   49   50 am   BACKBONE|DICT|INTERRES
   101   49  174 1    
   102   50   51 2    
   103   50   52 1    
   104   52   53 1    
   105   52   54 1    
   106   52  175 1    
   107   53  176 1    
   108   53  177 1    
   109   53  178 1    
   110   54   55 am   BACKBONE|DICT|INTERRES
   111   54  179 1    
   112   55   56 2    
   113   55   57 1    
   114   57   58 1    
   115   57   59 1    
   116   57  180 1    
   117   58  181 1    
   118   58  182 1    
   119   58  183 1    
   120   59   60 am   BACKBONE|DICT|INTERRES
   121   59  184 1    
   122   60   61 2    
   123   60   62 1    
   124   62   63 1    
   125   62   64 1    
   126   62  185 1    
   127   63  186 1    
   128   63  187 1    
   129   63  188 1    
   130   64   65 am   BACKBONE|DICT|INTERRES
   131   64  189 1    
   132   65   66 2    
   133   67   68 2    
   134   67   69 am   BACKBONE|DICT|INTERRES
   135   69   70 1    
   136   69  190 1    
   137   70   71 1    
   138   70   72 1    
   139   70  191 1    
   140   71  192 1    
   141   71  193 1    
   142   71  194 1    
   143   72   73 2    
   144   72   74 am   BACKBONE|DICT|INTERRES
   145   74   75 1    
   146   74  195 1    
   147   75   76 1    
   148   75   77 1    
   149   75  196 1    
   150   76  197 1    
   151   76  198 1    
   152   76  199 1    
   153   77   78 2    
   154   77   79 am   BACKBONE|DICT|INTERRES
   155   79   80 1    
   156   79  200 1    
   157   80   81 1    
   158   80   82 1    
   159   80  201 1    
   160   81  202 1    
   161   81  203 1    
   162   81  204 1    
   163   82   83 2    
   164   82   84 am   BACKBONE|DICT|INTERRES
   165   84   85 1    
   166   84  205 1    
   167   85   86 1    
   168   85   87 1    
   169   85  206 1    
   170   86  207 1    
   171   86  208 1    
   172   86  209 1    
   173   87   88 2    
   174   87   89 am   BACKBONE|DICT|INTERRES
   175   89   90 1    
   176   89  210 1    
   177   90   91 1    
   178   90   92 1    
   179   90  211 1    
   180   91  212 1    
   181   91  213 1    
   182   91  214 1    
   183   92   93 2    
   184   92   94 am   BACKBONE|DICT|INTERRES
   185   94   95 1    
   186   94  215 1    
   187   95   96 1    
   188   95   97 1    
   189   95  216 1    
   190   96  217 1    
   191   96  218 1    
   192   96  219 1    
   193   97   98 2    
   194   97   99 am   BACKBONE|DICT|INTERRES
   195   99  100 1    
   196   99  220 1    
   197  100  101 1    
   198  100  102 1    
   199  100  221 1    
   200  101  222 1    
   201  101  223 1    
   202  101  224 1    
   203  102  103 2    
   204  102  104 am   BACKBONE|DICT|INTERRES
   205  104  105 1    
   206  104  225 1    
   207  105  106 1    
   208  105  107 1    
   209  105  226 1    
   210  106  227 1    
   211  106  228 1    
   212  106  229 1    
   213  107  108 2    
   214  107  109 am   BACKBONE|DICT|INTERRES
   215  109  110 1    
   216  109  230 1    
   217  110  111 1    
   218  110  112 1    
   219  110  231 1    
   220  111  232 1    
   221  111  233 1    
   222  111  234 1    
   223  112  113 2    
   224  112  114 am   BACKBONE|DICT|INTERRES
   225  114  115 1    
   226  114  235 1    
   227  115  116 1    
   228  115  117 1    
   229  115  236 1    
   230  116  237 1    
   231  116  238 1    
   232  116  239 1    
   233  117  118 2    
   234  117  119 am   BACKBONE|DICT|INTERRES
   235  119  120 1    
   236  119  240 1    
   237  120  121 1    
   238  120  124 1    
   239  120  241 1    
   240  121  122 am   BACKBONE|DICT|INTERRES
   241  121  123 2    
   242  122  242 1    
   243  122  243 1    
   244  124  125 1    
   245  124  244 1    
   246  124  245 1    
   247  125  126 1    
   248  126  246 1    
   249  126  247 1    
@<TRIPOS>SUBSTRUCTURE
     1 UNK         1 GROUP             0       ****    0 ROOT    
