@<TRIPOS>MOLECULE
3R540
247   249    1
SMALL
USER_CHARGES


@<TRIPOS>ATOM
      1 CA         -3.5411  -17.3566  -44.4416 C.3       0 UNK        -0.1800 
      2 C          -3.7577  -16.1205  -45.3012 C.2       0 UNK         0.5000 
      3 O          -4.8314  -15.5195  -45.2538 O.2       0 UNK        -0.5000 
      4 N          -2.7386  -15.7389  -46.0808 N.am      1 UNK        -0.5000 
      5 CA         -2.6984  -14.4980  -46.8630 C.3       1 UNK         0.1400 
      6 C6         -1.5401  -14.4998  -47.8912 C.3       23 UNK        -0.0398 
      7 S7         -1.6783  -15.8316  -49.1334 S.3       23 UNK        -0.2404 
      8 C8         -0.3239  -16.9283  -48.6134 C.3       23 UNK        -0.0205 
      9 C9          0.0863  -17.9032  -49.7037 C.ar      23 UNK        -0.0193 
     10 C10         0.7545  -17.4382  -50.8395 C.ar      23 UNK        -0.1150 
     11 C11         1.2080  -18.3308  -51.8144 C.ar      23 UNK        -0.0193 
     12 C12         1.0001  -19.7013  -51.6365 C.ar      23 UNK        -0.1150 
     13 C13         0.3101  -20.1767  -50.5188 C.ar      23 UNK        -0.0193 
     14 C14        -0.1512  -19.2721  -49.5575 C.ar      23 UNK        -0.1150 
     15 C15         0.0509  -21.6667  -50.3651 C.3       23 UNK        -0.0205 
     16 S16         1.4645  -22.5397  -49.6192 S.3       23 UNK        -0.2404 
     17 C17         1.4160  -21.9664  -47.8855 C.3       23 UNK        -0.0398 
     18 CA          0.6729  -22.9416  -46.9443 C.3       11 UNK         0.1400 
     19 N           1.0235  -22.7181  -45.5405 N.am      11 UNK        -0.5000 
     20 C           0.6972  -23.5493  -44.5412 C.2       10 UNK         0.5000 
     21 O           0.1019  -24.6134  -44.7090 O.2       10 UNK        -0.5000 
     22 CA          1.0529  -23.0964  -43.1148 C.3       10 UNK         0.1400 
     23 CB          2.5377  -23.3516  -42.8167 C.3       10 UNK        -0.1800 
     24 N           0.7327  -21.6877  -42.8777 N.am      10 UNK        -0.5000 
     25 C          -0.5092  -21.1812  -42.8834 C.2       9 UNK         0.5000 
     26 O          -1.5225  -21.8600  -43.0471 O.2       9 UNK        -0.5000 
     27 CA         -0.6438  -19.6568  -42.7122 C.3       9 UNK         0.1400 
     28 CB         -0.5448  -19.2581  -41.2325 C.3       9 UNK        -0.1800 
     29 N           0.3443  -18.9046  -43.4850 N.am      9 UNK        -0.5000 
     30 C           0.4402  -18.9091  -44.8217 C.2       8 UNK         0.5000 
     31 O          -0.3192  -19.5252  -45.5679 O.2       8 UNK        -0.5000 
     32 CA          1.6204  -18.1315  -45.4246 C.3       8 UNK         0.1400 
     33 CB          1.3507  -16.6168  -45.4146 C.3       8 UNK        -0.1800 
     34 N           2.8729  -18.4208  -44.7263 N.am      8 UNK        -0.5000 
     35 C           3.4719  -19.6208  -44.7045 C.2       7 UNK         0.5000 
     36 O           3.0533  -20.6077  -45.3095 O.2       7 UNK        -0.5000 
     37 CA          4.7251  -19.7477  -43.8198 C.3       7 UNK         0.1400 
     38 CB          5.9691  -19.2447  -44.5669 C.3       7 UNK        -0.1800 
     39 N           4.5918  -19.0240  -42.5543 N.am      7 UNK        -0.5000 
     40 C           3.7314  -19.3536  -41.5799 C.2       6 UNK         0.5000 
     41 O           2.9807  -20.3266  -41.6304 O.2       6 UNK        -0.5000 
     42 CA          3.6597  -18.4002  -40.3727 C.3       6 UNK         0.1400 
     43 CB          4.7608  -18.7295  -39.3539 C.3       6 UNK        -0.1800 
     44 N           3.7529  -16.9884  -40.7571 N.am      6 UNK        -0.5000 
     45 C           2.8590  -16.3603  -41.5315 C.2       5 UNK         0.5000 
     46 O           1.8631  -16.9122  -42.0058 O.2       5 UNK        -0.5000 
     47 CA          3.1678  -14.8952  -41.8866 C.3       5 UNK         0.1400 
     48 CB          4.1108  -14.8257  -43.0986 C.3       5 UNK        -0.1800 
     49 N           1.9509  -14.1481  -42.1979 N.am      5 UNK        -0.5000 
     50 C           1.0487  -13.7449  -41.2941 C.2       4 UNK         0.5000 
     51 O           1.1799  -13.9234  -40.0813 O.2       4 UNK        -0.5000 
     52 CA         -0.2079  -13.0277  -41.8378 C.3       4 UNK         0.1400 
     53 CB         -0.8313  -12.0577  -40.8127 C.3       4 UNK        -0.1800 
     54 N          -0.0132  -12.3526  -43.1276 N.am      4 UNK        -0.5000 
     55 C           0.8360  -11.3496  -43.4097 C.2       3 UNK         0.5000 
     56 O           1.6376  -10.8780  -42.6026 O.2       3 UNK        -0.5000 
     57 CA          0.7858  -10.7706  -44.8404 C.3       3 UNK         0.1400 
     58 CB          1.8583  -11.4346  -45.7185 C.3       3 UNK        -0.1800 
     59 N          -0.5182  -10.9263  -45.4892 N.am      3 UNK        -0.5000 
     60 C          -1.6561  -10.3439  -45.0847 C.2       2 UNK         0.5000 
     61 O          -1.7058   -9.4989  -44.1901 O.2       2 UNK        -0.5000 
     62 CA         -2.9663  -10.7912  -45.7707 C.3       2 UNK         0.1400 
     63 CB         -3.4443   -9.7155  -46.7586 C.3       2 UNK        -0.1800 
     64 N          -2.9187  -12.0838  -46.4706 N.am      2 UNK        -0.5000 
     65 C          -2.5854  -13.2670  -45.9342 C.2       1 UNK         0.5000 
     66 O          -2.1607  -13.3971  -44.7824 O.2       1 UNK        -0.5000 
     67 C          -0.8555  -22.9097  -47.1570 C.2       11 UNK         0.5000 
     68 O          -1.3880  -23.7876  -47.8343 O.2       11 UNK        -0.5000 
     69 N          -1.5439  -21.9458  -46.5294 N.am      12 UNK        -0.5000 
     70 CA         -3.0022  -21.7977  -46.5676 C.3       12 UNK         0.1400 
     71 CB         -3.3837  -20.4376  -45.9704 C.3       12 UNK        -0.1800 
     72 C          -3.7851  -22.9370  -45.8774 C.2       12 UNK         0.5000 
     73 O          -4.9940  -23.0476  -46.0852 O.2       12 UNK        -0.5000 
     74 N          -3.1038  -23.7618  -45.0716 N.am      13 UNK        -0.5000 
     75 CA         -3.6538  -24.9898  -44.4998 C.3       13 UNK         0.1400 
     76 CB         -2.9828  -25.2570  -43.1435 C.3       13 UNK        -0.1800 
     77 C          -3.4781  -26.1983  -45.4419 C.2       13 UNK         0.5000 
     78 O          -4.2277  -27.1675  -45.3158 O.2       13 UNK        -0.5000 
     79 N          -2.4963  -26.1367  -46.3525 N.am      14 UNK        -0.5000 
     80 CA         -2.1537  -27.2082  -47.2882 C.3       14 UNK         0.1400 
     81 CB         -0.6285  -27.2332  -47.4787 C.3       14 UNK        -0.1800 
     82 C          -2.8612  -27.0469  -48.6452 C.2       14 UNK         0.5000 
     83 O          -3.2837  -28.0455  -49.2297 O.2       14 UNK        -0.5000 
     84 N          -2.9746  -25.8032  -49.1211 N.am      15 UNK        -0.5000 
     85 CA         -3.6082  -25.4147  -50.3786 C.3       15 UNK         0.1400 
     86 CB         -2.5072  -25.0861  -51.4025 C.3       15 UNK        -0.1800 
     87 C          -4.5066  -24.1932  -50.1375 C.2       15 UNK         0.5000 
     88 O          -4.4182  -23.5653  -49.0842 O.2       15 UNK        -0.5000 
     89 N          -5.3315  -23.8364  -51.1304 N.am      16 UNK        -0.5000 
     90 CA         -6.2634  -22.7005  -51.0679 C.3       16 UNK         0.1400 
     91 CB         -7.4144  -22.9314  -52.0625 C.3       16 UNK        -0.1800 
     92 C          -5.6009  -21.3145  -51.2610 C.2       16 UNK         0.5000 
     93 O          -6.3133  -20.3259  -51.4431 O.2       16 UNK        -0.5000 
     94 N          -4.2612  -21.2572  -51.2170 N.am      17 UNK        -0.5000 
     95 CA         -3.4164  -20.0621  -51.2661 C.3       17 UNK         0.1400 
     96 CB         -3.5758  -19.2455  -49.9643 C.3       17 UNK        -0.1800 
     97 C          -3.6421  -19.2514  -52.5552 C.2       17 UNK         0.5000 
     98 O          -3.3703  -19.7671  -53.6408 O.2       17 UNK        -0.5000 
     99 N          -4.1596  -18.0229  -52.4311 N.am      18 UNK        -0.5000 
    100 CA        -4.4839  -17.1330  -53.5459 C.3       18 UNK         0.1400 
    101 CB        -4.9231  -15.7703  -52.9907 C.3       18 UNK        -0.1800 
    102 C         -5.5540  -17.7042  -54.4967 C.2       18 UNK         0.5000 
    103 O         -5.4711  -17.4709  -55.7023 O.2       18 UNK        -0.5000 
    104 N         -6.5044  -18.4848  -53.9600 N.am      19 UNK        -0.5000 
    105 CA        -7.5420  -19.1653  -54.7412 C.3       19 UNK         0.1400 
    106 CB        -8.7121  -19.5441  -53.8222 C.3       19 UNK        -0.1800 
    107 C         -7.0104  -20.3969  -55.5023 C.2       19 UNK         0.5000 
    108 O         -7.6255  -20.8078  -56.4863 O.2       19 UNK        -0.5000 
    109 N         -5.8653  -20.9388  -55.0636 N.am      20 UNK        -0.5000 
    110 CA        -5.1078  -21.9793  -55.7627 C.3       20 UNK         0.1400 
    111 CB        -4.4471  -22.9046  -54.7234 C.3       20 UNK        -0.1800 
    112 C         -4.0417  -21.3841  -56.7051 C.2       20 UNK         0.5000 
    113 O         -3.2964  -22.1488  -57.3190 O.2       20 UNK        -0.5000 
    114 N         -3.9399  -20.0453  -56.7663 N.am      21 UNK        -0.5000 
    115 CA        -2.9116  -19.2637  -57.4642 C.3       21 UNK         0.1400 
    116 CB        -3.0996  -19.3638  -58.9920 C.3       21 UNK        -0.1800 
    117 C         -1.4829  -19.6274  -57.0018 C.2       21 UNK         0.5000 
    118 O         -0.5679  -19.7133  -57.8224 O.2       21 UNK        -0.5000 
    119 N         -1.3440  -19.8768  -55.6924 N.am      22 UNK        -0.5000 
    120 CA        -0.1526  -20.4054  -55.0092 C.3       22 UNK         0.1400 
    121 C          0.1576  -21.9064  -55.3013 C.2       22 UNK         0.5000 
    122 N         -0.6826  -22.6512  -56.0105 N.am      22 UNK        -0.7600 
    123 O          1.1709  -22.4249  -54.8411 O.2       22 UNK        -0.5000 
    124 C124        1.1108  -19.5083  -55.1566 C.3       23 UNK        -0.0398 
    125 S125        0.8762  -17.8098  -54.5241 S.3       23 UNK        -0.2404 
    126 C126        1.9397  -17.8100  -53.0429 C.3       23 UNK        -0.0205 
    127 H127       -2.6068  -17.8584  -44.6918 H         1 UNK         0.0600 
    128 H128       -4.3597  -18.0618  -44.5825 H         1 UNK         0.0600 
    129 H129       -3.5066  -17.0791  -43.3882 H         1 UNK         0.0600 
    130 H130       -1.8851  -16.2733  -46.0662 H         1 UNK         0.3000 
    131 H131       -3.6415  -14.4152  -47.4079 H         1 UNK         0.0600 
    132 H132       -0.5759  -14.5566  -47.3836 H         1 UNK         0.0800 
    133 H133       -1.5242  -13.5612  -48.4478 H         1 UNK         0.0800 
    134 H134        0.5516  -16.3357  -48.3452 H         1 UNK         0.0800 
    135 H135       -0.6312  -17.4675  -47.7166 H         1 UNK         0.0800 
    136 H136        0.9299  -16.3779  -50.9561 H         1 UNK         0.1150 
    137 H137        1.3693  -20.4027  -52.3705 H         1 UNK         0.1150 
    138 H138       -0.6805  -19.6336  -48.6867 H         1 UNK         0.1150 
    139 H139       -0.8532  -21.8390  -49.7814 H         1 UNK         0.0800 
    140 H140       -0.1431  -22.1021  -51.3467 H         1 UNK         0.0800 
    141 H141        1.0190  -20.9557  -47.8059 H         1 UNK         0.0800 
    142 H142        2.4575  -21.8895  -47.5715 H         1 UNK         0.0800 
    143 H143        1.0078  -23.9529  -47.1866 H         1 UNK         0.0600 
    144 H144        1.5515  -21.8757  -45.3309 H         1 UNK         0.3000 
    145 H145        0.4603  -23.6953  -42.4201 H         1 UNK         0.0600 
    146 H146        2.7759  -23.1197  -41.7786 H         1 UNK         0.0600 
    147 H147        2.7958  -24.3982  -42.9831 H         1 UNK         0.0600 
    148 H148        3.1863  -22.7476  -43.4516 H         1 UNK         0.0600 
    149 H149        1.5139  -21.0731  -42.6682 H         1 UNK         0.3000 
    150 H150       -1.6340  -19.3727  -43.0716 H         1 UNK         0.0600 
    151 H151       -1.2920  -19.7822  -40.6355 H         1 UNK         0.0600 
    152 H152       -0.7130  -18.1889  -41.1013 H         1 UNK         0.0600 
    153 H153        0.4348  -19.4946  -40.8164 H         1 UNK         0.0600 
    154 H154        0.9944  -18.3316  -42.9531 H         1 UNK         0.3000 
    155 H155        1.7293  -18.4508  -46.4635 H         1 UNK         0.0600 
    156 H156        1.3229  -16.2112  -44.4050 H         1 UNK         0.0600 
    157 H157        0.3901  -16.3824  -45.8700 H         1 UNK         0.0600 
    158 H158        2.1166  -16.0772  -45.9717 H         1 UNK         0.0600 
    159 H159        3.2594  -17.6814  -44.1609 H         1 UNK         0.3000 
    160 H160        4.8676  -20.8064  -43.5930 H         1 UNK         0.0600 
    161 H161        5.8995  -18.1813  -44.7994 H         1 UNK         0.0600 
    162 H162        6.1005  -19.7791  -45.5088 H         1 UNK         0.0600 
    163 H163        6.8727  -19.4012  -43.9774 H         1 UNK         0.0600 
    164 H164        5.1740  -18.2095  -42.4284 H         1 UNK         0.3000 
    165 H165        2.6922  -18.5523  -39.8896 H         1 UNK         0.0600 
    166 H166        4.6648  -18.1163  -38.4577 H         1 UNK         0.0600 
    167 H167        4.7019  -19.7726  -39.0400 H         1 UNK         0.0600 
    168 H168        5.7568  -18.5669  -39.7677 H         1 UNK         0.0600 
    169 H169        4.5510  -16.4767  -40.4089 H         1 UNK         0.3000 
    170 H170        3.6580  -14.4229  -41.0326 H         1 UNK         0.0600 
    171 H171        5.0484  -15.3460  -42.8988 H         1 UNK         0.0600 
    172 H172        3.6672  -15.2777  -43.9858 H         1 UNK         0.0600 
    173 H173        4.3617  -13.7928  -43.3414 H         1 UNK         0.0600 
    174 H174        1.7537  -13.9821  -43.1725 H         1 UNK         0.3000 
    175 H175       -0.9382  -13.8163  -42.0252 H         1 UNK         0.0600 
    176 H176       -0.1335  -11.2710  -40.5247 H         1 UNK         0.0600 
    177 H177       -1.7255  -11.5817  -41.2156 H         1 UNK         0.0600 
    178 H178       -1.1270  -12.5823  -39.9035 H         1 UNK         0.0600 
    179 H179       -0.6513  -12.6576  -43.8585 H         1 UNK         0.3000 
    180 H180        1.0058   -9.7031  -44.7734 H         1 UNK         0.0600 
    181 H181        1.6751  -12.5030  -45.8405 H         1 UNK         0.0600 
    182 H182        2.8499  -11.3202  -45.2781 H         1 UNK         0.0600 
    183 H183        1.8914  -10.9834  -46.7103 H         1 UNK         0.0600 
    184 H184       -0.5720  -11.5950  -46.2419 H         1 UNK         0.3000 
    185 H185       -3.7153  -10.8835  -44.9817 H         1 UNK         0.0600 
    186 H186       -3.5284   -8.7432  -46.2710 H         1 UNK         0.0600 
    187 H187       -2.7535   -9.6040  -47.5953 H         1 UNK         0.0600 
    188 H188       -4.4273   -9.9579  -47.1630 H         1 UNK         0.0600 
    189 H189       -3.2388  -12.0652  -47.4284 H         1 UNK         0.3000 
    190 H190       -1.0379  -21.2332  -46.0095 H         1 UNK         0.3000 
    191 H191       -3.3007  -21.7914  -47.6162 H         1 UNK         0.0600 
    192 H192       -2.9106  -19.6213  -46.5165 H         1 UNK         0.0600 
    193 H193       -4.4612  -20.2758  -46.0172 H         1 UNK         0.0600 
    194 H194       -3.0836  -20.3659  -44.9249 H         1 UNK         0.0600 
    195 H195       -2.1265  -23.5724  -44.8936 H         1 UNK         0.3000 
    196 H196       -4.7234  -24.8623  -44.3201 H         1 UNK         0.0600 
    197 H197       -3.4257  -26.1259  -42.6552 H         1 UNK         0.0600 
    198 H198       -3.1029  -24.4081  -42.4700 H         1 UNK         0.0600 
    199 H199       -1.9158  -25.4514  -43.2492 H         1 UNK         0.0600 
    200 H200       -1.9563  -25.2843  -46.4317 H         1 UNK         0.3000 
    201 H201       -2.4514  -28.1713  -46.8679 H         1 UNK         0.0600 
    202 H202       -0.1159  -27.3854  -46.5286 H         1 UNK         0.0600 
    203 H203       -0.2586  -26.3028  -47.9112 H         1 UNK         0.0600 
    204 H204       -0.3315  -28.0450  -48.1437 H         1 UNK         0.0600 
    205 H205       -2.6141  -25.0274  -48.5692 H         1 UNK         0.3000 
    206 H206       -4.2350  -26.2235  -50.7594 H         1 UNK         0.0600 
    207 H207       -1.8686  -25.9513  -51.5813 H         1 UNK         0.0600 
    208 H208       -2.9297  -24.7931  -52.3644 H         1 UNK         0.0600 
    209 H209       -1.8704  -24.2699  -51.0581 H         1 UNK         0.0600 
    210 H210       -5.3460  -24.3833  -51.9789 H         1 UNK         0.3000 
    211 H211       -6.7041  -22.6888  -50.0687 H         1 UNK         0.0600 
    212 H212       -7.1053  -22.7787  -53.0954 H         1 UNK         0.0600 
    213 H213       -8.2364  -22.2435  -51.8645 H         1 UNK         0.0600 
    214 H214       -7.8197  -23.9397  -51.9762 H         1 UNK         0.0600 
    215 H215       -3.7753  -22.1296  -51.0759 H         1 UNK         0.3000 
    216 H216       -2.3870  -20.4129  -51.3167 H         1 UNK         0.0600 
    217 H217       -2.9297  -18.3685  -49.9695 H         1 UNK         0.0600 
    218 H218       -3.2934  -19.8416  -49.0975 H         1 UNK         0.0600 
    219 H219       -4.5996  -18.9045  -49.8081 H         1 UNK         0.0600 
    220 H220       -4.3713  -17.6830  -51.5045 H         1 UNK         0.3000 
    221 H221       -3.5715  -16.9872  -54.1283 H         1 UNK         0.0600 
    222 H222       -5.8187  -15.8565  -52.3740 H         1 UNK         0.0600 
    223 H223       -4.1378  -15.3207  -52.3823 H         1 UNK         0.0600 
    224 H224       -5.1463  -15.0727  -53.7990 H         1 UNK         0.0600 
    225 H225       -6.4774  -18.6882  -52.9674 H         1 UNK         0.3000 
    226 H226       -7.9231  -18.4657  -55.4884 H         1 UNK         0.0600 
    227 H227       -9.1350  -18.6630  -53.3396 H         1 UNK         0.0600 
    228 H228       -9.5139  -20.0220  -54.3866 H         1 UNK         0.0600 
    229 H229       -8.4043  -20.2370  -53.0416 H         1 UNK         0.0600 
    230 H230       -5.4026  -20.5140  -54.2705 H         1 UNK         0.3000 
    231 H231       -5.7794  -22.5841  -56.3752 H         1 UNK         0.0600 
    232 H232       -5.1922  -23.4175  -54.1196 H         1 UNK         0.0600 
    233 H233       -3.7846  -22.3581  -54.0523 H         1 UNK         0.0600 
    234 H234       -3.8506  -23.6794  -55.2068 H         1 UNK         0.0600 
    235 H235       -4.5933  -19.4988  -56.2216 H         1 UNK         0.3000 
    236 H236       -3.0685  -18.2227  -57.1781 H         1 UNK         0.0600 
    237 H237       -2.4190  -18.6908  -59.5145 H         1 UNK         0.0600 
    238 H238       -2.9083  -20.3726  -59.3589 H         1 UNK         0.0600 
    239 H239       -4.1133  -19.0879  -59.2822 H         1 UNK         0.0600 
    240 H240       -2.1650  -19.7957  -55.0977 H         1 UNK         0.3000 
    241 H241       -0.4310  -20.3985  -53.9560 H         1 UNK         0.0600 
    242 H242       -0.4570  -23.6199  -56.1699 H         1 UNK         0.3800 
    243 H243       -1.5249  -22.2657  -56.4226 H         1 UNK         0.3800 
    244 H244        1.9609  -19.9573  -54.6423 H         1 UNK         0.0800 
    245 H245        1.4164  -19.4435  -56.2009 H         1 UNK         0.0800 
    246 H246        2.8450  -18.3928  -53.2170 H         1 UNK         0.0800 
    247 H247        2.2772  -16.7873  -52.8679 H         1 UNK         0.0800 
@<TRIPOS>BOND
     1    1    2 1    
     2    1  127 1    
     3    1  128 1    
     4    1  129 1    
     5    2    3 2    
     6    2    4 am   BACKBONE|DICT|INTERRES
     7    4    5 1    
     8    4  130 1    
     9    5    6 1    
    10    5   65 1    
    11    5  131 1    
    12    6    7 1    
    13    6  132 1    
    14    6  133 1    
    15    7    8 1    
    16    8    9 1    
    17    8  134 1    
    18    8  135 1    
    19    9   10 ar   
    20    9   14 ar   
    21   10   11 ar   
    22   10  136 1    
    23   11   12 ar   
    24   11  126 1    
    25   12   13 ar   
    26   12  137 1    
    27   13   14 ar   
    28   13   15 1    
    29   14  138 1    
    30   15   16 1    
    31   15  139 1    
    32   15  140 1    
    33   16   17 1    
    34   17   18 1    
    35   17  141 1    
    36   17  142 1    
    37   18   19 1    
    38   18   67 1    
    39   18  143 1    
    40   19   20 am   BACKBONE|DICT|INTERRES
    41   19  144 1    
    42   20   21 2    
    43   20   22 1    
    44   22   23 1    
    45   22   24 1    
    46   22  145 1    
    47   23  146 1    
    48   23  147 1    
    49   23  148 1    
    50   24   25 am   BACKBONE|DICT|INTERRES
    51   24  149 1    
    52   25   26 2    
    53   25   27 1    
    54   27   28 1    
    55   27   29 1    
    56   27  150 1    
    57   28  151 1    
    58   28  152 1    
    59   28  153 1    
    60   29   30 am   BACKBONE|DICT|INTERRES
    61   29  154 1    
    62   30   31 2    
    63   30   32 1    
    64   32   33 1    
    65   32   34 1    
    66   32  155 1    
    67   33  156 1    
    68   33  157 1    
    69   33  158 1    
    70   34   35 am   BACKBONE|DICT|INTERRES
    71   34  159 1    
    72   35   36 2    
    73   35   37 1    
    74   37   38 1    
    75   37   39 1    
    76   37  160 1    
    77   38  161 1    
    78   38  162 1    
    79   38  163 1    
    80   39   40 am   BACKBONE|DICT|INTERRES
    81   39  164 1    
    82   40   41 2    
    83   40   42 1    
    84   42   43 1    
    85   42   44 1    
    86   42  165 1    
    87   43  166 1    
    88   43  167 1    
    89   43  168 1    
    90   44   45 am   BACKBONE|DICT|INTERRES
    91   44  169 1    
    92   45   46 2    
    93   45   47 1    
    94   47   48 1    
    95   47   49 1    
    96   47  170 1    
    97   48  171 1    
    98   48  172 1    
    99   48  173 1    
   100   49   50 am   BACKBONE|DICT|INTERRES
   101   49  174 1    
   102   50   51 2    
   103   50   52 1    
   104   52   53 1    
   105   52   54 1    
   106   52  175 1    
   107   53  176 1    
   108   53  177 1    
   109   53  178 1    
   110   54   55 am   BACKBONE|DICT|INTERRES
   111   54  179 1    
   112   55   56 2    
   113   55   57 1    
   114   57   58 1    
   115   57   59 1    
   116   57  180 1    
   117   58  181 1    
   118   58  182 1    
   119   58  183 1    
   120   59   60 am   BACKBONE|DICT|INTERRES
   121   59  184 1    
   122   60   61 2    
   123   60   62 1    
   124   62   63 1    
   125   62   64 1    
   126   62  185 1    
   127   63  186 1    
   128   63  187 1    
   129   63  188 1    
   130   64   65 am   BACKBONE|DICT|INTERRES
   131   64  189 1    
   132   65   66 2    
   133   67   68 2    
   134   67   69 am   BACKBONE|DICT|INTERRES
   135   69   70 1    
   136   69  190 1    
   137   70   71 1    
   138   70   72 1    
   139   70  191 1    
   140   71  192 1    
   141   71  193 1    
   142   71  194 1    
   143   72   73 2    
   144   72   74 am   BACKBONE|DICT|INTERRES
   145   74   75 1    
   146   74  195 1    
   147   75   76 1    
   148   75   77 1    
   149   75  196 1    
   150   76  197 1    
   151   76  198 1    
   152   76  199 1    
   153   77   78 2    
   154   77   79 am   BACKBONE|DICT|INTERRES
   155   79   80 1    
   156   79  200 1    
   157   80   81 1    
   158   80   82 1    
   159   80  201 1    
   160   81  202 1    
   161   81  203 1    
   162   81  204 1    
   163   82   83 2    
   164   82   84 am   BACKBONE|DICT|INTERRES
   165   84   85 1    
   166   84  205 1    
   167   85   86 1    
   168   85   87 1    
   169   85  206 1    
   170   86  207 1    
   171   86  208 1    
   172   86  209 1    
   173   87   88 2    
   174   87   89 am   BACKBONE|DICT|INTERRES
   175   89   90 1    
   176   89  210 1    
   177   90   91 1    
   178   90   92 1    
   179   90  211 1    
   180   91  212 1    
   181   91  213 1    
   182   91  214 1    
   183   92   93 2    
   184   92   94 am   BACKBONE|DICT|INTERRES
   185   94   95 1    
   186   94  215 1    
   187   95   96 1    
   188   95   97 1    
   189   95  216 1    
   190   96  217 1    
   191   96  218 1    
   192   96  219 1    
   193   97   98 2    
   194   97   99 am   BACKBONE|DICT|INTERRES
   195   99  100 1    
   196   99  220 1    
   197  100  101 1    
   198  100  102 1    
   199  100  221 1    
   200  101  222 1    
   201  101  223 1    
   202  101  224 1    
   203  102  103 2    
   204  102  104 am   BACKBONE|DICT|INTERRES
   205  104  105 1    
   206  104  225 1    
   207  105  106 1    
   208  105  107 1    
   209  105  226 1    
   210  106  227 1    
   211  106  228 1    
   212  106  229 1    
   213  107  108 2    
   214  107  109 am   BACKBONE|DICT|INTERRES
   215  109  110 1    
   216  109  230 1    
   217  110  111 1    
   218  110  112 1    
   219  110  231 1    
   220  111  232 1    
   221  111  233 1    
   222  111  234 1    
   223  112  113 2    
   224  112  114 am   BACKBONE|DICT|INTERRES
   225  114  115 1    
   226  114  235 1    
   227  115  116 1    
   228  115  117 1    
   229  115  236 1    
   230  116  237 1    
   231  116  238 1    
   232  116  239 1    
   233  117  118 2    
   234  117  119 am   BACKBONE|DICT|INTERRES
   235  119  120 1    
   236  119  240 1    
   237  120  121 1    
   238  120  124 1    
   239  120  241 1    
   240  121  122 am   BACKBONE|DICT|INTERRES
   241  121  123 2    
   242  122  242 1    
   243  122  243 1    
   244  124  125 1    
   245  124  244 1    
   246  124  245 1    
   247  125  126 1    
   248  126  246 1    
   249  126  247 1    
@<TRIPOS>SUBSTRUCTURE
     1 UNK         1 GROUP             0       ****    0 ROOT    
