@<TRIPOS>MOLECULE
3R540
247   249    1
SMALL
USER_CHARGES


@<TRIPOS>ATOM
      1 CA          6.4892  -14.8021  -46.4598 C.3       0 UNK        -0.1800 
      2 C           5.1635  -14.0927  -46.2306 C.2       0 UNK         0.5000 
      3 O           4.6523  -14.0993  -45.1092 O.2       0 UNK        -0.5000 
      4 N           4.6189  -13.4546  -47.2753 N.am      1 UNK        -0.5000 
      5 CA          3.3170  -12.7662  -47.3118 C.3       1 UNK         0.1400 
      6 C6          2.7633  -12.6348  -48.7574 C.3       23 UNK        -0.0398 
      7 S7          2.8016  -14.1917  -49.7142 S.3       23 UNK        -0.2404 
      8 C8          1.0658  -14.7369  -49.6598 C.3       23 UNK        -0.0205 
      9 C9          0.8414  -15.9035  -50.6093 C.ar      23 UNK        -0.0193 
     10 C10         0.1918  -15.6990  -51.8299 C.ar      23 UNK        -0.1150 
     11 C11         0.0148  -16.7566  -52.7259 C.ar      23 UNK        -0.0193 
     12 C12         0.5026  -18.0245  -52.3974 C.ar      23 UNK        -0.1150 
     13 C13         1.1595  -18.2426  -51.1825 C.ar      23 UNK        -0.0193 
     14 C14         1.3113  -17.1807  -50.2845 C.ar      23 UNK        -0.1150 
     15 C15         1.7528  -19.6110  -50.8708 C.3       23 UNK        -0.0205 
     16 S16         0.4827  -20.9061  -50.7218 S.3       23 UNK        -0.2404 
     17 C17        -0.3182  -20.4492  -49.1505 C.3       23 UNK        -0.0398 
     18 CA         -0.2604  -21.5837  -48.0972 C.3       11 UNK         0.1400 
     19 N          -0.4564  -21.0744  -46.7380 N.am      11 UNK        -0.5000 
     20 C          -0.3922  -21.8024  -45.6135 C.2       10 UNK         0.5000 
     21 O          -0.0707  -22.9890  -45.5795 O.2       10 UNK        -0.5000 
     22 CA         -0.8275  -21.1016  -44.3143 C.3       10 UNK         0.1400 
     23 CB          0.3246  -20.2883  -43.7047 C.3       10 UNK        -0.1800 
     24 N          -1.9911  -20.2392  -44.5265 N.am      10 UNK        -0.5000 
     25 C          -3.2188  -20.6900  -44.8258 C.2       9 UNK         0.5000 
     26 O          -3.5110  -21.8832  -44.8946 O.2       9 UNK        -0.5000 
     27 CA         -4.2848  -19.6273  -45.1493 C.3       9 UNK         0.1400 
     28 CB         -4.9269  -19.0970  -43.8594 C.3       9 UNK        -0.1800 
     29 N          -3.7404  -18.5085  -45.9214 N.am      9 UNK        -0.5000 
     30 C          -3.2845  -18.6106  -47.1784 C.2       8 UNK         0.5000 
     31 O          -3.3126  -19.6540  -47.8299 O.2       8 UNK        -0.5000 
     32 CA         -2.6281  -17.3529  -47.7772 C.3       8 UNK         0.1400 
     33 CB         -3.6835  -16.3987  -48.3537 C.3       8 UNK        -0.1800 
     34 N          -1.8184  -16.6314  -46.7951 N.am      8 UNK        -0.5000 
     35 C          -0.7095  -17.1030  -46.2165 C.2       7 UNK         0.5000 
     36 O          -0.2369  -18.2093  -46.4712 O.2       7 UNK        -0.5000 
     37 CA         -0.0346  -16.2221  -45.1482 C.3       7 UNK         0.1400 
     38 CB          0.7079  -15.0406  -45.7892 C.3       7 UNK        -0.1800 
     39 N          -0.9195  -15.7669  -44.0676 N.am      7 UNK        -0.5000 
     40 C          -1.9906  -14.9596  -44.1246 C.2       6 UNK         0.5000 
     41 O          -2.4458  -14.4751  -45.1609 O.2       6 UNK        -0.5000 
     42 CA         -2.6576  -14.6405  -42.7777 C.3       6 UNK         0.1400 
     43 CB         -3.4495  -15.8502  -42.2570 C.3       6 UNK        -0.1800 
     44 N          -1.6611  -14.2381  -41.7843 N.am      6 UNK        -0.5000 
     45 C          -1.1908  -12.9890  -41.6644 C.2       5 UNK         0.5000 
     46 O          -1.5902  -12.0351  -42.3334 O.2       5 UNK        -0.5000 
     47 CA         -0.0774  -12.7759  -40.6242 C.3       5 UNK         0.1400 
     48 CB         -0.6348  -12.8550  -39.1938 C.3       5 UNK        -0.1800 
     49 N           1.0272  -13.7263  -40.7741 N.am      5 UNK        -0.5000 
     50 C           1.8913  -13.7175  -41.7973 C.2       4 UNK         0.5000 
     51 O           1.8138  -12.9456  -42.7563 O.2       4 UNK        -0.5000 
     52 CA          3.0436  -14.7347  -41.7365 C.3       4 UNK         0.1400 
     53 CB          2.7686  -15.9423  -42.6442 C.3       4 UNK        -0.1800 
     54 N           4.2746  -14.0821  -42.1693 N.am      4 UNK        -0.5000 
     55 C           5.0677  -13.3620  -41.3654 C.2       3 UNK         0.5000 
     56 O           4.9589  -13.3311  -40.1387 O.2       3 UNK        -0.5000 
     57 CA          6.1320  -12.4924  -42.0581 C.3       3 UNK         0.1400 
     58 CB          7.3247  -13.3460  -42.5170 C.3       3 UNK        -0.1800 
     59 N           5.5785  -11.7732  -43.2062 N.am      3 UNK        -0.5000 
     60 C           4.6783  -10.7791  -43.1298 C.2       2 UNK         0.5000 
     61 O           4.2923  -10.2825  -42.0712 O.2       2 UNK        -0.5000 
     62 CA          4.1026  -10.2697  -44.4602 C.3       2 UNK         0.1400 
     63 CB          5.0207   -9.1881  -45.0625 C.3       2 UNK        -0.1800 
     64 N           3.9321  -11.3947  -45.3762 N.am      2 UNK        -0.5000 
     65 C           3.3332  -11.4050  -46.5687 C.2       1 UNK         0.5000 
     66 O           2.8233  -10.4073  -47.0815 O.2       1 UNK        -0.5000 
     67 C          -1.2590  -22.7129  -48.4245 C.2       11 UNK         0.5000 
     68 O          -0.8401  -23.7915  -48.8437 O.2       11 UNK        -0.5000 
     69 N          -2.5527  -22.4628  -48.1744 N.am      12 UNK        -0.5000 
     70 CA         -3.6322  -23.4323  -48.3597 C.3       12 UNK         0.1400 
     71 CB         -4.9878  -22.7454  -48.1455 C.3       12 UNK        -0.1800 
     72 C          -3.4925  -24.6794  -47.4695 C.2       12 UNK         0.5000 
     73 O          -3.6895  -25.7938  -47.9546 O.2       12 UNK        -0.5000 
     74 N          -3.1144  -24.4790  -46.1994 N.am      13 UNK        -0.5000 
     75 CA         -2.8450  -25.5505  -45.2397 C.3       13 UNK         0.1400 
     76 CB         -2.6380  -24.9517  -43.8405 C.3       13 UNK        -0.1800 
     77 C          -1.6459  -26.4295  -45.6426 C.2       13 UNK         0.5000 
     78 O          -1.7280  -27.6523  -45.5233 O.2       13 UNK        -0.5000 
     79 N          -0.5691  -25.7986  -46.1316 N.am      14 UNK        -0.5000 
     80 CA          0.6312  -26.4699  -46.6311 C.3       14 UNK         0.1400 
     81 CB          1.7576  -25.4412  -46.8141 C.3       14 UNK        -0.1800 
     82 C           0.3790  -27.2408  -47.9394 C.2       14 UNK         0.5000 
     83 O           0.8614  -28.3651  -48.0832 O.2       14 UNK        -0.5000 
     84 N          -0.3766  -26.6304  -48.8624 N.am      15 UNK        -0.5000 
     85 CA         -0.7601  -27.2221  -50.1448 C.3       15 UNK         0.1400 
     86 CB         -1.3179  -26.1200  -51.0591 C.3       15 UNK        -0.1800 
     87 C          -1.7903  -28.3580  -50.0092 C.2       15 UNK         0.5000 
     88 O          -1.8048  -29.2571  -50.8507 O.2       15 UNK        -0.5000 
     89 N          -2.6434  -28.2731  -48.9766 N.am      16 UNK        -0.5000 
     90 CA         -3.8345  -29.0942  -48.7343 C.3       16 UNK         0.1400 
     91 CB         -3.4555  -30.5621  -48.4483 C.3       16 UNK        -0.1800 
     92 C          -4.8704  -28.9314  -49.8679 C.2       16 UNK         0.5000 
     93 O          -5.4719  -29.9093  -50.3169 O.2       16 UNK        -0.5000 
     94 N          -5.0322  -27.6855  -50.3255 N.am      17 UNK        -0.5000 
     95 CA         -5.8476  -27.2719  -51.4613 C.3       17 UNK         0.1400 
     96 CB         -5.1184  -27.6154  -52.7746 C.3       17 UNK        -0.1800 
     97 C          -6.0965  -25.7613  -51.3521 C.2       17 UNK         0.5000 
     98 O          -5.4618  -25.0932  -50.5333 O.2       17 UNK        -0.5000 
     99 N          -6.9866  -25.2285  -52.1971 N.am      18 UNK        -0.5000 
    100 CA        -7.3808  -23.8152  -52.2466 C.3       18 UNK         0.1400 
    101 CB        -8.7345  -23.7079  -52.9720 C.3       18 UNK        -0.1800 
    102 C         -6.3069  -22.8836  -52.8600 C.2       18 UNK         0.5000 
    103 O         -6.6260  -22.0339  -53.6937 O.2       18 UNK        -0.5000 
    104 N         -5.0491  -23.0320  -52.4217 N.am      19 UNK        -0.5000 
    105 CA        -3.8910  -22.2475  -52.8656 C.3       19 UNK         0.1400 
    106 CB        -2.6057  -22.8629  -52.2950 C.3       19 UNK        -0.1800 
    107 C         -3.9840  -20.7518  -52.5065 C.2       19 UNK         0.5000 
    108 O         -3.3579  -19.9317  -53.1763 O.2       19 UNK        -0.5000 
    109 N         -4.8116  -20.4229  -51.5030 N.am      20 UNK        -0.5000 
    110 CA        -5.1628  -19.0662  -51.0774 C.3       20 UNK         0.1400 
    111 CB        -6.1019  -19.1573  -49.8630 C.3       20 UNK        -0.1800 
    112 C         -5.8229  -18.2068  -52.1757 C.2       20 UNK         0.5000 
    113 O         -5.7798  -16.9799  -52.0833 O.2       20 UNK        -0.5000 
    114 N         -6.4218  -18.8530  -53.1881 N.am      21 UNK        -0.5000 
    115 CA        -6.9893  -18.1960  -54.3658 C.3       21 UNK         0.1400 
    116 CB        -7.9018  -19.1893  -55.1012 C.3       21 UNK        -0.1800 
    117 C         -5.9151  -17.6402  -55.3230 C.2       21 UNK         0.5000 
    118 O         -6.2143  -16.7201  -56.0850 O.2       21 UNK        -0.5000 
    119 N         -4.6973  -18.2017  -55.2690 N.am      22 UNK        -0.5000 
    120 CA        -3.5103  -17.8012  -56.0470 C.3       22 UNK         0.1400 
    121 C         -3.6367  -17.9809  -57.5926 C.2       22 UNK         0.5000 
    122 N         -4.5640  -18.7906  -58.0896 N.am      22 UNK        -0.7600 
    123 O         -2.8639  -17.4096  -58.3575 O.2       22 UNK        -0.5000 
    124 C124       -2.9754  -16.3991  -55.6383 C.3       23 UNK        -0.0398 
    125 S125       -2.4680  -16.3474  -53.8845 S.3       23 UNK        -0.2404 
    126 C126       -0.6665  -16.5203  -54.0643 C.3       23 UNK        -0.0205 
    127 H127        7.2693  -14.3454  -45.8511 H         1 UNK         0.0600 
    128 H128        6.7986  -14.7548  -47.5041 H         1 UNK         0.0600 
    129 H129        6.4047  -15.8513  -46.1771 H         1 UNK         0.0600 
    130 H130        5.1069  -13.4736  -48.1595 H         1 UNK         0.3000 
    131 H131        2.6133  -13.3864  -46.7603 H         1 UNK         0.0600 
    132 H132        1.7416  -12.2517  -48.7396 H         1 UNK         0.0800 
    133 H133        3.3477  -11.9018  -49.3163 H         1 UNK         0.0800 
    134 H134        0.4110  -13.9041  -49.9209 H         1 UNK         0.0800 
    135 H135        0.8007  -15.0362  -48.6474 H         1 UNK         0.0800 
    136 H136       -0.1694  -14.7141  -52.0911 H         1 UNK         0.1150 
    137 H137        0.3838  -18.8439  -53.0927 H         1 UNK         0.1150 
    138 H138        1.8260  -17.3357  -49.3464 H         1 UNK         0.1150 
    139 H139        2.4378  -19.8858  -51.6740 H         1 UNK         0.0800 
    140 H140        2.3505  -19.5828  -49.9583 H         1 UNK         0.0800 
    141 H141       -1.3425  -20.1474  -49.3684 H         1 UNK         0.0800 
    142 H142        0.1727  -19.5587  -48.7573 H         1 UNK         0.0800 
    143 H143        0.7421  -22.0167  -48.1163 H         1 UNK         0.0600 
    144 H144       -0.6589  -20.0830  -46.6548 H         1 UNK         0.3000 
    145 H145       -1.1083  -21.8751  -43.5965 H         1 UNK         0.0600 
    146 H146        0.0236  -19.8169  -42.7691 H         1 UNK         0.0600 
    147 H147        1.1767  -20.9323  -43.4837 H         1 UNK         0.0600 
    148 H148        0.6756  -19.5064  -44.3773 H         1 UNK         0.0600 
    149 H149       -1.8278  -19.2447  -44.5248 H         1 UNK         0.3000 
    150 H150       -5.0632  -20.1048  -45.7484 H         1 UNK         0.0600 
    151 H151       -5.3973  -19.9064  -43.2995 H         1 UNK         0.0600 
    152 H152       -5.7007  -18.3601  -44.0754 H         1 UNK         0.0600 
    153 H153       -4.1907  -18.6322  -43.2034 H         1 UNK         0.0600 
    154 H154       -3.6822  -17.6141  -45.4587 H         1 UNK         0.3000 
    155 H155       -1.9724  -17.6719  -48.5904 H         1 UNK         0.0600 
    156 H156       -4.3515  -16.0199  -47.5791 H         1 UNK         0.0600 
    157 H157       -3.2140  -15.5424  -48.8384 H         1 UNK         0.0600 
    158 H158       -4.2981  -16.8948  -49.1033 H         1 UNK         0.0600 
    159 H159       -2.1591  -15.7257  -46.4799 H         1 UNK         0.3000 
    160 H160        0.7153  -16.8496  -44.6648 H         1 UNK         0.0600 
    161 H161        1.4961  -15.4046  -46.4488 H         1 UNK         0.0600 
    162 H162        0.0430  -14.4058  -46.3755 H         1 UNK         0.0600 
    163 H163        1.1801  -14.4134  -45.0336 H         1 UNK         0.0600 
    164 H164       -0.6665  -16.1103  -43.1534 H         1 UNK         0.3000 
    165 H165       -3.3649  -13.8232  -42.9358 H         1 UNK         0.0600 
    166 H166       -3.9590  -15.6119  -41.3231 H         1 UNK         0.0600 
    167 H167       -4.2152  -16.1488  -42.9739 H         1 UNK         0.0600 
    168 H168       -2.8092  -16.7143  -42.0761 H         1 UNK         0.0600 
    169 H169       -1.2864  -14.9568  -41.1833 H         1 UNK         0.3000 
    170 H170        0.3221  -11.7697  -40.7706 H         1 UNK         0.0600 
    171 H171       -1.4578  -12.1523  -39.0566 H         1 UNK         0.0600 
    172 H172       -1.0110  -13.8509  -38.9572 H         1 UNK         0.0600 
    173 H173        0.1304  -12.6031  -38.4593 H         1 UNK         0.0600 
    174 H174        1.1599  -14.3871  -40.0221 H         1 UNK         0.3000 
    175 H175        3.1551  -15.0943  -40.7113 H         1 UNK         0.0600 
    176 H176        2.7151  -15.6519  -43.6932 H         1 UNK         0.0600 
    177 H177        3.5568  -16.6892  -42.5495 H         1 UNK         0.0600 
    178 H178        1.8278  -16.4264  -42.3808 H         1 UNK         0.0600 
    179 H179        4.4153  -14.0277  -43.1738 H         1 UNK         0.3000 
    180 H180        6.4936  -11.7583  -41.3350 H         1 UNK         0.0600 
    181 H181        7.0280  -14.0931  -43.2541 H         1 UNK         0.0600 
    182 H182        7.7705  -13.8760  -41.6744 H         1 UNK         0.0600 
    183 H183        8.1050  -12.7276  -42.9609 H         1 UNK         0.0600 
    184 H184        5.8701  -12.0970  -44.1157 H         1 UNK         0.3000 
    185 H185        3.1202   -9.8380  -44.2592 H         1 UNK         0.0600 
    186 H186        4.5763   -8.7284  -45.9449 H         1 UNK         0.0600 
    187 H187        5.2032   -8.3878  -44.3442 H         1 UNK         0.0600 
    188 H188        5.9891   -9.5985  -45.3506 H         1 UNK         0.0600 
    189 H189        4.2341  -12.2998  -45.0249 H         1 UNK         0.3000 
    190 H190       -2.8201  -21.5352  -47.8568 H         1 UNK         0.3000 
    191 H191       -3.5851  -23.7733  -49.3934 H         1 UNK         0.0600 
    192 H192       -5.0700  -22.3140  -47.1478 H         1 UNK         0.0600 
    193 H193       -5.8085  -23.4532  -48.2685 H         1 UNK         0.0600 
    194 H194       -5.1373  -21.9480  -48.8709 H         1 UNK         0.0600 
    195 H195       -3.0249  -23.5266  -45.8583 H         1 UNK         0.3000 
    196 H196       -3.7279  -26.1921  -45.2046 H         1 UNK         0.0600 
    197 H197       -2.4656  -25.7355  -43.1019 H         1 UNK         0.0600 
    198 H198       -3.5143  -24.3886  -43.5191 H         1 UNK         0.0600 
    199 H199       -1.7801  -24.2800  -43.8127 H         1 UNK         0.0600 
    200 H200       -0.5600  -24.7824  -46.1482 H         1 UNK         0.3000 
    201 H201        0.9527  -27.1912  -45.8769 H         1 UNK         0.0600 
    202 H202        2.0015  -24.9534  -45.8702 H         1 UNK         0.0600 
    203 H203        1.4824  -24.6649  -47.5289 H         1 UNK         0.0600 
    204 H204        2.6681  -25.9180  -47.1792 H         1 UNK         0.0600 
    205 H205       -0.6795  -25.6734  -48.6955 H         1 UNK         0.3000 
    206 H206        0.1351  -27.6362  -50.6133 H         1 UNK         0.0600 
    207 H207       -0.5812  -25.3337  -51.2252 H         1 UNK         0.0600 
    208 H208       -1.5922  -26.5208  -52.0356 H         1 UNK         0.0600 
    209 H209       -2.2091  -25.6580  -50.6316 H         1 UNK         0.0600 
    210 H210       -2.5793  -27.4465  -48.3921 H         1 UNK         0.3000 
    211 H211       -4.3009  -28.6931  -47.8334 H         1 UNK         0.0600 
    212 H212       -3.0427  -31.0567  -49.3278 H         1 UNK         0.0600 
    213 H213       -4.3288  -31.1343  -48.1333 H         1 UNK         0.0600 
    214 H214       -2.7181  -30.6282  -47.6483 H         1 UNK         0.0600 
    215 H215       -4.5660  -26.9181  -49.8511 H         1 UNK         0.3000 
    216 H216       -6.8107  -27.7844  -51.4214 H         1 UNK         0.0600 
    217 H217       -5.7046  -27.3182  -53.6447 H         1 UNK         0.0600 
    218 H218       -4.9385  -28.6870  -52.8612 H         1 UNK         0.0600 
    219 H219       -4.1534  -27.1107  -52.8389 H         1 UNK         0.0600 
    220 H220       -7.4369  -25.8336  -52.8685 H         1 UNK         0.3000 
    221 H221       -7.5338  -23.4726  -51.2210 H         1 UNK         0.0600 
    222 H222       -8.6579  -24.0230  -54.0133 H         1 UNK         0.0600 
    223 H223       -9.4918  -24.3253  -52.4885 H         1 UNK         0.0600 
    224 H224       -9.1055  -22.6820  -52.9649 H         1 UNK         0.0600 
    225 H225       -4.8879  -23.7444  -51.7150 H         1 UNK         0.3000 
    226 H226       -3.8454  -22.3166  -53.9543 H         1 UNK         0.0600 
    227 H227       -2.5148  -23.9131  -52.5709 H         1 UNK         0.0600 
    228 H228       -1.7241  -22.3490  -52.6803 H         1 UNK         0.0600 
    229 H229       -2.5704  -22.7918  -51.2090 H         1 UNK         0.0600 
    230 H230       -5.2815  -21.1755  -51.0243 H         1 UNK         0.3000 
    231 H231       -4.2393  -18.5679  -50.7775 H         1 UNK         0.0600 
    232 H232       -6.3864  -18.1653  -49.5099 H         1 UNK         0.0600 
    233 H233       -5.6295  -19.6693  -49.0271 H         1 UNK         0.0600 
    234 H234       -7.0208  -19.6922  -50.1060 H         1 UNK         0.0600 
    235 H235       -6.4250  -19.8660  -53.1922 H         1 UNK         0.3000 
    236 H236       -7.6009  -17.3558  -54.0302 H         1 UNK         0.0600 
    237 H237       -8.6889  -19.5632  -54.4461 H         1 UNK         0.0600 
    238 H238       -8.3872  -18.7152  -55.9553 H         1 UNK         0.0600 
    239 H239       -7.3428  -20.0474  -55.4763 H         1 UNK         0.0600 
    240 H240       -4.5242  -18.9175  -54.5729 H         1 UNK         0.3000 
    241 H241       -2.7405  -18.5223  -55.7701 H         1 UNK         0.0600 
    242 H242       -4.6344  -18.9117  -59.0879 H         1 UNK         0.3800 
    243 H243       -5.2008  -19.2758  -57.4785 H         1 UNK         0.3800 
    244 H244       -2.1222  -16.1084  -56.2531 H         1 UNK         0.0800 
    245 H245       -3.7346  -15.6344  -55.8056 H         1 UNK         0.0800 
    246 H246       -0.4505  -17.3441  -54.7467 H         1 UNK         0.0800 
    247 H247       -0.2603  -15.6199  -54.5276 H         1 UNK         0.0800 
@<TRIPOS>BOND
     1    1    2 1    
     2    1  127 1    
     3    1  128 1    
     4    1  129 1    
     5    2    3 2    
     6    2    4 am   BACKBONE|DICT|INTERRES
     7    4    5 1    
     8    4  130 1    
     9    5    6 1    
    10    5   65 1    
    11    5  131 1    
    12    6    7 1    
    13    6  132 1    
    14    6  133 1    
    15    7    8 1    
    16    8    9 1    
    17    8  134 1    
    18    8  135 1    
    19    9   10 ar   
    20    9   14 ar   
    21   10   11 ar   
    22   10  136 1    
    23   11   12 ar   
    24   11  126 1    
    25   12   13 ar   
    26   12  137 1    
    27   13   14 ar   
    28   13   15 1    
    29   14  138 1    
    30   15   16 1    
    31   15  139 1    
    32   15  140 1    
    33   16   17 1    
    34   17   18 1    
    35   17  141 1    
    36   17  142 1    
    37   18   19 1    
    38   18   67 1    
    39   18  143 1    
    40   19   20 am   BACKBONE|DICT|INTERRES
    41   19  144 1    
    42   20   21 2    
    43   20   22 1    
    44   22   23 1    
    45   22   24 1    
    46   22  145 1    
    47   23  146 1    
    48   23  147 1    
    49   23  148 1    
    50   24   25 am   BACKBONE|DICT|INTERRES
    51   24  149 1    
    52   25   26 2    
    53   25   27 1    
    54   27   28 1    
    55   27   29 1    
    56   27  150 1    
    57   28  151 1    
    58   28  152 1    
    59   28  153 1    
    60   29   30 am   BACKBONE|DICT|INTERRES
    61   29  154 1    
    62   30   31 2    
    63   30   32 1    
    64   32   33 1    
    65   32   34 1    
    66   32  155 1    
    67   33  156 1    
    68   33  157 1    
    69   33  158 1    
    70   34   35 am   BACKBONE|DICT|INTERRES
    71   34  159 1    
    72   35   36 2    
    73   35   37 1    
    74   37   38 1    
    75   37   39 1    
    76   37  160 1    
    77   38  161 1    
    78   38  162 1    
    79   38  163 1    
    80   39   40 am   BACKBONE|DICT|INTERRES
    81   39  164 1    
    82   40   41 2    
    83   40   42 1    
    84   42   43 1    
    85   42   44 1    
    86   42  165 1    
    87   43  166 1    
    88   43  167 1    
    89   43  168 1    
    90   44   45 am   BACKBONE|DICT|INTERRES
    91   44  169 1    
    92   45   46 2    
    93   45   47 1    
    94   47   48 1    
    95   47   49 1    
    96   47  170 1    
    97   48  171 1    
    98   48  172 1    
    99   48  173 1    
   100   49   50 am   BACKBONE|DICT|INTERRES
   101   49  174 1    
   102   50   51 2    
   103   50   52 1    
   104   52   53 1    
   105   52   54 1    
   106   52  175 1    
   107   53  176 1    
   108   53  177 1    
   109   53  178 1    
   110   54   55 am   BACKBONE|DICT|INTERRES
   111   54  179 1    
   112   55   56 2    
   113   55   57 1    
   114   57   58 1    
   115   57   59 1    
   116   57  180 1    
   117   58  181 1    
   118   58  182 1    
   119   58  183 1    
   120   59   60 am   BACKBONE|DICT|INTERRES
   121   59  184 1    
   122   60   61 2    
   123   60   62 1    
   124   62   63 1    
   125   62   64 1    
   126   62  185 1    
   127   63  186 1    
   128   63  187 1    
   129   63  188 1    
   130   64   65 am   BACKBONE|DICT|INTERRES
   131   64  189 1    
   132   65   66 2    
   133   67   68 2    
   134   67   69 am   BACKBONE|DICT|INTERRES
   135   69   70 1    
   136   69  190 1    
   137   70   71 1    
   138   70   72 1    
   139   70  191 1    
   140   71  192 1    
   141   71  193 1    
   142   71  194 1    
   143   72   73 2    
   144   72   74 am   BACKBONE|DICT|INTERRES
   145   74   75 1    
   146   74  195 1    
   147   75   76 1    
   148   75   77 1    
   149   75  196 1    
   150   76  197 1    
   151   76  198 1    
   152   76  199 1    
   153   77   78 2    
   154   77   79 am   BACKBONE|DICT|INTERRES
   155   79   80 1    
   156   79  200 1    
   157   80   81 1    
   158   80   82 1    
   159   80  201 1    
   160   81  202 1    
   161   81  203 1    
   162   81  204 1    
   163   82   83 2    
   164   82   84 am   BACKBONE|DICT|INTERRES
   165   84   85 1    
   166   84  205 1    
   167   85   86 1    
   168   85   87 1    
   169   85  206 1    
   170   86  207 1    
   171   86  208 1    
   172   86  209 1    
   173   87   88 2    
   174   87   89 am   BACKBONE|DICT|INTERRES
   175   89   90 1    
   176   89  210 1    
   177   90   91 1    
   178   90   92 1    
   179   90  211 1    
   180   91  212 1    
   181   91  213 1    
   182   91  214 1    
   183   92   93 2    
   184   92   94 am   BACKBONE|DICT|INTERRES
   185   94   95 1    
   186   94  215 1    
   187   95   96 1    
   188   95   97 1    
   189   95  216 1    
   190   96  217 1    
   191   96  218 1    
   192   96  219 1    
   193   97   98 2    
   194   97   99 am   BACKBONE|DICT|INTERRES
   195   99  100 1    
   196   99  220 1    
   197  100  101 1    
   198  100  102 1    
   199  100  221 1    
   200  101  222 1    
   201  101  223 1    
   202  101  224 1    
   203  102  103 2    
   204  102  104 am   BACKBONE|DICT|INTERRES
   205  104  105 1    
   206  104  225 1    
   207  105  106 1    
   208  105  107 1    
   209  105  226 1    
   210  106  227 1    
   211  106  228 1    
   212  106  229 1    
   213  107  108 2    
   214  107  109 am   BACKBONE|DICT|INTERRES
   215  109  110 1    
   216  109  230 1    
   217  110  111 1    
   218  110  112 1    
   219  110  231 1    
   220  111  232 1    
   221  111  233 1    
   222  111  234 1    
   223  112  113 2    
   224  112  114 am   BACKBONE|DICT|INTERRES
   225  114  115 1    
   226  114  235 1    
   227  115  116 1    
   228  115  117 1    
   229  115  236 1    
   230  116  237 1    
   231  116  238 1    
   232  116  239 1    
   233  117  118 2    
   234  117  119 am   BACKBONE|DICT|INTERRES
   235  119  120 1    
   236  119  240 1    
   237  120  121 1    
   238  120  124 1    
   239  120  241 1    
   240  121  122 am   BACKBONE|DICT|INTERRES
   241  121  123 2    
   242  122  242 1    
   243  122  243 1    
   244  124  125 1    
   245  124  244 1    
   246  124  245 1    
   247  125  126 1    
   248  126  246 1    
   249  126  247 1    
@<TRIPOS>SUBSTRUCTURE
     1 UNK         1 GROUP             0       ****    0 ROOT    
