@<TRIPOS>MOLECULE
3R540
247   249    1
SMALL
USER_CHARGES


@<TRIPOS>ATOM
      1 CA          5.9994  -10.5819  -49.6961 C.3       0 UNK        -0.1800 
      2 C           5.0597  -11.4733  -48.8965 C.2       0 UNK         0.5000 
      3 O           4.1821  -10.9650  -48.1999 O.2       0 UNK        -0.5000 
      4 N           5.2453  -12.7978  -48.9936 N.am      1 UNK        -0.5000 
      5 CA          4.4604  -13.8380  -48.3100 C.3       1 UNK         0.1400 
      6 C6          2.9463  -13.7837  -48.6695 C.3       23 UNK        -0.0398 
      7 S7          2.1081  -15.4044  -48.5864 S.3       23 UNK        -0.2404 
      8 C8          1.6893  -15.7077  -50.3314 C.3       23 UNK        -0.0205 
      9 C9          0.7600  -16.9044  -50.4492 C.ar      23 UNK        -0.0193 
     10 C10        -0.6244  -16.7230  -50.3818 C.ar      23 UNK        -0.1150 
     11 C11        -1.4890  -17.8206  -50.4071 C.ar      23 UNK        -0.0193 
     12 C12        -0.9521  -19.1081  -50.5013 C.ar      23 UNK        -0.1150 
     13 C13         0.4274  -19.3024  -50.6078 C.ar      23 UNK        -0.0193 
     14 C14         1.2799  -18.1945  -50.5868 C.ar      23 UNK        -0.1150 
     15 C15         0.9874  -20.7151  -50.7087 C.3       23 UNK        -0.0205 
     16 S16         2.0725  -21.1522  -49.3121 S.3       23 UNK        -0.2404 
     17 C17         1.0346  -20.7502  -47.8696 C.3       23 UNK        -0.0398 
     18 CA          0.3148  -21.9486  -47.2104 C.3       11 UNK         0.1400 
     19 N          -0.1096  -21.5814  -45.8565 N.am      11 UNK        -0.5000 
     20 C          -0.6155  -22.4105  -44.9362 C.2       10 UNK         0.5000 
     21 O          -0.7758  -23.6155  -45.1165 O.2       10 UNK        -0.5000 
     22 CA         -1.0556  -21.7754  -43.6036 C.3       10 UNK         0.1400 
     23 CB          0.1548  -21.4958  -42.7004 C.3       10 UNK        -0.1800 
     24 N          -1.8191  -20.5416  -43.7953 N.am      10 UNK        -0.5000 
     25 C          -3.0095  -20.4783  -44.4090 C.2       9 UNK         0.5000 
     26 O          -3.6115  -21.4618  -44.8378 O.2       9 UNK        -0.5000 
     27 CA         -3.6027  -19.0766  -44.6298 C.3       9 UNK         0.1400 
     28 CB         -4.2757  -18.5507  -43.3531 C.3       9 UNK        -0.1800 
     29 N          -2.5980  -18.1192  -45.0886 N.am      9 UNK        -0.5000 
     30 C          -1.9605  -18.1950  -46.2658 C.2       8 UNK         0.5000 
     31 O          -2.1692  -19.0705  -47.1036 O.2       8 UNK        -0.5000 
     32 CA         -0.8671  -17.1446  -46.5189 C.3       8 UNK         0.1400 
     33 CB         -1.4887  -15.8354  -47.0266 C.3       8 UNK        -0.1800 
     34 N          -0.0628  -16.8941  -45.3186 N.am      8 UNK        -0.5000 
     35 C           0.7481  -17.8160  -44.7759 C.2       7 UNK         0.5000 
     36 O           0.8828  -18.9506  -45.2299 O.2       7 UNK        -0.5000 
     37 CA          1.5038  -17.4502  -43.4895 C.3       7 UNK         0.1400 
     38 CB          2.8153  -16.7241  -43.8113 C.3       7 UNK        -0.1800 
     39 N           0.7216  -16.6566  -42.5454 N.am      7 UNK        -0.5000 
     40 C          -0.3751  -17.0932  -41.9110 C.2       6 UNK         0.5000 
     41 O          -0.9135  -18.1758  -42.1478 O.2       6 UNK        -0.5000 
     42 CA         -0.9641  -16.1714  -40.8319 C.3       6 UNK         0.1400 
     43 CB         -0.1557  -16.2874  -39.5302 C.3       6 UNK        -0.1800 
     44 N          -0.9580  -14.7788  -41.2755 N.am      6 UNK        -0.5000 
     45 C          -2.0538  -14.0637  -41.5605 C.2       5 UNK         0.5000 
     46 O          -3.2037  -14.4699  -41.3875 O.2       5 UNK        -0.5000 
     47 CA         -1.8382  -12.6570  -42.1587 C.3       5 UNK         0.1400 
     48 CB         -1.8737  -11.5930  -41.0511 C.3       5 UNK        -0.1800 
     49 N          -0.5961  -12.5056  -42.9224 N.am      5 UNK        -0.5000 
     50 C          -0.2519  -13.2340  -43.9934 C.2       4 UNK         0.5000 
     51 O          -0.9451  -14.1351  -44.4608 O.2       4 UNK        -0.5000 
     52 CA          1.1230  -12.9516  -44.6204 C.3       4 UNK         0.1400 
     53 CB          1.0103  -11.8391  -45.6726 C.3       4 UNK        -0.1800 
     54 N           2.1952  -12.6075  -43.6814 N.am      4 UNK        -0.5000 
     55 C           2.5381  -13.2491  -42.5559 C.2       3 UNK         0.5000 
     56 O           1.8560  -14.1292  -42.0246 O.2       3 UNK        -0.5000 
     57 CA          3.9149  -12.8731  -41.9710 C.3       3 UNK         0.1400 
     58 CB          4.1738  -13.5333  -40.6049 C.3       3 UNK        -0.1800 
     59 N           4.9818  -13.2670  -42.8944 N.am      3 UNK        -0.5000 
     60 C           5.3314  -12.6111  -44.0099 C.2       2 UNK         0.5000 
     61 O           4.8589  -11.5152  -44.3214 O.2       2 UNK        -0.5000 
     62 CA          6.3544  -13.2878  -44.9517 C.3       2 UNK         0.1400 
     63 CB          6.8055  -14.6930  -44.4904 C.3       2 UNK        -0.1800 
     64 N           5.8761  -13.3418  -46.3398 N.am      2 UNK        -0.5000 
     65 C           4.7356  -13.8979  -46.7840 C.2       1 UNK         0.5000 
     66 O           3.9341  -14.4639  -46.0436 O.2       1 UNK        -0.5000 
     67 C          -0.8602  -22.4841  -48.0637 C.2       11 UNK         0.5000 
     68 O          -0.7067  -23.4933  -48.7577 O.2       11 UNK        -0.5000 
     69 N          -2.0269  -21.8310  -47.9570 N.am      12 UNK        -0.5000 
     70 CA         -3.2875  -22.2627  -48.5599 C.3       12 UNK         0.1400 
     71 CB         -4.3476  -21.1663  -48.3770 C.3       12 UNK        -0.1800 
     72 C          -3.7861  -23.6009  -47.9853 C.2       12 UNK         0.5000 
     73 O          -4.1233  -24.5002  -48.7554 O.2       12 UNK        -0.5000 
     74 N          -3.7934  -23.7237  -46.6489 N.am      13 UNK        -0.5000 
     75 CA         -4.2078  -24.9259  -45.9177 C.3       13 UNK         0.1400 
     76 CB         -4.2780  -24.6164  -44.4150 C.3       13 UNK        -0.1800 
     77 C          -3.3020  -26.1445  -46.1761 C.2       13 UNK         0.5000 
     78 O          -3.7997  -27.2689  -46.2407 O.2       13 UNK        -0.5000 
     79 N          -1.9981  -25.8972  -46.3585 N.am      14 UNK        -0.5000 
     80 CA         -0.9938  -26.8881  -46.7514 C.3       14 UNK         0.1400 
     81 CB          0.4052  -26.3025  -46.4998 C.3       14 UNK        -0.1800 
     82 C          -1.1218  -27.3537  -48.2170 C.2       14 UNK         0.5000 
     83 O          -0.4591  -28.3210  -48.5939 O.2       14 UNK        -0.5000 
     84 N          -1.9509  -26.6603  -49.0126 N.am      15 UNK        -0.5000 
     85 CA         -2.2127  -26.8797  -50.4365 C.3       15 UNK         0.1400 
     86 CB         -2.8905  -28.2447  -50.6763 C.3       15 UNK        -0.1800 
     87 C          -0.9683  -26.6494  -51.3174 C.2       15 UNK         0.5000 
     88 O          -0.7990  -27.3184  -52.3389 O.2       15 UNK        -0.5000 
     89 N          -0.1256  -25.6855  -50.9173 N.am      16 UNK        -0.5000 
     90 CA          0.9895  -25.1900  -51.7271 C.3       16 UNK         0.1400 
     91 CB          2.0284  -24.5416  -50.8050 C.3       16 UNK        -0.1800 
     92 C           0.5089  -24.2120  -52.8194 C.2       16 UNK         0.5000 
     93 O           1.1653  -24.0817  -53.8531 O.2       16 UNK        -0.5000 
     94 N          -0.6494  -23.5845  -52.5837 N.am      17 UNK        -0.5000 
     95 CA         -1.4702  -22.9029  -53.5803 C.3       17 UNK         0.1400 
     96 CB         -1.8965  -21.5366  -53.0204 C.3       17 UNK        -0.1800 
     97 C          -2.7064  -23.7692  -53.8816 C.2       17 UNK         0.5000 
     98 O          -2.9463  -24.7671  -53.1945 O.2       17 UNK        -0.5000 
     99 N          -3.4961  -23.3620  -54.8835 N.am      18 UNK        -0.5000 
    100 CA        -4.7690  -23.9795  -55.2716 C.3       18 UNK         0.1400 
    101 CB        -5.1394  -23.4950  -56.6851 C.3       18 UNK        -0.1800 
    102 C         -5.8840  -23.6981  -54.2392 C.2       18 UNK         0.5000 
    103 O         -6.8514  -22.9967  -54.5396 O.2       18 UNK        -0.5000 
    104 N         -5.6965  -24.2200  -53.0204 N.am      19 UNK        -0.5000 
    105 CA        -6.4802  -23.9596  -51.8131 C.3       19 UNK         0.1400 
    106 CB        -7.8897  -24.5833  -51.9299 C.3       19 UNK        -0.1800 
    107 C         -6.4695  -22.4553  -51.4646 C.2       19 UNK         0.5000 
    108 O         -5.4098  -21.8318  -51.5279 O.2       19 UNK        -0.5000 
    109 N         -7.6335  -21.8967  -51.1155 N.am      20 UNK        -0.5000 
    110 CA        -7.8184  -20.4972  -50.7285 C.3       20 UNK         0.1400 
    111 CB        -8.9516  -20.4311  -49.6895 C.3       20 UNK        -0.1800 
    112 C         -8.0876  -19.5534  -51.9221 C.2       20 UNK         0.5000 
    113 O         -8.5009  -18.4149  -51.6996 O.2       20 UNK        -0.5000 
    114 N         -7.8709  -20.0175  -53.1634 N.am      21 UNK        -0.5000 
    115 CA        -8.0515  -19.2247  -54.3875 C.3       21 UNK         0.1400 
    116 CB        -8.0771  -20.1666  -55.6007 C.3       21 UNK        -0.1800 
    117 C         -6.9802  -18.1300  -54.5842 C.2       21 UNK         0.5000 
    118 O         -7.1924  -17.2092  -55.3747 O.2       21 UNK        -0.5000 
    119 N         -5.8515  -18.2588  -53.8786 N.am      22 UNK        -0.5000 
    120 CA        -4.7515  -17.2882  -53.8023 C.3       22 UNK         0.1400 
    121 C         -5.1559  -15.9056  -53.2104 C.2       22 UNK         0.5000 
    122 N         -4.4425  -14.8457  -53.5677 N.am      22 UNK        -0.7600 
    123 O         -6.0815  -15.7820  -52.4117 O.2       22 UNK        -0.5000 
    124 C124       -3.5364  -17.8962  -53.0539 C.3       23 UNK        -0.0398 
    125 S125       -3.9655  -18.6323  -51.4348 S.3       23 UNK        -0.2404 
    126 C126       -2.9942  -17.6071  -50.2842 C.3       23 UNK        -0.0205 
    127 H127        6.5449   -9.9164  -49.0270 H         1 UNK         0.0600 
    128 H128        5.4305   -9.9710  -50.3969 H         1 UNK         0.0600 
    129 H129        6.7259  -11.1634  -50.2642 H         1 UNK         0.0600 
    130 H130        5.9882  -13.1432  -49.5861 H         1 UNK         0.3000 
    131 H131        4.8542  -14.7757  -48.7051 H         1 UNK         0.0600 
    132 H132        2.4166  -13.0849  -48.0221 H         1 UNK         0.0800 
    133 H133        2.8219  -13.3909  -49.6792 H         1 UNK         0.0800 
    134 H134        1.2093  -14.8245  -50.7559 H         1 UNK         0.0800 
    135 H135        2.6027  -15.8751  -50.9042 H         1 UNK         0.0800 
    136 H136       -1.0258  -15.7248  -50.2774 H         1 UNK         0.1150 
    137 H137       -1.6142  -19.9618  -50.4853 H         1 UNK         0.1150 
    138 H138        2.3496  -18.3412  -50.6388 H         1 UNK         0.1150 
    139 H139        0.1814  -21.4479  -50.7600 H         1 UNK         0.0800 
    140 H140        1.5481  -20.8125  -51.6391 H         1 UNK         0.0800 
    141 H141        0.3315  -19.9467  -48.0867 H         1 UNK         0.0800 
    142 H142        1.7369  -20.3245  -47.1536 H         1 UNK         0.0800 
    143 H143        1.0354  -22.7623  -47.1054 H         1 UNK         0.0600 
    144 H144        0.0237  -20.6057  -45.6024 H         1 UNK         0.3000 
    145 H145       -1.7019  -22.4913  -43.0918 H         1 UNK         0.0600 
    146 H146       -0.1584  -21.1032  -41.7328 H         1 UNK         0.0600 
    147 H147        0.7217  -22.4088  -42.5143 H         1 UNK         0.0600 
    148 H148        0.8355  -20.7720  -43.1488 H         1 UNK         0.0600 
    149 H149       -1.4075  -19.6859  -43.4370 H         1 UNK         0.3000 
    150 H150       -4.3662  -19.1577  -45.4064 H         1 UNK         0.0600 
    151 H151       -4.7504  -17.5849  -43.5268 H         1 UNK         0.0600 
    152 H152       -3.5631  -18.4311  -42.5369 H         1 UNK         0.0600 
    153 H153       -5.0515  -19.2374  -43.0121 H         1 UNK         0.0600 
    154 H154       -2.3291  -17.3928  -44.4415 H         1 UNK         0.3000 
    155 H155       -0.2039  -17.5274  -47.2981 H         1 UNK         0.0600 
    156 H156       -2.0256  -15.9961  -47.9606 H         1 UNK         0.0600 
    157 H157       -2.2052  -15.4248  -46.3151 H         1 UNK         0.0600 
    158 H158       -0.7254  -15.0802  -47.2145 H         1 UNK         0.0600 
    159 H159       -0.1730  -15.9885  -44.8757 H         1 UNK         0.3000 
    160 H160        1.7606  -18.3865  -42.9897 H         1 UNK         0.0600 
    161 H161        3.4111  -16.5621  -42.9130 H         1 UNK         0.0600 
    162 H162        2.6234  -15.7537  -44.2644 H         1 UNK         0.0600 
    163 H163        3.4247  -17.2979  -44.5107 H         1 UNK         0.0600 
    164 H164        1.1099  -15.7492  -42.2994 H         1 UNK         0.3000 
    165 H165       -1.9814  -16.5125  -40.6298 H         1 UNK         0.0600 
    166 H166       -0.6017  -15.6866  -38.7376 H         1 UNK         0.0600 
    167 H167       -0.1260  -17.3197  -39.1789 H         1 UNK         0.0600 
    168 H168        0.8745  -15.9537  -39.6626 H         1 UNK         0.0600 
    169 H169       -0.0505  -14.3706  -41.4752 H         1 UNK         0.3000 
    170 H170       -2.6670  -12.4666  -42.8435 H         1 UNK         0.0600 
    171 H171       -1.0443  -11.7132  -40.3529 H         1 UNK         0.0600 
    172 H172       -1.8209  -10.5869  -41.4674 H         1 UNK         0.0600 
    173 H173       -2.7987  -11.6571  -40.4764 H         1 UNK         0.0600 
    174 H174        0.0549  -11.8072  -42.5950 H         1 UNK         0.3000 
    175 H175        1.4336  -13.8638  -45.1324 H         1 UNK         0.0600 
    176 H176        1.9659  -11.6655  -46.1680 H         1 UNK         0.0600 
    177 H177        0.6912  -10.8961  -45.2272 H         1 UNK         0.0600 
    178 H178        0.2858  -12.1027  -46.4444 H         1 UNK         0.0600 
    179 H179        2.8752  -11.9412  -44.0317 H         1 UNK         0.3000 
    180 H180        3.9359  -11.7902  -41.8321 H         1 UNK         0.0600 
    181 H181        4.1799  -14.6218  -40.6762 H         1 UNK         0.0600 
    182 H182        3.4029  -13.2556  -39.8850 H         1 UNK         0.0600 
    183 H183        5.1321  -13.2192  -40.1911 H         1 UNK         0.0600 
    184 H184        5.3919  -14.1751  -42.7332 H         1 UNK         0.3000 
    185 H185        7.2340  -12.6427  -44.9536 H         1 UNK         0.0600 
    186 H186        5.9732  -15.3963  -44.4401 H         1 UNK         0.0600 
    187 H187        7.5432  -15.1080  -45.1774 H         1 UNK         0.0600 
    188 H188        7.2756  -14.6565  -43.5069 H         1 UNK         0.0600 
    189 H189        6.4545  -12.8691  -47.0190 H         1 UNK         0.3000 
    190 H190       -2.0615  -20.9702  -47.4173 H         1 UNK         0.3000 
    191 H191       -3.1214  -22.3987  -49.6307 H         1 UNK         0.0600 
    192 H192       -4.0568  -20.2529  -48.8940 H         1 UNK         0.0600 
    193 H193       -5.3100  -21.4777  -48.7826 H         1 UNK         0.0600 
    194 H194       -4.5010  -20.9192  -47.3270 H         1 UNK         0.0600 
    195 H195       -3.5338  -22.9211  -46.0809 H         1 UNK         0.3000 
    196 H196       -5.2123  -25.1874  -46.2567 H         1 UNK         0.0600 
    197 H197       -4.5966  -25.4923  -43.8485 H         1 UNK         0.0600 
    198 H198       -4.9931  -23.8196  -44.2099 H         1 UNK         0.0600 
    199 H199       -3.3089  -24.3056  -44.0236 H         1 UNK         0.0600 
    200 H200       -1.6575  -24.9533  -46.1960 H         1 UNK         0.3000 
    201 H201       -1.1156  -27.7689  -46.1181 H         1 UNK         0.0600 
    202 H202        0.5407  -26.0425  -45.4499 H         1 UNK         0.0600 
    203 H203        0.5757  -25.4033  -47.0930 H         1 UNK         0.0600 
    204 H204        1.1856  -27.0194  -46.7580 H         1 UNK         0.0600 
    205 H205       -2.4520  -25.8800  -48.6048 H         1 UNK         0.3000 
    206 H206       -2.9280  -26.1096  -50.7283 H         1 UNK         0.0600 
    207 H207       -3.7666  -28.3662  -50.0391 H         1 UNK         0.0600 
    208 H208       -3.2273  -28.3352  -51.7097 H         1 UNK         0.0600 
    209 H209       -2.2133  -29.0762  -50.4801 H         1 UNK         0.0600 
    210 H210       -0.3294  -25.1768  -50.0635 H         1 UNK         0.3000 
    211 H211        1.4695  -26.0318  -52.2307 H         1 UNK         0.0600 
    212 H212        1.5744  -23.7735  -50.1835 H         1 UNK         0.0600 
    213 H213        2.8338  -24.0777  -51.3758 H         1 UNK         0.0600 
    214 H214        2.4789  -25.2799  -50.1415 H         1 UNK         0.0600 
    215 H215       -1.1307  -23.8232  -51.7288 H         1 UNK         0.3000 
    216 H216       -0.9170  -22.7553  -54.5099 H         1 UNK         0.0600 
    217 H217       -2.5537  -21.0117  -53.7135 H         1 UNK         0.0600 
    218 H218       -1.0322  -20.8947  -52.8558 H         1 UNK         0.0600 
    219 H219       -2.4341  -21.6353  -52.0762 H         1 UNK         0.0600 
    220 H220       -3.2477  -22.5204  -55.3825 H         1 UNK         0.3000 
    221 H221       -4.6324  -25.0621  -55.3163 H         1 UNK         0.0600 
    222 H222       -5.2681  -22.4124  -56.7203 H         1 UNK         0.0600 
    223 H223       -4.3704  -23.7654  -57.4089 H         1 UNK         0.0600 
    224 H224       -6.0731  -23.9479  -57.0211 H         1 UNK         0.0600 
    225 H225       -4.8080  -24.6911  -52.8714 H         1 UNK         0.3000 
    226 H226       -5.9598  -24.4628  -50.9969 H         1 UNK         0.0600 
    227 H227       -7.8253  -25.6389  -52.1942 H         1 UNK         0.0600 
    228 H228       -8.4274  -24.5273  -50.9828 H         1 UNK         0.0600 
    229 H229       -8.4968  -24.0911  -52.6905 H         1 UNK         0.0600 
    230 H230       -8.4646  -22.4703  -51.1253 H         1 UNK         0.3000 
    231 H231       -6.9067  -20.1364  -50.2473 H         1 UNK         0.0600 
    232 H232       -9.9063  -20.7415  -50.1158 H         1 UNK         0.0600 
    233 H233       -9.0767  -19.4185  -49.3040 H         1 UNK         0.0600 
    234 H234       -8.7399  -21.0739  -48.8347 H         1 UNK         0.0600 
    235 H235       -7.5363  -20.9650  -53.2817 H         1 UNK         0.3000 
    236 H236       -9.0210  -18.7258  -54.3273 H         1 UNK         0.0600 
    237 H237       -8.8238  -20.9518  -55.4800 H         1 UNK         0.0600 
    238 H238       -8.3232  -19.6210  -56.5125 H         1 UNK         0.0600 
    239 H239       -7.1090  -20.6430  -55.7581 H         1 UNK         0.0600 
    240 H240       -5.7854  -19.0314  -53.2317 H         1 UNK         0.3000 
    241 H241       -4.4406  -17.1034  -54.8323 H         1 UNK         0.0600 
    242 H242       -4.6846  -13.9444  -53.1858 H         1 UNK         0.3800 
    243 H243       -3.6769  -14.9141  -54.2203 H         1 UNK         0.3800 
    244 H244       -3.1024  -18.6876  -53.6646 H         1 UNK         0.0800 
    245 H245       -2.7405  -17.1592  -52.9352 H         1 UNK         0.0800 
    246 H246       -3.2959  -17.8507  -49.2655 H         1 UNK         0.0800 
    247 H247       -3.2544  -16.5593  -50.4424 H         1 UNK         0.0800 
@<TRIPOS>BOND
     1    1    2 1    
     2    1  127 1    
     3    1  128 1    
     4    1  129 1    
     5    2    3 2    
     6    2    4 am   BACKBONE|DICT|INTERRES
     7    4    5 1    
     8    4  130 1    
     9    5    6 1    
    10    5   65 1    
    11    5  131 1    
    12    6    7 1    
    13    6  132 1    
    14    6  133 1    
    15    7    8 1    
    16    8    9 1    
    17    8  134 1    
    18    8  135 1    
    19    9   10 ar   
    20    9   14 ar   
    21   10   11 ar   
    22   10  136 1    
    23   11   12 ar   
    24   11  126 1    
    25   12   13 ar   
    26   12  137 1    
    27   13   14 ar   
    28   13   15 1    
    29   14  138 1    
    30   15   16 1    
    31   15  139 1    
    32   15  140 1    
    33   16   17 1    
    34   17   18 1    
    35   17  141 1    
    36   17  142 1    
    37   18   19 1    
    38   18   67 1    
    39   18  143 1    
    40   19   20 am   BACKBONE|DICT|INTERRES
    41   19  144 1    
    42   20   21 2    
    43   20   22 1    
    44   22   23 1    
    45   22   24 1    
    46   22  145 1    
    47   23  146 1    
    48   23  147 1    
    49   23  148 1    
    50   24   25 am   BACKBONE|DICT|INTERRES
    51   24  149 1    
    52   25   26 2    
    53   25   27 1    
    54   27   28 1    
    55   27   29 1    
    56   27  150 1    
    57   28  151 1    
    58   28  152 1    
    59   28  153 1    
    60   29   30 am   BACKBONE|DICT|INTERRES
    61   29  154 1    
    62   30   31 2    
    63   30   32 1    
    64   32   33 1    
    65   32   34 1    
    66   32  155 1    
    67   33  156 1    
    68   33  157 1    
    69   33  158 1    
    70   34   35 am   BACKBONE|DICT|INTERRES
    71   34  159 1    
    72   35   36 2    
    73   35   37 1    
    74   37   38 1    
    75   37   39 1    
    76   37  160 1    
    77   38  161 1    
    78   38  162 1    
    79   38  163 1    
    80   39   40 am   BACKBONE|DICT|INTERRES
    81   39  164 1    
    82   40   41 2    
    83   40   42 1    
    84   42   43 1    
    85   42   44 1    
    86   42  165 1    
    87   43  166 1    
    88   43  167 1    
    89   43  168 1    
    90   44   45 am   BACKBONE|DICT|INTERRES
    91   44  169 1    
    92   45   46 2    
    93   45   47 1    
    94   47   48 1    
    95   47   49 1    
    96   47  170 1    
    97   48  171 1    
    98   48  172 1    
    99   48  173 1    
   100   49   50 am   BACKBONE|DICT|INTERRES
   101   49  174 1    
   102   50   51 2    
   103   50   52 1    
   104   52   53 1    
   105   52   54 1    
   106   52  175 1    
   107   53  176 1    
   108   53  177 1    
   109   53  178 1    
   110   54   55 am   BACKBONE|DICT|INTERRES
   111   54  179 1    
   112   55   56 2    
   113   55   57 1    
   114   57   58 1    
   115   57   59 1    
   116   57  180 1    
   117   58  181 1    
   118   58  182 1    
   119   58  183 1    
   120   59   60 am   BACKBONE|DICT|INTERRES
   121   59  184 1    
   122   60   61 2    
   123   60   62 1    
   124   62   63 1    
   125   62   64 1    
   126   62  185 1    
   127   63  186 1    
   128   63  187 1    
   129   63  188 1    
   130   64   65 am   BACKBONE|DICT|INTERRES
   131   64  189 1    
   132   65   66 2    
   133   67   68 2    
   134   67   69 am   BACKBONE|DICT|INTERRES
   135   69   70 1    
   136   69  190 1    
   137   70   71 1    
   138   70   72 1    
   139   70  191 1    
   140   71  192 1    
   141   71  193 1    
   142   71  194 1    
   143   72   73 2    
   144   72   74 am   BACKBONE|DICT|INTERRES
   145   74   75 1    
   146   74  195 1    
   147   75   76 1    
   148   75   77 1    
   149   75  196 1    
   150   76  197 1    
   151   76  198 1    
   152   76  199 1    
   153   77   78 2    
   154   77   79 am   BACKBONE|DICT|INTERRES
   155   79   80 1    
   156   79  200 1    
   157   80   81 1    
   158   80   82 1    
   159   80  201 1    
   160   81  202 1    
   161   81  203 1    
   162   81  204 1    
   163   82   83 2    
   164   82   84 am   BACKBONE|DICT|INTERRES
   165   84   85 1    
   166   84  205 1    
   167   85   86 1    
   168   85   87 1    
   169   85  206 1    
   170   86  207 1    
   171   86  208 1    
   172   86  209 1    
   173   87   88 2    
   174   87   89 am   BACKBONE|DICT|INTERRES
   175   89   90 1    
   176   89  210 1    
   177   90   91 1    
   178   90   92 1    
   179   90  211 1    
   180   91  212 1    
   181   91  213 1    
   182   91  214 1    
   183   92   93 2    
   184   92   94 am   BACKBONE|DICT|INTERRES
   185   94   95 1    
   186   94  215 1    
   187   95   96 1    
   188   95   97 1    
   189   95  216 1    
   190   96  217 1    
   191   96  218 1    
   192   96  219 1    
   193   97   98 2    
   194   97   99 am   BACKBONE|DICT|INTERRES
   195   99  100 1    
   196   99  220 1    
   197  100  101 1    
   198  100  102 1    
   199  100  221 1    
   200  101  222 1    
   201  101  223 1    
   202  101  224 1    
   203  102  103 2    
   204  102  104 am   BACKBONE|DICT|INTERRES
   205  104  105 1    
   206  104  225 1    
   207  105  106 1    
   208  105  107 1    
   209  105  226 1    
   210  106  227 1    
   211  106  228 1    
   212  106  229 1    
   213  107  108 2    
   214  107  109 am   BACKBONE|DICT|INTERRES
   215  109  110 1    
   216  109  230 1    
   217  110  111 1    
   218  110  112 1    
   219  110  231 1    
   220  111  232 1    
   221  111  233 1    
   222  111  234 1    
   223  112  113 2    
   224  112  114 am   BACKBONE|DICT|INTERRES
   225  114  115 1    
   226  114  235 1    
   227  115  116 1    
   228  115  117 1    
   229  115  236 1    
   230  116  237 1    
   231  116  238 1    
   232  116  239 1    
   233  117  118 2    
   234  117  119 am   BACKBONE|DICT|INTERRES
   235  119  120 1    
   236  119  240 1    
   237  120  121 1    
   238  120  124 1    
   239  120  241 1    
   240  121  122 am   BACKBONE|DICT|INTERRES
   241  121  123 2    
   242  122  242 1    
   243  122  243 1    
   244  124  125 1    
   245  124  244 1    
   246  124  245 1    
   247  125  126 1    
   248  126  246 1    
   249  126  247 1    
@<TRIPOS>SUBSTRUCTURE
     1 UNK         1 GROUP             0       ****    0 ROOT    
