@<TRIPOS>MOLECULE
3R540
247   249    1
SMALL
USER_CHARGES


@<TRIPOS>ATOM
      1 CA          3.1655  -11.7523  -46.0628 C.3       0 UNK        -0.1800 
      2 C           2.5131  -12.5620  -47.1741 C.2       0 UNK         0.5000 
      3 O           1.4990  -12.1388  -47.7289 O.2       0 UNK        -0.5000 
      4 N           3.0910  -13.7263  -47.4964 N.am      1 UNK        -0.5000 
      5 CA          2.6696  -14.6745  -48.5342 C.3       1 UNK         0.1400 
      6 C6          2.6803  -14.0695  -49.9678 C.3       23 UNK        -0.0398 
      7 S7          2.9321  -15.3284  -51.2669 S.3       23 UNK        -0.2404 
      8 C8          1.2468  -15.5421  -51.9271 C.3       23 UNK        -0.0205 
      9 C9          0.9162  -17.0137  -52.1231 C.ar      23 UNK        -0.0193 
     10 C10         0.8113  -17.5666  -53.4022 C.ar      23 UNK        -0.1150 
     11 C11         0.4772  -18.9188  -53.5723 C.ar      23 UNK        -0.0193 
     12 C12         0.3009  -19.7235  -52.4398 C.ar      23 UNK        -0.1150 
     13 C13         0.4268  -19.1844  -51.1567 C.ar      23 UNK        -0.0193 
     14 C14         0.7096  -17.8282  -51.0103 C.ar      23 UNK        -0.1150 
     15 C15         0.2627  -20.0474  -49.9177 C.3       23 UNK        -0.0205 
     16 S16         1.8803  -20.5710  -49.2588 S.3       23 UNK        -0.2404 
     17 C17         1.6281  -20.4174  -47.4547 C.3       23 UNK        -0.0398 
     18 CA          1.0488  -21.7012  -46.8097 C.3       11 UNK         0.1400 
     19 N           1.2963  -21.7665  -45.3655 N.am      11 UNK        -0.5000 
     20 C           0.9953  -22.8157  -44.5835 C.2       10 UNK         0.5000 
     21 O           0.5320  -23.8744  -45.0053 O.2       10 UNK        -0.5000 
     22 CA          1.1711  -22.6283  -43.0650 C.3       10 UNK         0.1400 
     23 CB          2.6411  -22.7811  -42.6475 C.3       10 UNK        -0.1800 
     24 N           0.6516  -21.3406  -42.6043 N.am      10 UNK        -0.5000 
     25 C          -0.6318  -20.9643  -42.7079 C.2       9 UNK         0.5000 
     26 O          -1.5290  -21.6876  -43.1388 O.2       9 UNK        -0.5000 
     27 CA         -0.9535  -19.5132  -42.3221 C.3       9 UNK         0.1400 
     28 CB         -1.1229  -19.3836  -40.8003 C.3       9 UNK        -0.1800 
     29 N           0.0757  -18.5930  -42.8159 N.am      9 UNK        -0.5000 
     30 C           0.2491  -18.2991  -44.1146 C.2       8 UNK         0.5000 
     31 O          -0.5086  -18.6846  -45.0031 O.2       8 UNK        -0.5000 
     32 CA          1.4905  -17.4756  -44.4984 C.3       8 UNK         0.1400 
     33 CB          1.1646  -15.9779  -44.5675 C.3       8 UNK        -0.1800 
     34 N           2.6114  -17.7038  -43.5894 N.am      8 UNK        -0.5000 
     35 C           3.3554  -18.8190  -43.6074 C.2       7 UNK         0.5000 
     36 O           3.1790  -19.7347  -44.4111 O.2       7 UNK        -0.5000 
     37 CA          4.4445  -18.9625  -42.5269 C.3       7 UNK         0.1400 
     38 CB          5.7849  -18.4179  -43.0411 C.3       7 UNK        -0.1800 
     39 N           4.1082  -18.3011  -41.2644 N.am      7 UNK        -0.5000 
     40 C           3.0616  -18.6143  -40.4889 C.2       6 UNK         0.5000 
     41 O           2.2710  -19.5199  -40.7600 O.2       6 UNK        -0.5000 
     42 CA          2.8230  -17.7530  -39.2274 C.3       6 UNK         0.1400 
     43 CB          3.9589  -16.7487  -38.9277 C.3       6 UNK        -0.1800 
     44 N           1.5339  -17.0492  -39.2664 N.am      6 UNK        -0.5000 
     45 C           1.0886  -16.2463  -40.2428 C.2       5 UNK         0.5000 
     46 O           1.7126  -16.0113  -41.2803 O.2       5 UNK        -0.5000 
     47 CA         -0.2860  -15.5970  -40.0361 C.3       5 UNK         0.1400 
     48 CB         -0.1421  -14.1557  -39.5234 C.3       5 UNK        -0.1800 
     49 N          -0.9828  -15.5911  -41.3182 N.am      5 UNK        -0.5000 
     50 C          -2.2854  -15.8392  -41.4954 C.2       4 UNK         0.5000 
     51 O          -3.0782  -16.0056  -40.5671 O.2       4 UNK        -0.5000 
     52 CA         -2.7653  -15.9580  -42.9581 C.3       4 UNK         0.1400 
     53 CB         -4.3014  -15.9325  -43.1000 C.3       4 UNK        -0.1800 
     54 N          -2.1405  -14.9872  -43.8627 N.am      4 UNK        -0.5000 
     55 C          -2.2450  -13.6499  -43.8212 C.2       3 UNK         0.5000 
     56 O          -2.8620  -13.0367  -42.9498 O.2       3 UNK        -0.5000 
     57 CA         -1.5400  -12.8511  -44.9410 C.3       3 UNK         0.1400 
     58 CB         -0.3376  -12.0828  -44.3710 C.3       3 UNK        -0.1800 
     59 N          -1.0782  -13.6564  -46.0778 N.am      3 UNK        -0.5000 
     60 C          -1.8584  -14.3025  -46.9565 C.2       2 UNK         0.5000 
     61 O          -3.0881  -14.2809  -46.9105 O.2       2 UNK        -0.5000 
     62 CA         -1.1418  -15.1260  -48.0457 C.3       2 UNK         0.1400 
     63 CB         -1.9055  -15.1285  -49.3818 C.3       2 UNK        -0.1800 
     64 N           0.2228  -14.6457  -48.2771 N.am      2 UNK        -0.5000 
     65 C           1.3412  -15.3733  -48.1727 C.2       1 UNK         0.5000 
     66 O           1.3606  -16.5423  -47.7902 O.2       1 UNK        -0.5000 
     67 C          -0.4487  -21.8592  -47.1382 C.2       11 UNK         0.5000 
     68 O          -0.7974  -22.6911  -47.9756 O.2       11 UNK        -0.5000 
     69 N          -1.3063  -21.0804  -46.4611 N.am      12 UNK        -0.5000 
     70 CA         -2.7596  -21.1130  -46.6256 C.3       12 UNK         0.1400 
     71 CB         -3.4099  -20.0201  -45.7645 C.3       12 UNK        -0.1800 
     72 C          -3.3727  -22.4900  -46.3245 C.2       12 UNK         0.5000 
     73 O          -4.2134  -22.9520  -47.0957 O.2       12 UNK        -0.5000 
     74 N          -2.9078  -23.1320  -45.2447 N.am      13 UNK        -0.5000 
     75 CA         -3.2941  -24.4850  -44.8497 C.3       13 UNK         0.1400 
     76 CB         -2.7608  -24.7773  -43.4389 C.3       13 UNK        -0.1800 
     77 C          -2.8195  -25.5592  -45.8453 C.2       13 UNK         0.5000 
     78 O          -3.5956  -26.4559  -46.1759 O.2       13 UNK        -0.5000 
     79 N          -1.5670  -25.4475  -46.3114 N.am      14 UNK        -0.5000 
     80 CA         -0.9533  -26.3689  -47.2698 C.3       14 UNK         0.1400 
     81 CB          0.5579  -26.1034  -47.3499 C.3       14 UNK        -0.1800 
     82 C          -1.5917  -26.2915  -48.6672 C.2       14 UNK         0.5000 
     83 O          -1.8654  -27.3310  -49.2687 O.2       14 UNK        -0.5000 
     84 N          -1.8264  -25.0651  -49.1521 N.am      15 UNK        -0.5000 
     85 CA         -2.4769  -24.7960  -50.4346 C.3       15 UNK         0.1400 
     86 CB         -2.1852  -23.3446  -50.8470 C.3       15 UNK        -0.1800 
     87 C          -3.9951  -25.0542  -50.4022 C.2       15 UNK         0.5000 
     88 O          -4.5735  -25.3582  -51.4454 O.2       15 UNK        -0.5000 
     89 N          -4.6051  -24.9080  -49.2147 N.am      16 UNK        -0.5000 
     90 CA         -6.0401  -25.0136  -48.9208 C.3       16 UNK         0.1400 
     91 CB         -6.5320  -26.4628  -49.1137 C.3       16 UNK        -0.1800 
     92 C          -6.8802  -23.9757  -49.6975 C.2       16 UNK         0.5000 
     93 O          -8.0054  -24.2682  -50.1067 O.2       16 UNK        -0.5000 
     94 N          -6.2988  -22.7855  -49.8976 N.am      17 UNK        -0.5000 
     95 CA         -6.8058  -21.7014  -50.7447 C.3       17 UNK         0.1400 
     96 CB         -6.9271  -22.1679  -52.2116 C.3       17 UNK        -0.1800 
     97 C          -5.9060  -20.4539  -50.6770 C.2       17 UNK         0.5000 
     98 O          -6.3810  -19.3582  -50.9757 O.2       17 UNK        -0.5000 
     99 N          -4.6277  -20.6337  -50.3051 N.am      18 UNK        -0.5000 
    100 CA        -3.5723  -19.6146  -50.2929 C.3       18 UNK         0.1400 
    101 CB        -3.8768  -18.4962  -49.2697 C.3       18 UNK        -0.1800 
    102 C         -3.2822  -19.1149  -51.7225 C.2       18 UNK         0.5000 
    103 O         -3.1232  -19.9460  -52.6170 O.2       18 UNK        -0.5000 
    104 N         -3.2389  -17.7915  -51.9310 N.am      19 UNK        -0.5000 
    105 CA        -2.9615  -17.1542  -53.2229 C.3       19 UNK         0.1400 
    106 CB        -2.8687  -15.6333  -53.0336 C.3       19 UNK        -0.1800 
    107 C         -3.9642  -17.5056  -54.3393 C.2       19 UNK         0.5000 
    108 O         -3.6011  -17.4549  -55.5140 O.2       19 UNK        -0.5000 
    109 N         -5.1880  -17.9133  -53.9739 N.am      20 UNK        -0.5000 
    110 CA        -6.2029  -18.4026  -54.9102 C.3       20 UNK         0.1400 
    111 CB        -7.5630  -18.4718  -54.1998 C.3       20 UNK        -0.1800 
    112 C         -5.8411  -19.7483  -55.5792 C.2       20 UNK         0.5000 
    113 O         -6.4683  -20.1019  -56.5783 O.2       20 UNK        -0.5000 
    114 N         -4.8294  -20.4608  -55.0567 N.am      21 UNK        -0.5000 
    115 CA        -4.2609  -21.6593  -55.6768 C.3       21 UNK         0.1400 
    116 CB        -3.4431  -22.4363  -54.6331 C.3       21 UNK        -0.1800 
    117 C         -3.3826  -21.3530  -56.9079 C.2       21 UNK         0.5000 
    118 O         -3.1537  -22.2612  -57.7083 O.2       21 UNK        -0.5000 
    119 N         -2.8968  -20.1105  -57.0382 N.am      22 UNK        -0.5000 
    120 CA        -2.0067  -19.6655  -58.1242 C.3       22 UNK         0.1400 
    121 C         -2.4957  -18.3940  -58.8734 C.2       22 UNK         0.5000 
    122 N         -3.3270  -17.5419  -58.2880 N.am      22 UNK        -0.7600 
    123 O         -2.1321  -18.1889  -60.0286 O.2       22 UNK        -0.5000 
    124 C124       -0.5342  -19.5342  -57.6532 C.3       23 UNK        -0.0398 
    125 S125       -0.3071  -18.4025  -56.2343 S.3       23 UNK        -0.2404 
    126 C126        0.3209  -19.5461  -54.9574 C.3       23 UNK        -0.0205 
    127 H127        2.5500  -11.7767  -45.1645 H         1 UNK         0.0600 
    128 H128        3.2785  -10.7132  -46.3721 H         1 UNK         0.0600 
    129 H129        4.1530  -12.1380  -45.8087 H         1 UNK         0.0600 
    130 H130        3.9092  -14.0131  -46.9770 H         1 UNK         0.3000 
    131 H131        3.4357  -15.4517  -48.5081 H         1 UNK         0.0600 
    132 H132        3.5172  -13.3755  -50.0563 H         1 UNK         0.0800 
    133 H133        1.7925  -13.4702  -50.1740 H         1 UNK         0.0800 
    134 H134        1.1607  -14.9956  -52.8674 H         1 UNK         0.0800 
    135 H135        0.5116  -15.1044  -51.2523 H         1 UNK         0.0800 
    136 H136        0.9773  -16.9358  -54.2634 H         1 UNK         0.1150 
    137 H137        0.0637  -20.7718  -52.5562 H         1 UNK         0.1150 
    138 H138        0.7948  -17.4131  -50.0208 H         1 UNK         0.1150 
    139 H139       -0.2936  -19.4874  -49.1645 H         1 UNK         0.0800 
    140 H140       -0.3306  -20.9334  -50.1462 H         1 UNK         0.0800 
    141 H141        1.0262  -19.5355  -47.2277 H         1 UNK         0.0800 
    142 H142        2.6113  -20.2121  -47.0296 H         1 UNK         0.0800 
    143 H143        1.5676  -22.5589  -47.2436 H         1 UNK         0.0600 
    144 H144        1.7393  -20.9570  -44.9419 H         1 UNK         0.3000 
    145 H145        0.5966  -23.4115  -42.5661 H         1 UNK         0.0600 
    146 H146        2.7586  -22.6709  -41.5693 H         1 UNK         0.0600 
    147 H147        3.0194  -23.7677  -42.9177 H         1 UNK         0.0600 
    148 H148        3.2810  -22.0440  -43.1307 H         1 UNK         0.0600 
    149 H149        1.3146  -20.6959  -42.1885 H         1 UNK         0.3000 
    150 H150       -1.9047  -19.2484  -42.7875 H         1 UNK         0.0600 
    151 H151       -1.9283  -20.0293  -40.4482 H         1 UNK         0.0600 
    152 H152       -1.3793  -18.3686  -40.5080 H         1 UNK         0.0600 
    153 H153       -0.2231  -19.6695  -40.2578 H         1 UNK         0.0600 
    154 H154        0.7806  -18.2969  -42.1548 H         1 UNK         0.3000 
    155 H155        1.7934  -17.7933  -45.4979 H         1 UNK         0.0600 
    156 H156        0.8263  -15.5778  -43.6145 H         1 UNK         0.0600 
    157 H157        0.3742  -15.8051  -45.2944 H         1 UNK         0.0600 
    158 H158        2.0317  -15.3998  -44.8871 H         1 UNK         0.0600 
    159 H159        2.7589  -17.0143  -42.8608 H         1 UNK         0.3000 
    160 H160        4.5648  -20.0281  -42.3219 H         1 UNK         0.0600 
    161 H161        5.7351  -17.3462  -43.2382 H         1 UNK         0.0600 
    162 H162        6.0754  -18.9097  -43.9706 H         1 UNK         0.0600 
    163 H163        6.5842  -18.5910  -42.3203 H         1 UNK         0.0600 
    164 H164        4.6956  -17.5279  -40.9881 H         1 UNK         0.3000 
    165 H165        2.7715  -18.4528  -38.3921 H         1 UNK         0.0600 
    166 H166        3.7737  -16.2250  -37.9897 H         1 UNK         0.0600 
    167 H167        4.9193  -17.2551  -38.8229 H         1 UNK         0.0600 
    168 H168        4.0588  -15.9933  -39.7082 H         1 UNK         0.0600 
    169 H169        0.9373  -17.2067  -38.4663 H         1 UNK         0.3000 
    170 H170       -0.8440  -16.1854  -39.3047 H         1 UNK         0.0600 
    171 H171        0.3839  -14.1306  -38.5683 H         1 UNK         0.0600 
    172 H172        0.4160  -13.5338  -40.2247 H         1 UNK         0.0600 
    173 H173       -1.1178  -13.6939  -39.3713 H         1 UNK         0.0600 
    174 H174       -0.3807  -15.4811  -42.1215 H         1 UNK         0.3000 
    175 H175       -2.4333  -16.9379  -43.3009 H         1 UNK         0.0600 
    176 H176       -4.7288  -15.0031  -42.7227 H         1 UNK         0.0600 
    177 H177       -4.6019  -16.0412  -44.1422 H         1 UNK         0.0600 
    178 H178       -4.7594  -16.7518  -42.5447 H         1 UNK         0.0600 
    179 H179       -1.6263  -15.3796  -44.6359 H         1 UNK         0.3000 
    180 H180       -2.2626  -12.1245  -45.3179 H         1 UNK         0.0600 
    181 H181        0.4401  -12.7594  -44.0145 H         1 UNK         0.0600 
    182 H182       -0.6340  -11.4525  -43.5315 H         1 UNK         0.0600 
    183 H183        0.1006  -11.4276  -45.1241 H         1 UNK         0.0600 
    184 H184       -0.0798  -13.6965  -46.2192 H         1 UNK         0.3000 
    185 H185       -1.1230  -16.1524  -47.6732 H         1 UNK         0.0600 
    186 H186       -2.9456  -15.4282  -49.2508 H         1 UNK         0.0600 
    187 H187       -1.9042  -14.1425  -49.8476 H         1 UNK         0.0600 
    188 H188       -1.4564  -15.8337  -50.0800 H         1 UNK         0.0600 
    189 H189        0.3226  -13.6562  -48.4818 H         1 UNK         0.3000 
    190 H190       -0.9453  -20.3912  -45.8077 H         1 UNK         0.3000 
    191 H191       -2.9693  -20.8916  -47.6719 H         1 UNK         0.0600 
    192 H192       -3.2108  -20.1707  -44.7037 H         1 UNK         0.0600 
    193 H193       -4.4925  -20.0110  -45.8970 H         1 UNK         0.0600 
    194 H194       -3.0414  -19.0308  -46.0363 H         1 UNK         0.0600 
    195 H195       -2.2461  -22.6536  -44.6389 H         1 UNK         0.3000 
    196 H196       -4.3849  -24.5240  -44.8142 H         1 UNK         0.0600 
    197 H197       -3.0454  -25.7780  -43.1118 H         1 UNK         0.0600 
    198 H198       -3.1623  -24.0704  -42.7126 H         1 UNK         0.0600 
    199 H199       -1.6727  -24.7137  -43.3987 H         1 UNK         0.0600 
    200 H200       -0.9732  -24.7023  -45.9586 H         1 UNK         0.3000 
    201 H201       -1.0965  -27.3850  -46.8962 H         1 UNK         0.0600 
    202 H202        1.0360  -26.2582  -46.3825 H         1 UNK         0.0600 
    203 H203        0.7713  -25.0824  -47.6685 H         1 UNK         0.0600 
    204 H204        1.0374  -26.7776  -48.0606 H         1 UNK         0.0600 
    205 H205       -1.5233  -24.2550  -48.6140 H         1 UNK         0.3000 
    206 H206       -2.0457  -25.4565  -51.1899 H         1 UNK         0.0600 
    207 H207       -1.1158  -23.1854  -50.9860 H         1 UNK         0.0600 
    208 H208       -2.6751  -23.0920  -51.7874 H         1 UNK         0.0600 
    209 H209       -2.5300  -22.6387  -50.0924 H         1 UNK         0.0600 
    210 H210       -4.0390  -24.6103  -48.4291 H         1 UNK         0.3000 
    211 H211       -6.1544  -24.7678  -47.8642 H         1 UNK         0.0600 
    212 H212       -6.5080  -26.7639  -50.1613 H         1 UNK         0.0600 
    213 H213       -7.5585  -26.5773  -48.7638 H         1 UNK         0.0600 
    214 H214       -5.9172  -27.1636  -48.5485 H         1 UNK         0.0600 
    215 H215       -5.4356  -22.6094  -49.4051 H         1 UNK         0.3000 
    216 H216       -7.7925  -21.4111  -50.3790 H         1 UNK         0.0600 
    217 H217       -7.1547  -21.3399  -52.8814 H         1 UNK         0.0600 
    218 H218       -7.7249  -22.8990  -52.3376 H         1 UNK         0.0600 
    219 H219       -6.0017  -22.6248  -52.5599 H         1 UNK         0.0600 
    220 H220       -4.3019  -21.5788  -50.1896 H         1 UNK         0.3000 
    221 H221       -2.6666  -20.1226  -49.9634 H         1 UNK         0.0600 
    222 H222       -4.6767  -17.8332  -49.6009 H         1 UNK         0.0600 
    223 H223       -4.1857  -18.9124  -48.3124 H         1 UNK         0.0600 
    224 H224       -2.9909  -17.8894  -49.0825 H         1 UNK         0.0600 
    225 H225       -3.4111  -17.1737  -51.1526 H         1 UNK         0.3000 
    226 H226       -1.9888  -17.5117  -53.5606 H         1 UNK         0.0600 
    227 H227       -2.0412  -15.3685  -52.3765 H         1 UNK         0.0600 
    228 H228       -2.6918  -15.1309  -53.9857 H         1 UNK         0.0600 
    229 H229       -3.7855  -15.2225  -52.6095 H         1 UNK         0.0600 
    230 H230       -5.4123  -17.9658  -52.9896 H         1 UNK         0.3000 
    231 H231       -6.2908  -17.6699  -55.7152 H         1 UNK         0.0600 
    232 H232       -7.8680  -17.4889  -53.8404 H         1 UNK         0.0600 
    233 H233       -7.5410  -19.1447  -53.3452 H         1 UNK         0.0600 
    234 H234       -8.3424  -18.8249  -54.8761 H         1 UNK         0.0600 
    235 H235       -4.3537  -20.1198  -54.2271 H         1 UNK         0.3000 
    236 H236       -5.0825  -22.2991  -56.0056 H         1 UNK         0.0600 
    237 H237       -3.0957  -23.3869  -55.0392 H         1 UNK         0.0600 
    238 H238       -2.5621  -21.8783  -54.3145 H         1 UNK         0.0600 
    239 H239       -4.0366  -22.6609  -53.7488 H         1 UNK         0.0600 
    240 H240       -3.1339  -19.4090  -56.3488 H         1 UNK         0.3000 
    241 H241       -2.0054  -20.4320  -58.9014 H         1 UNK         0.0600 
    242 H242       -3.6386  -16.7346  -58.8033 H         1 UNK         0.3800 
    243 H243       -3.5302  -17.6029  -57.2925 H         1 UNK         0.3800 
    244 H244        0.1012  -19.1919  -58.4718 H         1 UNK         0.0800 
    245 H245       -0.1556  -20.5223  -57.3894 H         1 UNK         0.0800 
    246 H246       -0.3638  -20.3940  -54.8971 H         1 UNK         0.0800 
    247 H247        1.2870  -19.9406  -55.2740 H         1 UNK         0.0800 
@<TRIPOS>BOND
     1    1    2 1    
     2    1  127 1    
     3    1  128 1    
     4    1  129 1    
     5    2    3 2    
     6    2    4 am   BACKBONE|DICT|INTERRES
     7    4    5 1    
     8    4  130 1    
     9    5    6 1    
    10    5   65 1    
    11    5  131 1    
    12    6    7 1    
    13    6  132 1    
    14    6  133 1    
    15    7    8 1    
    16    8    9 1    
    17    8  134 1    
    18    8  135 1    
    19    9   10 ar   
    20    9   14 ar   
    21   10   11 ar   
    22   10  136 1    
    23   11   12 ar   
    24   11  126 1    
    25   12   13 ar   
    26   12  137 1    
    27   13   14 ar   
    28   13   15 1    
    29   14  138 1    
    30   15   16 1    
    31   15  139 1    
    32   15  140 1    
    33   16   17 1    
    34   17   18 1    
    35   17  141 1    
    36   17  142 1    
    37   18   19 1    
    38   18   67 1    
    39   18  143 1    
    40   19   20 am   BACKBONE|DICT|INTERRES
    41   19  144 1    
    42   20   21 2    
    43   20   22 1    
    44   22   23 1    
    45   22   24 1    
    46   22  145 1    
    47   23  146 1    
    48   23  147 1    
    49   23  148 1    
    50   24   25 am   BACKBONE|DICT|INTERRES
    51   24  149 1    
    52   25   26 2    
    53   25   27 1    
    54   27   28 1    
    55   27   29 1    
    56   27  150 1    
    57   28  151 1    
    58   28  152 1    
    59   28  153 1    
    60   29   30 am   BACKBONE|DICT|INTERRES
    61   29  154 1    
    62   30   31 2    
    63   30   32 1    
    64   32   33 1    
    65   32   34 1    
    66   32  155 1    
    67   33  156 1    
    68   33  157 1    
    69   33  158 1    
    70   34   35 am   BACKBONE|DICT|INTERRES
    71   34  159 1    
    72   35   36 2    
    73   35   37 1    
    74   37   38 1    
    75   37   39 1    
    76   37  160 1    
    77   38  161 1    
    78   38  162 1    
    79   38  163 1    
    80   39   40 am   BACKBONE|DICT|INTERRES
    81   39  164 1    
    82   40   41 2    
    83   40   42 1    
    84   42   43 1    
    85   42   44 1    
    86   42  165 1    
    87   43  166 1    
    88   43  167 1    
    89   43  168 1    
    90   44   45 am   BACKBONE|DICT|INTERRES
    91   44  169 1    
    92   45   46 2    
    93   45   47 1    
    94   47   48 1    
    95   47   49 1    
    96   47  170 1    
    97   48  171 1    
    98   48  172 1    
    99   48  173 1    
   100   49   50 am   BACKBONE|DICT|INTERRES
   101   49  174 1    
   102   50   51 2    
   103   50   52 1    
   104   52   53 1    
   105   52   54 1    
   106   52  175 1    
   107   53  176 1    
   108   53  177 1    
   109   53  178 1    
   110   54   55 am   BACKBONE|DICT|INTERRES
   111   54  179 1    
   112   55   56 2    
   113   55   57 1    
   114   57   58 1    
   115   57   59 1    
   116   57  180 1    
   117   58  181 1    
   118   58  182 1    
   119   58  183 1    
   120   59   60 am   BACKBONE|DICT|INTERRES
   121   59  184 1    
   122   60   61 2    
   123   60   62 1    
   124   62   63 1    
   125   62   64 1    
   126   62  185 1    
   127   63  186 1    
   128   63  187 1    
   129   63  188 1    
   130   64   65 am   BACKBONE|DICT|INTERRES
   131   64  189 1    
   132   65   66 2    
   133   67   68 2    
   134   67   69 am   BACKBONE|DICT|INTERRES
   135   69   70 1    
   136   69  190 1    
   137   70   71 1    
   138   70   72 1    
   139   70  191 1    
   140   71  192 1    
   141   71  193 1    
   142   71  194 1    
   143   72   73 2    
   144   72   74 am   BACKBONE|DICT|INTERRES
   145   74   75 1    
   146   74  195 1    
   147   75   76 1    
   148   75   77 1    
   149   75  196 1    
   150   76  197 1    
   151   76  198 1    
   152   76  199 1    
   153   77   78 2    
   154   77   79 am   BACKBONE|DICT|INTERRES
   155   79   80 1    
   156   79  200 1    
   157   80   81 1    
   158   80   82 1    
   159   80  201 1    
   160   81  202 1    
   161   81  203 1    
   162   81  204 1    
   163   82   83 2    
   164   82   84 am   BACKBONE|DICT|INTERRES
   165   84   85 1    
   166   84  205 1    
   167   85   86 1    
   168   85   87 1    
   169   85  206 1    
   170   86  207 1    
   171   86  208 1    
   172   86  209 1    
   173   87   88 2    
   174   87   89 am   BACKBONE|DICT|INTERRES
   175   89   90 1    
   176   89  210 1    
   177   90   91 1    
   178   90   92 1    
   179   90  211 1    
   180   91  212 1    
   181   91  213 1    
   182   91  214 1    
   183   92   93 2    
   184   92   94 am   BACKBONE|DICT|INTERRES
   185   94   95 1    
   186   94  215 1    
   187   95   96 1    
   188   95   97 1    
   189   95  216 1    
   190   96  217 1    
   191   96  218 1    
   192   96  219 1    
   193   97   98 2    
   194   97   99 am   BACKBONE|DICT|INTERRES
   195   99  100 1    
   196   99  220 1    
   197  100  101 1    
   198  100  102 1    
   199  100  221 1    
   200  101  222 1    
   201  101  223 1    
   202  101  224 1    
   203  102  103 2    
   204  102  104 am   BACKBONE|DICT|INTERRES
   205  104  105 1    
   206  104  225 1    
   207  105  106 1    
   208  105  107 1    
   209  105  226 1    
   210  106  227 1    
   211  106  228 1    
   212  106  229 1    
   213  107  108 2    
   214  107  109 am   BACKBONE|DICT|INTERRES
   215  109  110 1    
   216  109  230 1    
   217  110  111 1    
   218  110  112 1    
   219  110  231 1    
   220  111  232 1    
   221  111  233 1    
   222  111  234 1    
   223  112  113 2    
   224  112  114 am   BACKBONE|DICT|INTERRES
   225  114  115 1    
   226  114  235 1    
   227  115  116 1    
   228  115  117 1    
   229  115  236 1    
   230  116  237 1    
   231  116  238 1    
   232  116  239 1    
   233  117  118 2    
   234  117  119 am   BACKBONE|DICT|INTERRES
   235  119  120 1    
   236  119  240 1    
   237  120  121 1    
   238  120  124 1    
   239  120  241 1    
   240  121  122 am   BACKBONE|DICT|INTERRES
   241  121  123 2    
   242  122  242 1    
   243  122  243 1    
   244  124  125 1    
   245  124  244 1    
   246  124  245 1    
   247  125  126 1    
   248  126  246 1    
   249  126  247 1    
@<TRIPOS>SUBSTRUCTURE
     1 UNK         1 GROUP             0       ****    0 ROOT    
