@<TRIPOS>MOLECULE
3R540
247   249    1
SMALL
USER_CHARGES


@<TRIPOS>ATOM
      1 CA         -1.5291  -11.7937  -42.8392 C.3       0 UNK        -0.1800 
      2 C          -1.4417  -11.6717  -44.3538 C.2       0 UNK         0.5000 
      3 O          -0.9137  -10.6825  -44.8626 O.2       0 UNK        -0.5000 
      4 N          -1.9550  -12.6724  -45.0799 N.am      1 UNK        -0.5000 
      5 CA         -1.8198  -12.8009  -46.5333 C.3       1 UNK         0.1400 
      6 C6         -2.8116  -13.8453  -47.1018 C.3       23 UNK        -0.0398 
      7 S7         -3.3331  -13.4505  -48.8051 S.3       23 UNK        -0.2404 
      8 C8         -3.2694  -15.0802  -49.6109 C.3       23 UNK        -0.0205 
      9 C9         -1.8847  -15.3846  -50.1577 C.ar      23 UNK        -0.0193 
     10 C10        -1.5586  -15.0382  -51.4711 C.ar      23 UNK        -0.1150 
     11 C11        -0.2971  -15.3357  -51.9956 C.ar      23 UNK        -0.0193 
     12 C12         0.6456  -15.9821  -51.1901 C.ar      23 UNK        -0.1150 
     13 C13         0.3321  -16.3259  -49.8711 C.ar      23 UNK        -0.0193 
     14 C14        -0.9327  -16.0222  -49.3611 C.ar      23 UNK        -0.1150 
     15 C15         1.3609  -17.0099  -48.9850 C.3       23 UNK        -0.0205 
     16 S16         1.3318  -18.8180  -49.1806 S.3       23 UNK        -0.2404 
     17 C17        -0.3499  -19.2170  -48.5896 C.3       23 UNK        -0.0398 
     18 CA         -0.4689  -20.6750  -48.0953 C.3       11 UNK         0.1400 
     19 N           0.2993  -20.8937  -46.8683 N.am      11 UNK        -0.5000 
     20 C           0.6585  -22.0927  -46.3972 C.2       10 UNK         0.5000 
     21 O           0.3948  -23.1545  -46.9596 O.2       10 UNK        -0.5000 
     22 CA          1.4206  -22.1112  -45.0595 C.3       10 UNK         0.1400 
     23 CB          2.9137  -21.8243  -45.2785 C.3       10 UNK        -0.1800 
     24 N           0.8765  -21.1696  -44.0789 N.am      10 UNK        -0.5000 
     25 C          -0.3459  -21.2675  -43.5366 C.2       9 UNK         0.5000 
     26 O          -1.1391  -22.1717  -43.7991 O.2       9 UNK        -0.5000 
     27 CA         -0.7677  -20.1565  -42.5576 C.3       9 UNK         0.1400 
     28 CB         -0.1379  -20.3819  -41.1749 C.3       9 UNK        -0.1800 
     29 N          -0.4338  -18.8143  -43.0327 N.am      9 UNK        -0.5000 
     30 C          -0.9282  -18.2519  -44.1449 C.2       8 UNK         0.5000 
     31 O          -1.7393  -18.7984  -44.8898 O.2       8 UNK        -0.5000 
     32 CA         -0.3741  -16.8680  -44.5243 C.3       8 UNK         0.1400 
     33 CB         -0.9762  -15.7765  -43.6255 C.3       8 UNK        -0.1800 
     34 N           1.0866  -16.8133  -44.4640 N.am      8 UNK        -0.5000 
     35 C           1.9107  -17.6317  -45.1346 C.2       7 UNK         0.5000 
     36 O           1.5308  -18.5279  -45.8840 O.2       7 UNK        -0.5000 
     37 CA          3.4132  -17.4698  -44.8695 C.3       7 UNK         0.1400 
     38 CB          3.9773  -16.2547  -45.6223 C.3       7 UNK        -0.1800 
     39 N           3.6880  -17.3643  -43.4366 N.am      7 UNK        -0.5000 
     40 C           3.5064  -18.3673  -42.5629 C.2       6 UNK         0.5000 
     41 O           3.1517  -19.5020  -42.8835 O.2       6 UNK        -0.5000 
     42 CA          3.7097  -18.0310  -41.0749 C.3       6 UNK         0.1400 
     43 CB          5.1997  -18.0771  -40.7048 C.3       6 UNK        -0.1800 
     44 N           3.1604  -16.7218  -40.7218 N.am      6 UNK        -0.5000 
     45 C           1.8549  -16.4161  -40.7425 C.2       5 UNK         0.5000 
     46 O           0.9670  -17.2262  -41.0066 O.2       5 UNK        -0.5000 
     47 CA          1.4865  -14.9463  -40.4652 C.3       5 UNK         0.1400 
     48 CB          1.2798  -14.7144  -38.9614 C.3       5 UNK        -0.1800 
     49 N           2.4864  -14.0012  -40.9714 N.am      5 UNK        -0.5000 
     50 C           2.7700  -13.8282  -42.2687 C.2       4 UNK         0.5000 
     51 O           2.2212  -14.4552  -43.1761 O.2       4 UNK        -0.5000 
     52 CA          3.8931  -12.8345  -42.6024 C.3       4 UNK         0.1400 
     53 CB          5.1793  -13.5763  -42.9958 C.3       4 UNK        -0.1800 
     54 N           3.4993  -11.9437  -43.6895 N.am      4 UNK        -0.5000 
     55 C           2.6737  -10.9024  -43.5482 C.2       3 UNK         0.5000 
     56 O           2.1652  -10.5803  -42.4733 O.2       3 UNK        -0.5000 
     57 CA          2.3804  -10.0587  -44.8009 C.3       3 UNK         0.1400 
     58 CB          3.5840   -9.1731  -45.1782 C.3       3 UNK        -0.1800 
     59 N           1.8839  -10.8175  -45.9540 N.am      3 UNK        -0.5000 
     60 C           2.5179  -11.7004  -46.7403 C.2       2 UNK         0.5000 
     61 O           3.6755  -12.0791  -46.5510 O.2       2 UNK        -0.5000 
     62 CA          1.7200  -12.2086  -47.9643 C.3       2 UNK         0.1400 
     63 CB          2.2758  -13.5205  -48.5561 C.3       2 UNK        -0.1800 
     64 N           0.2729  -12.2787  -47.7113 N.am      2 UNK        -0.5000 
     65 C          -0.3492  -13.1230  -46.8762 C.2       1 UNK         0.5000 
     66 O           0.1937  -14.0856  -46.3344 O.2       1 UNK        -0.5000 
     67 C          -1.9497  -21.0844  -47.9402 C.2       11 UNK         0.5000 
     68 O          -2.5499  -21.5269  -48.9184 O.2       11 UNK        -0.5000 
     69 N          -2.5174  -20.9351  -46.7332 N.am      12 UNK        -0.5000 
     70 CA         -3.8944  -21.3182  -46.4076 C.3       12 UNK         0.1400 
     71 CB         -4.3355  -20.6050  -45.1209 C.3       12 UNK        -0.1800 
     72 C          -4.0954  -22.8390  -46.2628 C.2       12 UNK         0.5000 
     73 O          -5.2165  -23.3168  -46.4519 O.2       12 UNK        -0.5000 
     74 N          -3.0259  -23.5721  -45.9259 N.am      13 UNK        -0.5000 
     75 CA         -3.0202  -25.0271  -45.7656 C.3       13 UNK         0.1400 
     76 CB         -1.6438  -25.4683  -45.2455 C.3       13 UNK        -0.1800 
     77 C          -3.3707  -25.7764  -47.0665 C.2       13 UNK         0.5000 
     78 O          -3.1683  -25.2456  -48.1608 O.2       13 UNK        -0.5000 
     79 N          -3.8867  -27.0049  -46.9147 N.am      14 UNK        -0.5000 
     80 CA         -4.3139  -27.9137  -47.9872 C.3       14 UNK         0.1400 
     81 CB         -3.0965  -28.4168  -48.7919 C.3       14 UNK        -0.1800 
     82 C          -5.4150  -27.3013  -48.8791 C.2       14 UNK         0.5000 
     83 O          -5.3228  -27.3601  -50.1062 O.2       14 UNK        -0.5000 
     84 N          -6.4228  -26.6955  -48.2309 N.am      15 UNK        -0.5000 
     85 CA         -7.5594  -25.9881  -48.8337 C.3       15 UNK         0.1400 
     86 CB         -8.4947  -26.9785  -49.5595 C.3       15 UNK        -0.1800 
     87 C          -7.0981  -24.8253  -49.7347 C.2       15 UNK         0.5000 
     88 O          -7.4476  -24.7750  -50.9161 O.2       15 UNK        -0.5000 
     89 N          -6.2724  -23.9390  -49.1587 N.am      16 UNK        -0.5000 
     90 CA         -5.6053  -22.8120  -49.8149 C.3       16 UNK         0.1400 
     91 CB         -6.6288  -21.7261  -50.2071 C.3       16 UNK        -0.1800 
     92 C          -4.7181  -23.2691  -50.9886 C.2       16 UNK         0.5000 
     93 O          -4.8431  -22.7390  -52.0920 O.2       16 UNK        -0.5000 
     94 N          -3.8862  -24.2909  -50.7358 N.am      17 UNK        -0.5000 
     95 CA         -3.0130  -24.9837  -51.6876 C.3       17 UNK         0.1400 
     96 CB         -1.8027  -24.0957  -52.0358 C.3       17 UNK        -0.1800 
     97 C          -3.7761  -25.4963  -52.9290 C.2       17 UNK         0.5000 
     98 O          -3.3502  -25.2624  -54.0608 O.2       17 UNK        -0.5000 
     99 N          -4.9142  -26.1601  -52.6761 N.am      18 UNK        -0.5000 
    100 CA        -5.9118  -26.6238  -53.6444 C.3       18 UNK         0.1400 
    101 CB        -5.3436  -27.7672  -54.5107 C.3       18 UNK        -0.1800 
    102 C         -6.5116  -25.4652  -54.4718 C.2       18 UNK         0.5000 
    103 O         -6.5747  -25.5467  -55.7002 O.2       18 UNK        -0.5000 
    104 N         -6.9376  -24.4075  -53.7649 N.am      19 UNK        -0.5000 
    105 CA        -7.5085  -23.1566  -54.2769 C.3       19 UNK         0.1400 
    106 CB        -8.9108  -23.4073  -54.8693 C.3       19 UNK        -0.1800 
    107 C         -6.5645  -22.4062  -55.2434 C.2       19 UNK         0.5000 
    108 O         -6.9890  -21.9621  -56.3125 O.2       19 UNK        -0.5000 
    109 N         -5.2952  -22.2796  -54.8446 N.am      20 UNK        -0.5000 
    110 CA        -4.2173  -21.6459  -55.5998 C.3       20 UNK         0.1400 
    111 CB        -3.7177  -22.5908  -56.7117 C.3       20 UNK        -0.1800 
    112 C         -3.1113  -21.2277  -54.6175 C.2       20 UNK         0.5000 
    113 O         -1.9649  -21.6594  -54.7549 O.2       20 UNK        -0.5000 
    114 N         -3.5010  -20.4182  -53.6196 N.am      21 UNK        -0.5000 
    115 CA        -2.7446  -20.0694  -52.4086 C.3       21 UNK         0.1400 
    116 CB        -3.5033  -18.9725  -51.6430 C.3       21 UNK        -0.1800 
    117 C         -1.2837  -19.6424  -52.6329 C.2       21 UNK         0.5000 
    118 O         -0.4152  -20.0407  -51.8590 O.2       21 UNK        -0.5000 
    119 N         -1.0405  -18.8695  -53.6979 N.am      22 UNK        -0.5000 
    120 CA         0.2955  -18.3984  -54.0939 C.3       22 UNK         0.1400 
    121 C          1.2534  -19.5069  -54.6277 C.2       22 UNK         0.5000 
    122 N          0.7893  -20.7156  -54.9242 N.am      22 UNK        -0.7600 
    123 O          2.4473  -19.2615  -54.7786 O.2       22 UNK        -0.5000 
    124 C124        0.2320  -17.2184  -55.0988 C.3       23 UNK        -0.0398 
    125 S125       -0.9212  -15.8774  -54.6437 S.3       23 UNK        -0.2404 
    126 C126        0.0412  -14.9281  -53.4225 C.3       23 UNK        -0.0205 
    127 H127       -2.0551  -12.6987  -42.5344 H         1 UNK         0.0600 
    128 H128       -2.0557  -10.9354  -42.4221 H         1 UNK         0.0600 
    129 H129       -0.5272  -11.8230  -42.4101 H         1 UNK         0.0600 
    130 H130       -2.3612  -13.4648  -44.6058 H         1 UNK         0.3000 
    131 H131       -2.0727  -11.8254  -46.9554 H         1 UNK         0.0600 
    132 H132       -2.4125  -14.8576  -47.0315 H         1 UNK         0.0800 
    133 H133       -3.7256  -13.8534  -46.5061 H         1 UNK         0.0800 
    134 H134       -3.5886  -15.8594  -48.9170 H         1 UNK         0.0800 
    135 H135       -3.9941  -15.0926  -50.4265 H         1 UNK         0.0800 
    136 H136       -2.2894  -14.5382  -52.0912 H         1 UNK         0.1150 
    137 H137        1.6254  -16.2131  -51.5838 H         1 UNK         0.1150 
    138 H138       -1.1737  -16.2856  -48.3421 H         1 UNK         0.1150 
    139 H139        2.3595  -16.6449  -49.2283 H         1 UNK         0.0800 
    140 H140        1.1898  -16.7489  -47.9397 H         1 UNK         0.0800 
    141 H141       -1.0351  -19.0284  -49.4164 H         1 UNK         0.0800 
    142 H142       -0.6291  -18.5299  -47.7892 H         1 UNK         0.0800 
    143 H143       -0.0513  -21.3220  -48.8704 H         1 UNK         0.0600 
    144 H144        0.6220  -20.0577  -46.3840 H         1 UNK         0.3000 
    145 H145        1.3281  -23.1161  -44.6420 H         1 UNK         0.0600 
    146 H146        3.3454  -22.5243  -45.9949 H         1 UNK         0.0600 
    147 H147        3.0783  -20.8172  -45.6627 H         1 UNK         0.0600 
    148 H148        3.4742  -21.9229  -44.3488 H         1 UNK         0.0600 
    149 H149        1.4804  -20.4033  -43.8014 H         1 UNK         0.3000 
    150 H150       -1.8529  -20.2075  -42.4482 H         1 UNK         0.0600 
    151 H151       -0.3775  -21.3748  -40.7922 H         1 UNK         0.0600 
    152 H152       -0.5084  -19.6558  -40.4510 H         1 UNK         0.0600 
    153 H153        0.9487  -20.2941  -41.2084 H         1 UNK         0.0600 
    154 H154        0.2109  -18.2771  -42.4595 H         1 UNK         0.3000 
    155 H155       -0.6607  -16.6595  -45.5570 H         1 UNK         0.0600 
    156 H156       -0.5332  -14.8033  -43.8339 H         1 UNK         0.0600 
    157 H157       -0.8204  -15.9884  -42.5684 H         1 UNK         0.0600 
    158 H158       -2.0514  -15.6936  -43.7861 H         1 UNK         0.0600 
    159 H159        1.4902  -16.0626  -43.9101 H         1 UNK         0.3000 
    160 H160        3.9193  -18.3618  -45.2449 H         1 UNK         0.0600 
    161 H161        3.4814  -15.3274  -45.3349 H         1 UNK         0.0600 
    162 H162        3.8388  -16.3713  -46.6980 H         1 UNK         0.0600 
    163 H163        5.0462  -16.1390  -45.4439 H         1 UNK         0.0600 
    164 H164        3.9236  -16.4492  -43.0850 H         1 UNK         0.3000 
    165 H165        3.1869  -18.7888  -40.4872 H         1 UNK         0.0600 
    166 H166        5.3456  -17.9138  -39.6369 H         1 UNK         0.0600 
    167 H167        5.6307  -19.0499  -40.9455 H         1 UNK         0.0600 
    168 H168        5.7740  -17.3214  -41.2420 H         1 UNK         0.0600 
    169 H169        3.8206  -15.9967  -40.4844 H         1 UNK         0.3000 
    170 H170        0.5428  -14.7395  -40.9737 H         1 UNK         0.0600 
    171 H171        0.5234  -15.3921  -38.5630 H         1 UNK         0.0600 
    172 H172        2.1985  -14.8792  -38.3971 H         1 UNK         0.0600 
    173 H173        0.9401  -13.6978  -38.7623 H         1 UNK         0.0600 
    174 H174        2.9774  -13.4510  -40.2812 H         1 UNK         0.3000 
    175 H175        4.1088  -12.2319  -41.7174 H         1 UNK         0.0600 
    176 H176        6.0019  -12.8777  -43.1500 H         1 UNK         0.0600 
    177 H177        5.4876  -14.2732  -42.2155 H         1 UNK         0.0600 
    178 H178        5.0521  -14.1448  -43.9163 H         1 UNK         0.0600 
    179 H179        3.8133  -12.1753  -44.6275 H         1 UNK         0.3000 
    180 H180        1.5648   -9.3858  -44.5314 H         1 UNK         0.0600 
    181 H181        4.4570   -9.7631  -45.4584 H         1 UNK         0.0600 
    182 H182        3.8770   -8.5402  -44.3396 H         1 UNK         0.0600 
    183 H183        3.3423   -8.5148  -46.0126 H         1 UNK         0.0600 
    184 H184        0.9015  -10.6601  -46.1421 H         1 UNK         0.3000 
    185 H185        1.8453  -11.4413  -48.7294 H         1 UNK         0.0600 
    186 H186        3.3032  -13.3896  -48.8969 H         1 UNK         0.0600 
    187 H187        2.2799  -14.3306  -47.8269 H         1 UNK         0.0600 
    188 H188        1.6890  -13.8387  -49.4167 H         1 UNK         0.0600 
    189 H189       -0.2693  -11.5314  -48.1223 H         1 UNK         0.3000 
    190 H190       -1.9885  -20.4866  -45.9921 H         1 UNK         0.3000 
    191 H191       -4.5450  -20.9753  -47.2141 H         1 UNK         0.0600 
    192 H192       -4.3194  -19.5224  -45.2459 H         1 UNK         0.0600 
    193 H193       -5.3543  -20.8820  -44.8470 H         1 UNK         0.0600 
    194 H194       -3.6883  -20.8571  -44.2801 H         1 UNK         0.0600 
    195 H195       -2.1457  -23.0968  -45.7786 H         1 UNK         0.3000 
    196 H196       -3.7718  -25.2746  -45.0133 H         1 UNK         0.0600 
    197 H197       -1.6305  -26.5366  -45.0268 H         1 UNK         0.0600 
    198 H198       -1.3804  -24.9458  -44.3255 H         1 UNK         0.0600 
    199 H199       -0.8590  -25.2764  -45.9773 H         1 UNK         0.0600 
    200 H200       -4.0149  -27.3563  -45.9757 H         1 UNK         0.3000 
    201 H201       -4.7648  -28.7797  -47.5006 H         1 UNK         0.0600 
    202 H202       -2.3532  -28.8719  -48.1375 H         1 UNK         0.0600 
    203 H203       -2.6093  -27.6110  -49.3412 H         1 UNK         0.0600 
    204 H204       -3.3942  -29.1733  -49.5189 H         1 UNK         0.0600 
    205 H205       -6.3858  -26.6785  -47.2214 H         1 UNK         0.3000 
    206 H206       -8.1235  -25.5409  -48.0140 H         1 UNK         0.0600 
    207 H207       -8.8258  -27.7712  -48.8888 H         1 UNK         0.0600 
    208 H208       -9.3871  -26.4712  -49.9281 H         1 UNK         0.0600 
    209 H209       -8.0091  -27.4460  -50.4167 H         1 UNK         0.0600 
    210 H210       -6.0223  -24.0667  -48.1833 H         1 UNK         0.3000 
    211 H211       -4.9364  -22.3776  -49.0773 H         1 UNK         0.0600 
    212 H212       -7.3301  -22.0796  -50.9628 H         1 UNK         0.0600 
    213 H213       -6.1282  -20.8474  -50.6126 H         1 UNK         0.0600 
    214 H214       -7.2051  -21.3996  -49.3417 H         1 UNK         0.0600 
    215 H215       -3.8300  -24.6396  -49.7806 H         1 UNK         0.3000 
    216 H216       -2.6371  -25.8676  -51.1710 H         1 UNK         0.0600 
    217 H217       -1.0929  -24.6279  -52.6696 H         1 UNK         0.0600 
    218 H218       -1.2703  -23.7851  -51.1365 H         1 UNK         0.0600 
    219 H219       -2.1069  -23.1962  -52.5681 H         1 UNK         0.0600 
    220 H220       -5.1469  -26.3440  -51.7025 H         1 UNK         0.3000 
    221 H221       -6.7334  -27.0353  -53.0561 H         1 UNK         0.0600 
    222 H222       -4.5375  -27.4242  -55.1598 H         1 UNK         0.0600 
    223 H223       -4.9546  -28.5744  -53.8902 H         1 UNK         0.0600 
    224 H224       -6.1181  -28.1933  -55.1494 H         1 UNK         0.0600 
    225 H225       -6.8631  -24.4605  -52.7520 H         1 UNK         0.3000 
    226 H226       -7.6314  -22.5057  -53.4105 H         1 UNK         0.0600 
    227 H227       -9.5594  -23.9033  -54.1472 H         1 UNK         0.0600 
    228 H228       -9.3921  -22.4684  -55.1451 H         1 UNK         0.0600 
    229 H229       -8.8678  -24.0287  -55.7643 H         1 UNK         0.0600 
    230 H230       -5.0409  -22.6211  -53.9170 H         1 UNK         0.3000 
    231 H231       -4.5942  -20.7325  -56.0641 H         1 UNK         0.0600 
    232 H232       -3.3521  -23.5320  -56.2993 H         1 UNK         0.0600 
    233 H233       -2.9019  -22.1366  -57.2751 H         1 UNK         0.0600 
    234 H234       -4.5104  -22.8245  -57.4223 H         1 UNK         0.0600 
    235 H235       -4.4714  -20.1410  -53.6111 H         1 UNK         0.3000 
    236 H236       -2.7229  -20.9619  -51.7810 H         1 UNK         0.0600 
    237 H237       -4.5103  -19.2952  -51.3821 H         1 UNK         0.0600 
    238 H238       -2.9957  -18.7195  -50.7119 H         1 UNK         0.0600 
    239 H239       -3.5845  -18.0563  -52.2293 H         1 UNK         0.0600 
    240 H240       -1.8099  -18.5943  -54.2891 H         1 UNK         0.3000 
    241 H241        0.7702  -18.0205  -53.1874 H         1 UNK         0.0600 
    242 H242        1.4245  -21.4185  -55.2658 H         1 UNK         0.3800 
    243 H243       -0.1926  -20.9495  -54.7977 H         1 UNK         0.3800 
    244 H244        1.2244  -16.7891  -55.2468 H         1 UNK         0.0800 
    245 H245       -0.0801  -17.5857  -56.0781 H         1 UNK         0.0800 
    246 H246       -0.1895  -13.8691  -53.5462 H         1 UNK         0.0800 
    247 H247        1.1096  -15.0290  -53.6183 H         1 UNK         0.0800 
@<TRIPOS>BOND
     1    1    2 1    
     2    1  127 1    
     3    1  128 1    
     4    1  129 1    
     5    2    3 2    
     6    2    4 am   BACKBONE|DICT|INTERRES
     7    4    5 1    
     8    4  130 1    
     9    5    6 1    
    10    5   65 1    
    11    5  131 1    
    12    6    7 1    
    13    6  132 1    
    14    6  133 1    
    15    7    8 1    
    16    8    9 1    
    17    8  134 1    
    18    8  135 1    
    19    9   10 ar   
    20    9   14 ar   
    21   10   11 ar   
    22   10  136 1    
    23   11   12 ar   
    24   11  126 1    
    25   12   13 ar   
    26   12  137 1    
    27   13   14 ar   
    28   13   15 1    
    29   14  138 1    
    30   15   16 1    
    31   15  139 1    
    32   15  140 1    
    33   16   17 1    
    34   17   18 1    
    35   17  141 1    
    36   17  142 1    
    37   18   19 1    
    38   18   67 1    
    39   18  143 1    
    40   19   20 am   BACKBONE|DICT|INTERRES
    41   19  144 1    
    42   20   21 2    
    43   20   22 1    
    44   22   23 1    
    45   22   24 1    
    46   22  145 1    
    47   23  146 1    
    48   23  147 1    
    49   23  148 1    
    50   24   25 am   BACKBONE|DICT|INTERRES
    51   24  149 1    
    52   25   26 2    
    53   25   27 1    
    54   27   28 1    
    55   27   29 1    
    56   27  150 1    
    57   28  151 1    
    58   28  152 1    
    59   28  153 1    
    60   29   30 am   BACKBONE|DICT|INTERRES
    61   29  154 1    
    62   30   31 2    
    63   30   32 1    
    64   32   33 1    
    65   32   34 1    
    66   32  155 1    
    67   33  156 1    
    68   33  157 1    
    69   33  158 1    
    70   34   35 am   BACKBONE|DICT|INTERRES
    71   34  159 1    
    72   35   36 2    
    73   35   37 1    
    74   37   38 1    
    75   37   39 1    
    76   37  160 1    
    77   38  161 1    
    78   38  162 1    
    79   38  163 1    
    80   39   40 am   BACKBONE|DICT|INTERRES
    81   39  164 1    
    82   40   41 2    
    83   40   42 1    
    84   42   43 1    
    85   42   44 1    
    86   42  165 1    
    87   43  166 1    
    88   43  167 1    
    89   43  168 1    
    90   44   45 am   BACKBONE|DICT|INTERRES
    91   44  169 1    
    92   45   46 2    
    93   45   47 1    
    94   47   48 1    
    95   47   49 1    
    96   47  170 1    
    97   48  171 1    
    98   48  172 1    
    99   48  173 1    
   100   49   50 am   BACKBONE|DICT|INTERRES
   101   49  174 1    
   102   50   51 2    
   103   50   52 1    
   104   52   53 1    
   105   52   54 1    
   106   52  175 1    
   107   53  176 1    
   108   53  177 1    
   109   53  178 1    
   110   54   55 am   BACKBONE|DICT|INTERRES
   111   54  179 1    
   112   55   56 2    
   113   55   57 1    
   114   57   58 1    
   115   57   59 1    
   116   57  180 1    
   117   58  181 1    
   118   58  182 1    
   119   58  183 1    
   120   59   60 am   BACKBONE|DICT|INTERRES
   121   59  184 1    
   122   60   61 2    
   123   60   62 1    
   124   62   63 1    
   125   62   64 1    
   126   62  185 1    
   127   63  186 1    
   128   63  187 1    
   129   63  188 1    
   130   64   65 am   BACKBONE|DICT|INTERRES
   131   64  189 1    
   132   65   66 2    
   133   67   68 2    
   134   67   69 am   BACKBONE|DICT|INTERRES
   135   69   70 1    
   136   69  190 1    
   137   70   71 1    
   138   70   72 1    
   139   70  191 1    
   140   71  192 1    
   141   71  193 1    
   142   71  194 1    
   143   72   73 2    
   144   72   74 am   BACKBONE|DICT|INTERRES
   145   74   75 1    
   146   74  195 1    
   147   75   76 1    
   148   75   77 1    
   149   75  196 1    
   150   76  197 1    
   151   76  198 1    
   152   76  199 1    
   153   77   78 2    
   154   77   79 am   BACKBONE|DICT|INTERRES
   155   79   80 1    
   156   79  200 1    
   157   80   81 1    
   158   80   82 1    
   159   80  201 1    
   160   81  202 1    
   161   81  203 1    
   162   81  204 1    
   163   82   83 2    
   164   82   84 am   BACKBONE|DICT|INTERRES
   165   84   85 1    
   166   84  205 1    
   167   85   86 1    
   168   85   87 1    
   169   85  206 1    
   170   86  207 1    
   171   86  208 1    
   172   86  209 1    
   173   87   88 2    
   174   87   89 am   BACKBONE|DICT|INTERRES
   175   89   90 1    
   176   89  210 1    
   177   90   91 1    
   178   90   92 1    
   179   90  211 1    
   180   91  212 1    
   181   91  213 1    
   182   91  214 1    
   183   92   93 2    
   184   92   94 am   BACKBONE|DICT|INTERRES
   185   94   95 1    
   186   94  215 1    
   187   95   96 1    
   188   95   97 1    
   189   95  216 1    
   190   96  217 1    
   191   96  218 1    
   192   96  219 1    
   193   97   98 2    
   194   97   99 am   BACKBONE|DICT|INTERRES
   195   99  100 1    
   196   99  220 1    
   197  100  101 1    
   198  100  102 1    
   199  100  221 1    
   200  101  222 1    
   201  101  223 1    
   202  101  224 1    
   203  102  103 2    
   204  102  104 am   BACKBONE|DICT|INTERRES
   205  104  105 1    
   206  104  225 1    
   207  105  106 1    
   208  105  107 1    
   209  105  226 1    
   210  106  227 1    
   211  106  228 1    
   212  106  229 1    
   213  107  108 2    
   214  107  109 am   BACKBONE|DICT|INTERRES
   215  109  110 1    
   216  109  230 1    
   217  110  111 1    
   218  110  112 1    
   219  110  231 1    
   220  111  232 1    
   221  111  233 1    
   222  111  234 1    
   223  112  113 2    
   224  112  114 am   BACKBONE|DICT|INTERRES
   225  114  115 1    
   226  114  235 1    
   227  115  116 1    
   228  115  117 1    
   229  115  236 1    
   230  116  237 1    
   231  116  238 1    
   232  116  239 1    
   233  117  118 2    
   234  117  119 am   BACKBONE|DICT|INTERRES
   235  119  120 1    
   236  119  240 1    
   237  120  121 1    
   238  120  124 1    
   239  120  241 1    
   240  121  122 am   BACKBONE|DICT|INTERRES
   241  121  123 2    
   242  122  242 1    
   243  122  243 1    
   244  124  125 1    
   245  124  244 1    
   246  124  245 1    
   247  125  126 1    
   248  126  246 1    
   249  126  247 1    
@<TRIPOS>SUBSTRUCTURE
     1 UNK         1 GROUP             0       ****    0 ROOT    
