@<TRIPOS>MOLECULE
3R540
247   249    1
SMALL
USER_CHARGES


@<TRIPOS>ATOM
      1 CA          0.2820  -10.2635  -49.0265 C.3       0 UNK        -0.1800 
      2 C           0.2291  -11.0947  -47.7538 C.2       0 UNK         0.5000 
      3 O           1.1445  -11.0154  -46.9353 O.2       0 UNK        -0.5000 
      4 N          -0.8457  -11.8744  -47.5741 N.am      1 UNK        -0.5000 
      5 CA         -1.0730  -12.7941  -46.4482 C.3       1 UNK         0.1400 
      6 C6         -2.3941  -13.5851  -46.6162 C.3       23 UNK        -0.0398 
      7 S7         -2.3909  -14.6700  -48.0853 S.3       23 UNK        -0.2404 
      8 C8         -2.1288  -16.2734  -47.2744 C.3       23 UNK        -0.0205 
      9 C9         -1.9827  -17.4134  -48.2650 C.ar      23 UNK        -0.0193 
     10 C10        -3.0935  -18.1722  -48.6425 C.ar      23 UNK        -0.1150 
     11 C11        -2.9460  -19.2711  -49.4946 C.ar      23 UNK        -0.0193 
     12 C12        -1.6737  -19.5975  -49.9763 C.ar      23 UNK        -0.1150 
     13 C13        -0.5573  -18.8433  -49.6075 C.ar      23 UNK        -0.0193 
     14 C14        -0.7198  -17.7472  -48.7575 C.ar      23 UNK        -0.1150 
     15 C15         0.8294  -19.2204  -50.1068 C.3       23 UNK        -0.0205 
     16 S16         1.4287  -20.7973  -49.4138 S.3       23 UNK        -0.2404 
     17 C17         1.3123  -20.5322  -47.6069 C.3       23 UNK        -0.0398 
     18 CA          0.6022  -21.6994  -46.8752 C.3       11 UNK         0.1400 
     19 N           0.9844  -21.7580  -45.4621 N.am      11 UNK        -0.5000 
     20 C           0.7921  -22.8083  -44.6518 C.2       10 UNK         0.5000 
     21 O           0.1465  -23.8077  -44.9697 O.2       10 UNK        -0.5000 
     22 CA          1.4394  -22.7322  -43.2590 C.3       10 UNK         0.1400 
     23 CB          2.9566  -22.9589  -43.3552 C.3       10 UNK        -0.1800 
     24 N           1.1883  -21.4363  -42.6336 N.am      10 UNK        -0.5000 
     25 C           0.2345  -21.2053  -41.7217 C.2       9 UNK         0.5000 
     26 O          -0.4823  -22.0848  -41.2423 O.2       9 UNK        -0.5000 
     27 CA          0.0278  -19.7430  -41.2725 C.3       9 UNK         0.1400 
     28 CB          0.8330  -19.4567  -39.9958 C.3       9 UNK        -0.1800 
     29 N           0.3760  -18.7418  -42.2829 N.am      9 UNK        -0.5000 
     30 C          -0.1452  -18.6660  -43.5156 C.2       8 UNK         0.5000 
     31 O          -0.9943  -19.4384  -43.9550 O.2       8 UNK        -0.5000 
     32 CA          0.4287  -17.5800  -44.4376 C.3       8 UNK         0.1400 
     33 CB         -0.2632  -16.2392  -44.1528 C.3       8 UNK        -0.1800 
     34 N           1.8789  -17.4156  -44.3156 N.am      8 UNK        -0.5000 
     35 C           2.8000  -18.3823  -44.4485 C.2       7 UNK         0.5000 
     36 O           2.5326  -19.5627  -44.6734 O.2       7 UNK        -0.5000 
     37 CA          4.2643  -17.9655  -44.2517 C.3       7 UNK         0.1400 
     38 CB          4.8079  -17.2668  -45.5070 C.3       7 UNK        -0.1800 
     39 N           4.4006  -17.0859  -43.0923 N.am      7 UNK        -0.5000 
     40 C           4.4500  -17.5189  -41.8245 C.2       6 UNK         0.5000 
     41 O           4.4717  -18.7087  -41.5082 O.2       6 UNK        -0.5000 
     42 CA          4.4600  -16.4442  -40.7206 C.3       6 UNK         0.1400 
     43 CB          5.9007  -16.0336  -40.3809 C.3       6 UNK        -0.1800 
     44 N           3.6909  -15.2496  -41.0732 N.am      6 UNK        -0.5000 
     45 C           2.3583  -15.2172  -41.2130 C.2       5 UNK         0.5000 
     46 O           1.6285  -16.1948  -41.0437 O.2       5 UNK        -0.5000 
     47 CA          1.7470  -13.8739  -41.6572 C.3       5 UNK         0.1400 
     48 CB          1.4619  -12.9785  -40.4429 C.3       5 UNK        -0.1800 
     49 N           2.5648  -13.1297  -42.6195 N.am      5 UNK        -0.5000 
     50 C           2.9573  -13.5741  -43.8211 C.2       4 UNK         0.5000 
     51 O           2.7659  -14.7268  -44.2102 O.2       4 UNK        -0.5000 
     52 CA          3.6797  -12.5627  -44.7337 C.3       4 UNK         0.1400 
     53 CB          3.8409  -13.0816  -46.1739 C.3       4 UNK        -0.1800 
     54 N           2.9761  -11.2819  -44.7796 N.am      4 UNK        -0.5000 
     55 C           3.1218  -10.2775  -43.9072 C.2       3 UNK         0.5000 
     56 O           3.8620  -10.3304  -42.9247 O.2       3 UNK        -0.5000 
     57 CA          2.2590   -9.0313  -44.1516 C.3       3 UNK         0.1400 
     58 CB          2.7681   -8.2354  -45.3644 C.3       3 UNK        -0.1800 
     59 N           0.8629   -9.4067  -44.3651 N.am      3 UNK        -0.5000 
     60 C          -0.0360   -9.5685  -43.3846 C.2       2 UNK         0.5000 
     61 O           0.2097   -9.3778  -42.1931 O.2       2 UNK        -0.5000 
     62 CA         -1.4527  -10.0105  -43.8000 C.3       2 UNK         0.1400 
     63 CB         -2.3552   -8.7861  -44.0161 C.3       2 UNK        -0.1800 
     64 N          -1.4650  -10.8308  -45.0120 N.am      2 UNK        -0.5000 
     65 C          -1.0504  -12.1043  -45.0659 C.2       1 UNK         0.5000 
     66 O          -0.6555  -12.7325  -44.0843 O.2       1 UNK        -0.5000 
     67 C          -0.9247  -21.7164  -47.1090 C.2       11 UNK         0.5000 
     68 O          -1.3547  -22.2173  -48.1467 O.2       11 UNK        -0.5000 
     69 N          -1.7286  -21.2522  -46.1367 N.am      12 UNK        -0.5000 
     70 CA         -3.1988  -21.2440  -46.1870 C.3       12 UNK         0.1400 
     71 CB         -3.7598  -20.6517  -44.8861 C.3       12 UNK        -0.1800 
     72 C          -3.8536  -22.6116  -46.4771 C.2       12 UNK         0.5000 
     73 O          -4.9535  -22.6491  -47.0300 O.2       12 UNK        -0.5000 
     74 N          -3.1510  -23.7070  -46.1533 N.am      13 UNK        -0.5000 
     75 CA         -3.5283  -25.0824  -46.4823 C.3       13 UNK         0.1400 
     76 CB         -2.5400  -26.0421  -45.8037 C.3       13 UNK        -0.1800 
     77 C          -3.6038  -25.3718  -47.9973 C.2       13 UNK         0.5000 
     78 O          -4.3079  -26.3027  -48.3917 O.2       13 UNK        -0.5000 
     79 N          -2.9176  -24.5678  -48.8271 N.am      14 UNK        -0.5000 
     80 CA         -2.9228  -24.6747  -50.2889 C.3       14 UNK         0.1400 
     81 CB         -1.8879  -23.7130  -50.8896 C.3       14 UNK        -0.1800 
     82 C          -4.3023  -24.4272  -50.9238 C.2       14 UNK         0.5000 
     83 O          -4.5422  -24.9149  -52.0247 O.2       14 UNK        -0.5000 
     84 N          -5.2087  -23.7371  -50.2154 N.am      15 UNK        -0.5000 
     85 CA         -6.5874  -23.4847  -50.6456 C.3       15 UNK         0.1400 
     86 CB         -7.2690  -22.5636  -49.6236 C.3       15 UNK        -0.1800 
     87 C          -7.4221  -24.7667  -50.8570 C.2       15 UNK         0.5000 
     88 O          -8.3902  -24.7386  -51.6169 O.2       15 UNK        -0.5000 
     89 N          -7.0239  -25.8660  -50.2021 N.am      16 UNK        -0.5000 
     90 CA         -7.6178  -27.1943  -50.3482 C.3       16 UNK         0.1400 
     91 CB         -7.5031  -27.9223  -48.9984 C.3       16 UNK        -0.1800 
     92 C          -6.9676  -28.0294  -51.4733 C.2       16 UNK         0.5000 
     93 O          -7.4122  -29.1547  -51.7072 O.2       16 UNK        -0.5000 
     94 N          -5.9270  -27.5019  -52.1319 N.am      17 UNK        -0.5000 
     95 CA         -5.1376  -28.1894  -53.1487 C.3       17 UNK         0.1400 
     96 CB         -3.8971  -28.8204  -52.4815 C.3       17 UNK        -0.1800 
     97 C          -4.8178  -27.2035  -54.2856 C.2       17 UNK         0.5000 
     98 O          -5.7324  -26.8012  -55.0080 O.2       17 UNK        -0.5000 
     99 N          -3.5405  -26.8265  -54.4328 N.am      18 UNK        -0.5000 
    100 CA        -3.0236  -25.8783  -55.4213 C.3       18 UNK         0.1400 
    101 CB        -1.5048  -26.0898  -55.5549 C.3       18 UNK        -0.1800 
    102 C         -3.3847  -24.4180  -55.0741 C.2       18 UNK         0.5000 
    103 O         -2.5016  -23.6046  -54.7952 O.2       18 UNK        -0.5000 
    104 N         -4.6874  -24.1094  -55.1087 N.am      19 UNK        -0.5000 
    105 CA        -5.2846  -22.8286  -54.7169 C.3       19 UNK         0.1400 
    106 CB        -6.8137  -22.9643  -54.7482 C.3       19 UNK        -0.1800 
    107 C         -4.8236  -21.6138  -55.5484 C.2       19 UNK         0.5000 
    108 O         -5.0036  -20.4785  -55.1101 O.2       19 UNK        -0.5000 
    109 N         -4.1951  -21.8601  -56.7066 N.am      20 UNK        -0.5000 
    110 CA        -3.5105  -20.8594  -57.5282 C.3       20 UNK         0.1400 
    111 CB        -3.0096  -21.5304  -58.8159 C.3       20 UNK        -0.1800 
    112 C         -2.3463  -20.1547  -56.7983 C.2       20 UNK         0.5000 
    113 O         -2.0368  -19.0085  -57.1264 O.2       20 UNK        -0.5000 
    114 N         -1.7497  -20.8240  -55.7984 N.am      21 UNK        -0.5000 
    115 CA        -0.7242  -20.2651  -54.9130 C.3       21 UNK         0.1400 
    116 CB        -0.1227  -21.3981  -54.0665 C.3       21 UNK        -0.1800 
    117 C         -1.2498  -19.1437  -53.9933 C.2       21 UNK         0.5000 
    118 O         -0.4537  -18.3330  -53.5191 O.2       21 UNK        -0.5000 
    119 N         -2.5674  -19.1177  -53.7587 N.am      22 UNK        -0.5000 
    120 CA        -3.2566  -18.1559  -52.8859 C.3       22 UNK         0.1400 
    121 C         -3.5281  -16.7735  -53.5490 C.2       22 UNK         0.5000 
    122 N         -3.2324  -16.5742  -54.8289 N.am      22 UNK        -0.7600 
    123 O         -4.0125  -15.8586  -52.8889 O.2       22 UNK        -0.5000 
    124 C124       -4.5597  -18.7513  -52.2844 C.3       23 UNK        -0.0398 
    125 S125       -4.3539  -20.4417  -51.6174 S.3       23 UNK        -0.2404 
    126 C126       -4.1555  -20.1330  -49.8361 C.3       23 UNK        -0.0205 
    127 H127        0.3424   -9.2037  -48.7790 H         1 UNK         0.0600 
    128 H128       -0.5987  -10.4191  -49.6500 H         1 UNK         0.0600 
    129 H129        1.1638  -10.5292  -49.6093 H         1 UNK         0.0600 
    130 H130       -1.5558  -11.8971  -48.2924 H         1 UNK         0.3000 
    131 H131       -0.2456  -13.5070  -46.4500 H         1 UNK         0.0600 
    132 H132       -3.2386  -12.8991  -46.7033 H         1 UNK         0.0800 
    133 H133       -2.5969  -14.1913  -45.7309 H         1 UNK         0.0800 
    134 H134       -1.2219  -16.2085  -46.6775 H         1 UNK         0.0800 
    135 H135       -2.9480  -16.4785  -46.5832 H         1 UNK         0.0800 
    136 H136       -4.0685  -17.9212  -48.2491 H         1 UNK         0.1150 
    137 H137       -1.5454  -20.4531  -50.6229 H         1 UNK         0.1150 
    138 H138        0.1408  -17.1648  -48.4592 H         1 UNK         0.1150 
    139 H139        0.8051  -19.3007  -51.1943 H         1 UNK         0.0800 
    140 H140        1.5512  -18.4358  -49.8750 H         1 UNK         0.0800 
    141 H141        0.8397  -19.5798  -47.3687 H         1 UNK         0.0800 
    142 H142        2.3392  -20.4447  -47.2498 H         1 UNK         0.0800 
    143 H143        0.9791  -22.6264  -47.3135 H         1 UNK         0.0600 
    144 H144        1.5304  -20.9698  -45.1198 H         1 UNK         0.3000 
    145 H145        1.0207  -23.5371  -42.6512 H         1 UNK         0.0600 
    146 H146        3.4144  -22.9692  -42.3660 H         1 UNK         0.0600 
    147 H147        3.1793  -23.9170  -43.8267 H         1 UNK         0.0600 
    148 H148        3.4481  -22.1812  -43.9413 H         1 UNK         0.0600 
    149 H149        1.7065  -20.6481  -43.0017 H         1 UNK         0.3000 
    150 H150       -1.0329  -19.6203  -41.0449 H         1 UNK         0.0600 
    151 H151        0.5924  -20.1738  -39.2099 H         1 UNK         0.0600 
    152 H152        0.6138  -18.4625  -39.6059 H         1 UNK         0.0600 
    153 H153        1.9069  -19.5148  -40.1786 H         1 UNK         0.0600 
    154 H154        1.0412  -18.0302  -42.0013 H         1 UNK         0.3000 
    155 H155        0.2189  -17.8706  -45.4686 H         1 UNK         0.0600 
    156 H156        0.1148  -15.4475  -44.7994 H         1 UNK         0.0600 
    157 H157       -1.3398  -16.3113  -44.3095 H         1 UNK         0.0600 
    158 H158       -0.1148  -15.9262  -43.1210 H         1 UNK         0.0600 
    159 H159        2.2053  -16.4633  -44.1640 H         1 UNK         0.3000 
    160 H160        4.8554  -18.8692  -44.0880 H         1 UNK         0.0600 
    161 H161        4.2379  -16.3713  -45.7539 H         1 UNK         0.0600 
    162 H162        4.7606  -17.9311  -46.3708 H         1 UNK         0.0600 
    163 H163        5.8503  -16.9761  -45.3767 H         1 UNK         0.0600 
    164 H164        4.3170  -16.0936  -43.2650 H         1 UNK         0.3000 
    165 H165        4.0105  -16.8844  -39.8279 H         1 UNK         0.0600 
    166 H166        5.9247  -15.3314  -39.5473 H         1 UNK         0.0600 
    167 H167        6.4954  -16.9008  -40.0908 H         1 UNK         0.0600 
    168 H168        6.3974  -15.5643  -41.2310 H         1 UNK         0.0600 
    169 H169        4.2117  -14.4006  -41.2373 H         1 UNK         0.3000 
    170 H170        0.7946  -14.0882  -42.1425 H         1 UNK         0.0600 
    171 H171        0.8329  -13.4941  -39.7159 H         1 UNK         0.0600 
    172 H172        2.3807  -12.6843  -39.9343 H         1 UNK         0.0600 
    173 H173        0.9363  -12.0702  -40.7396 H         1 UNK         0.0600 
    174 H174        2.7883  -12.1718  -42.3815 H         1 UNK         0.3000 
    175 H175        4.6788  -12.4106  -44.3208 H         1 UNK         0.0600 
    176 H176        4.4436  -13.9896  -46.1995 H         1 UNK         0.0600 
    177 H177        2.8759  -13.3110  -46.6281 H         1 UNK         0.0600 
    178 H178        4.3399  -12.3457  -46.8046 H         1 UNK         0.0600 
    179 H179        2.3117  -11.1704  -45.5434 H         1 UNK         0.3000 
    180 H180        2.3364   -8.3867  -43.2732 H         1 UNK         0.0600 
    181 H181        2.7096   -8.8140  -46.2870 H         1 UNK         0.0600 
    182 H182        3.8093   -7.9408  -45.2273 H         1 UNK         0.0600 
    183 H183        2.1884   -7.3232  -45.5059 H         1 UNK         0.0600 
    184 H184        0.6034   -9.6581  -45.3100 H         1 UNK         0.3000 
    185 H185       -1.8692  -10.5994  -42.9798 H         1 UNK         0.0600 
    186 H186       -2.3892   -8.1636  -43.1210 H         1 UNK         0.0600 
    187 H187       -1.9985   -8.1620  -44.8365 H         1 UNK         0.0600 
    188 H188       -3.3790   -9.0853  -44.2412 H         1 UNK         0.0600 
    189 H189       -1.7754  -10.3867  -45.8639 H         1 UNK         0.3000 
    190 H190       -1.3104  -20.8293  -45.3130 H         1 UNK         0.3000 
    191 H191       -3.4865  -20.5803  -47.0016 H         1 UNK         0.0600 
    192 H192       -3.3893  -21.1846  -44.0096 H         1 UNK         0.0600 
    193 H193       -4.8495  -20.6999  -44.8667 H         1 UNK         0.0600 
    194 H194       -3.4871  -19.6015  -44.7846 H         1 UNK         0.0600 
    195 H195       -2.2422  -23.5803  -45.7276 H         1 UNK         0.3000 
    196 H196       -4.5221  -25.2623  -46.0676 H         1 UNK         0.0600 
    197 H197       -2.8078  -27.0818  -45.9964 H         1 UNK         0.0600 
    198 H198       -2.5335  -25.9035  -44.7224 H         1 UNK         0.0600 
    199 H199       -1.5223  -25.8913  -46.1666 H         1 UNK         0.0600 
    200 H200       -2.3746  -23.7992  -48.4402 H         1 UNK         0.3000 
    201 H201       -2.6262  -25.6939  -50.5446 H         1 UNK         0.0600 
    202 H202       -0.8940  -23.8855  -50.4765 H         1 UNK         0.0600 
    203 H203       -2.1558  -22.6741  -50.6995 H         1 UNK         0.0600 
    204 H204       -1.8195  -23.8383  -51.9712 H         1 UNK         0.0600 
    205 H205       -4.9495  -23.3943  -49.2997 H         1 UNK         0.3000 
    206 H206       -6.5439  -22.9614  -51.6027 H         1 UNK         0.0600 
    207 H207       -6.7371  -21.6177  -49.5271 H         1 UNK         0.0600 
    208 H208       -8.2907  -22.3307  -49.9261 H         1 UNK         0.0600 
    209 H209       -7.3144  -23.0246  -48.6361 H         1 UNK         0.0600 
    210 H210       -6.2038  -25.8079  -49.6106 H         1 UNK         0.3000 
    211 H211       -8.6783  -27.0952  -50.5886 H         1 UNK         0.0600 
    212 H212       -6.4618  -28.0825  -48.7160 H         1 UNK         0.0600 
    213 H213       -7.9872  -28.8990  -49.0353 H         1 UNK         0.0600 
    214 H214       -7.9831  -27.3542  -48.2014 H         1 UNK         0.0600 
    215 H215       -5.6447  -26.5448  -51.9413 H         1 UNK         0.3000 
    216 H216       -5.7242  -28.9903  -53.6031 H         1 UNK         0.0600 
    217 H217       -3.2916  -28.0775  -51.9605 H         1 UNK         0.0600 
    218 H218       -3.2642  -29.3230  -53.2140 H         1 UNK         0.0600 
    219 H219       -4.1929  -29.5714  -51.7486 H         1 UNK         0.0600 
    220 H220       -2.8673  -27.1774  -53.7682 H         1 UNK         0.3000 
    221 H221       -3.4763  -26.1039  -56.3890 H         1 UNK         0.0600 
    222 H222       -1.2739  -27.1092  -55.8646 H         1 UNK         0.0600 
    223 H223       -0.9869  -25.8990  -54.6139 H         1 UNK         0.0600 
    224 H224       -1.0810  -25.4203  -56.3046 H         1 UNK         0.0600 
    225 H225       -5.3324  -24.8725  -55.2874 H         1 UNK         0.3000 
    226 H226       -4.9824  -22.6371  -53.6857 H         1 UNK         0.0600 
    227 H227       -7.1502  -23.7698  -54.0949 H         1 UNK         0.0600 
    228 H228       -7.2955  -22.0474  -54.4061 H         1 UNK         0.0600 
    229 H229       -7.1771  -23.1737  -55.7549 H         1 UNK         0.0600 
    230 H230       -4.0933  -22.8236  -56.9882 H         1 UNK         0.3000 
    231 H231       -4.2404  -20.0936  -57.7985 H         1 UNK         0.0600 
    232 H232       -2.2925  -22.3243  -58.6026 H         1 UNK         0.0600 
    233 H233       -2.5155  -20.8075  -59.4664 H         1 UNK         0.0600 
    234 H234       -3.8341  -21.9643  -59.3820 H         1 UNK         0.0600 
    235 H235       -2.0668  -21.7628  -55.5759 H         1 UNK         0.3000 
    236 H236        0.0668  -19.8415  -55.5350 H         1 UNK         0.0600 
    237 H237        0.2835  -22.1909  -54.6949 H         1 UNK         0.0600 
    238 H238        0.6899  -21.0296  -53.4390 H         1 UNK         0.0600 
    239 H239       -0.8685  -21.8428  -53.4060 H         1 UNK         0.0600 
    240 H240       -3.1654  -19.8019  -54.2049 H         1 UNK         0.3000 
    241 H241       -2.5892  -17.9413  -52.0503 H         1 UNK         0.0600 
    242 H242       -3.4098  -15.6741  -55.2460 H         1 UNK         0.3800 
    243 H243       -2.8314  -17.3158  -55.3840 H         1 UNK         0.3800 
    244 H244       -4.9467  -18.1011  -51.4981 H         1 UNK         0.0800 
    245 H245       -5.3392  -18.7955  -53.0464 H         1 UNK         0.0800 
    246 H246       -5.0740  -19.6871  -49.4519 H         1 UNK         0.0800 
    247 H247       -4.0446  -21.0947  -49.3349 H         1 UNK         0.0800 
@<TRIPOS>BOND
     1    1    2 1    
     2    1  127 1    
     3    1  128 1    
     4    1  129 1    
     5    2    3 2    
     6    2    4 am   BACKBONE|DICT|INTERRES
     7    4    5 1    
     8    4  130 1    
     9    5    6 1    
    10    5   65 1    
    11    5  131 1    
    12    6    7 1    
    13    6  132 1    
    14    6  133 1    
    15    7    8 1    
    16    8    9 1    
    17    8  134 1    
    18    8  135 1    
    19    9   10 ar   
    20    9   14 ar   
    21   10   11 ar   
    22   10  136 1    
    23   11   12 ar   
    24   11  126 1    
    25   12   13 ar   
    26   12  137 1    
    27   13   14 ar   
    28   13   15 1    
    29   14  138 1    
    30   15   16 1    
    31   15  139 1    
    32   15  140 1    
    33   16   17 1    
    34   17   18 1    
    35   17  141 1    
    36   17  142 1    
    37   18   19 1    
    38   18   67 1    
    39   18  143 1    
    40   19   20 am   BACKBONE|DICT|INTERRES
    41   19  144 1    
    42   20   21 2    
    43   20   22 1    
    44   22   23 1    
    45   22   24 1    
    46   22  145 1    
    47   23  146 1    
    48   23  147 1    
    49   23  148 1    
    50   24   25 am   BACKBONE|DICT|INTERRES
    51   24  149 1    
    52   25   26 2    
    53   25   27 1    
    54   27   28 1    
    55   27   29 1    
    56   27  150 1    
    57   28  151 1    
    58   28  152 1    
    59   28  153 1    
    60   29   30 am   BACKBONE|DICT|INTERRES
    61   29  154 1    
    62   30   31 2    
    63   30   32 1    
    64   32   33 1    
    65   32   34 1    
    66   32  155 1    
    67   33  156 1    
    68   33  157 1    
    69   33  158 1    
    70   34   35 am   BACKBONE|DICT|INTERRES
    71   34  159 1    
    72   35   36 2    
    73   35   37 1    
    74   37   38 1    
    75   37   39 1    
    76   37  160 1    
    77   38  161 1    
    78   38  162 1    
    79   38  163 1    
    80   39   40 am   BACKBONE|DICT|INTERRES
    81   39  164 1    
    82   40   41 2    
    83   40   42 1    
    84   42   43 1    
    85   42   44 1    
    86   42  165 1    
    87   43  166 1    
    88   43  167 1    
    89   43  168 1    
    90   44   45 am   BACKBONE|DICT|INTERRES
    91   44  169 1    
    92   45   46 2    
    93   45   47 1    
    94   47   48 1    
    95   47   49 1    
    96   47  170 1    
    97   48  171 1    
    98   48  172 1    
    99   48  173 1    
   100   49   50 am   BACKBONE|DICT|INTERRES
   101   49  174 1    
   102   50   51 2    
   103   50   52 1    
   104   52   53 1    
   105   52   54 1    
   106   52  175 1    
   107   53  176 1    
   108   53  177 1    
   109   53  178 1    
   110   54   55 am   BACKBONE|DICT|INTERRES
   111   54  179 1    
   112   55   56 2    
   113   55   57 1    
   114   57   58 1    
   115   57   59 1    
   116   57  180 1    
   117   58  181 1    
   118   58  182 1    
   119   58  183 1    
   120   59   60 am   BACKBONE|DICT|INTERRES
   121   59  184 1    
   122   60   61 2    
   123   60   62 1    
   124   62   63 1    
   125   62   64 1    
   126   62  185 1    
   127   63  186 1    
   128   63  187 1    
   129   63  188 1    
   130   64   65 am   BACKBONE|DICT|INTERRES
   131   64  189 1    
   132   65   66 2    
   133   67   68 2    
   134   67   69 am   BACKBONE|DICT|INTERRES
   135   69   70 1    
   136   69  190 1    
   137   70   71 1    
   138   70   72 1    
   139   70  191 1    
   140   71  192 1    
   141   71  193 1    
   142   71  194 1    
   143   72   73 2    
   144   72   74 am   BACKBONE|DICT|INTERRES
   145   74   75 1    
   146   74  195 1    
   147   75   76 1    
   148   75   77 1    
   149   75  196 1    
   150   76  197 1    
   151   76  198 1    
   152   76  199 1    
   153   77   78 2    
   154   77   79 am   BACKBONE|DICT|INTERRES
   155   79   80 1    
   156   79  200 1    
   157   80   81 1    
   158   80   82 1    
   159   80  201 1    
   160   81  202 1    
   161   81  203 1    
   162   81  204 1    
   163   82   83 2    
   164   82   84 am   BACKBONE|DICT|INTERRES
   165   84   85 1    
   166   84  205 1    
   167   85   86 1    
   168   85   87 1    
   169   85  206 1    
   170   86  207 1    
   171   86  208 1    
   172   86  209 1    
   173   87   88 2    
   174   87   89 am   BACKBONE|DICT|INTERRES
   175   89   90 1    
   176   89  210 1    
   177   90   91 1    
   178   90   92 1    
   179   90  211 1    
   180   91  212 1    
   181   91  213 1    
   182   91  214 1    
   183   92   93 2    
   184   92   94 am   BACKBONE|DICT|INTERRES
   185   94   95 1    
   186   94  215 1    
   187   95   96 1    
   188   95   97 1    
   189   95  216 1    
   190   96  217 1    
   191   96  218 1    
   192   96  219 1    
   193   97   98 2    
   194   97   99 am   BACKBONE|DICT|INTERRES
   195   99  100 1    
   196   99  220 1    
   197  100  101 1    
   198  100  102 1    
   199  100  221 1    
   200  101  222 1    
   201  101  223 1    
   202  101  224 1    
   203  102  103 2    
   204  102  104 am   BACKBONE|DICT|INTERRES
   205  104  105 1    
   206  104  225 1    
   207  105  106 1    
   208  105  107 1    
   209  105  226 1    
   210  106  227 1    
   211  106  228 1    
   212  106  229 1    
   213  107  108 2    
   214  107  109 am   BACKBONE|DICT|INTERRES
   215  109  110 1    
   216  109  230 1    
   217  110  111 1    
   218  110  112 1    
   219  110  231 1    
   220  111  232 1    
   221  111  233 1    
   222  111  234 1    
   223  112  113 2    
   224  112  114 am   BACKBONE|DICT|INTERRES
   225  114  115 1    
   226  114  235 1    
   227  115  116 1    
   228  115  117 1    
   229  115  236 1    
   230  116  237 1    
   231  116  238 1    
   232  116  239 1    
   233  117  118 2    
   234  117  119 am   BACKBONE|DICT|INTERRES
   235  119  120 1    
   236  119  240 1    
   237  120  121 1    
   238  120  124 1    
   239  120  241 1    
   240  121  122 am   BACKBONE|DICT|INTERRES
   241  121  123 2    
   242  122  242 1    
   243  122  243 1    
   244  124  125 1    
   245  124  244 1    
   246  124  245 1    
   247  125  126 1    
   248  126  246 1    
   249  126  247 1    
@<TRIPOS>SUBSTRUCTURE
     1 UNK         1 GROUP             0       ****    0 ROOT    
