@<TRIPOS>MOLECULE
3R540
247   249    1
SMALL
USER_CHARGES


@<TRIPOS>ATOM
      1 CA          4.2056  -10.8314  -49.1402 C.3       0 UNK        -0.1800 
      2 C           3.4003  -11.3686  -47.9672 C.2       0 UNK         0.5000 
      3 O           2.4856  -10.6961  -47.4922 O.2       0 UNK        -0.5000 
      4 N           3.7120  -12.5899  -47.5129 N.am      1 UNK        -0.5000 
      5 CA          3.0884  -13.2544  -46.3568 C.3       1 UNK         0.1400 
      6 C6          3.9979  -14.3905  -45.7989 C.3       23 UNK        -0.0398 
      7 S7          3.6425  -16.0992  -46.3390 S.3       23 UNK        -0.2404 
      8 C8          4.3867  -16.1582  -47.9926 C.3       23 UNK        -0.0205 
      9 C9          3.8335  -17.3316  -48.7868 C.ar      23 UNK        -0.0193 
     10 C10         2.7941  -17.1330  -49.7005 C.ar      23 UNK        -0.1150 
     11 C11         2.2906  -18.2039  -50.4434 C.ar      23 UNK        -0.0193 
     12 C12         2.8358  -19.4780  -50.2705 C.ar      23 UNK        -0.1150 
     13 C13         3.8595  -19.6990  -49.3421 C.ar      23 UNK        -0.0193 
     14 C14         4.3571  -18.6161  -48.6089 C.ar      23 UNK        -0.1150 
     15 C15         4.4567  -21.0904  -49.1337 C.3       23 UNK        -0.0205 
     16 S16         3.2387  -22.4516  -49.1930 S.3       23 UNK        -0.2404 
     17 C17         2.0919  -21.9530  -47.8678 C.3       23 UNK        -0.0398 
     18 CA          1.2569  -23.1306  -47.3113 C.3       11 UNK         0.1400 
     19 N           0.7341  -22.8216  -45.9797 N.am      11 UNK        -0.5000 
     20 C           0.0724  -23.6708  -45.1827 C.2       10 UNK         0.5000 
     21 O          -0.1316  -24.8533  -45.4555 O.2       10 UNK        -0.5000 
     22 CA         -0.4971  -23.0796  -43.8816 C.3       10 UNK         0.1400 
     23 CB          0.5795  -23.0160  -42.7877 C.3       10 UNK        -0.1800 
     24 N          -1.0645  -21.7468  -44.0917 N.am      10 UNK        -0.5000 
     25 C          -2.1920  -21.5063  -44.7755 C.2       9 UNK         0.5000 
     26 O          -2.8942  -22.3887  -45.2681 O.2       9 UNK        -0.5000 
     27 CA         -2.5721  -20.0288  -44.9824 C.3       9 UNK         0.1400 
     28 CB         -3.2588  -19.4554  -43.7347 C.3       9 UNK        -0.1800 
     29 N          -1.4211  -19.1964  -45.3315 N.am      9 UNK        -0.5000 
     30 C          -0.7352  -19.3134  -46.4780 C.2       8 UNK         0.5000 
     31 O          -1.0102  -20.1266  -47.3561 O.2       8 UNK        -0.5000 
     32 CA          0.4897  -18.4028  -46.6574 C.3       8 UNK         0.1400 
     33 CB          0.0418  -17.0357  -47.1842 C.3       8 UNK        -0.1800 
     34 N           1.2548  -18.2014  -45.4287 N.am      8 UNK        -0.5000 
     35 C           1.7512  -19.1563  -44.6330 C.2       7 UNK         0.5000 
     36 O           1.6584  -20.3598  -44.8724 O.2       7 UNK        -0.5000 
     37 CA          2.4320  -18.7025  -43.3274 C.3       7 UNK         0.1400 
     38 CB          3.9577  -18.8334  -43.4488 C.3       7 UNK        -0.1800 
     39 N           2.1038  -17.3415  -42.8830 N.am      7 UNK        -0.5000 
     40 C           0.8827  -16.8723  -42.5838 C.2       6 UNK         0.5000 
     41 O          -0.1554  -17.5158  -42.7535 O.2       6 UNK        -0.5000 
     42 CA          0.7980  -15.4531  -41.9956 C.3       6 UNK         0.1400 
     43 CB          2.1618  -14.8034  -41.6805 C.3       6 UNK        -0.1800 
     44 N           0.0578  -14.5969  -42.9143 N.am      6 UNK        -0.5000 
     45 C          -0.8313  -13.6654  -42.5579 C.2       5 UNK         0.5000 
     46 O          -1.1536  -13.4213  -41.3926 O.2       5 UNK        -0.5000 
     47 CA         -1.4608  -12.8624  -43.7135 C.3       5 UNK         0.1400 
     48 CB         -2.9843  -12.7425  -43.5426 C.3       5 UNK        -0.1800 
     49 N          -0.9080  -11.5186  -43.9131 N.am      5 UNK        -0.5000 
     50 C           0.3706  -11.1119  -43.8636 C.2       4 UNK         0.5000 
     51 O           1.3218  -11.7993  -43.4917 O.2       4 UNK        -0.5000 
     52 CA          0.6251   -9.6991  -44.4215 C.3       4 UNK         0.1400 
     53 CB          2.0706   -9.2176  -44.2008 C.3       4 UNK        -0.1800 
     54 N           0.3517   -9.7146  -45.8560 N.am      4 UNK        -0.5000 
     55 C          -0.8487   -9.5260  -46.4181 C.2       3 UNK         0.5000 
     56 O          -1.8506   -9.1778  -45.7923 O.2       3 UNK        -0.5000 
     57 CA         -0.9556   -9.8716  -47.9106 C.3       3 UNK         0.1400 
     58 CB         -0.2252   -8.8358  -48.7804 C.3       3 UNK        -0.1800 
     59 N          -0.4024  -11.2039  -48.1563 N.am      3 UNK        -0.5000 
     60 C          -1.0767  -12.3490  -47.9726 C.2       2 UNK         0.5000 
     61 O          -2.2628  -12.3959  -47.6468 O.2       2 UNK        -0.5000 
     62 CA         -0.3014  -13.6647  -48.1712 C.3       2 UNK         0.1400 
     63 CB         -0.4165  -14.1563  -49.6225 C.3       2 UNK        -0.1800 
     64 N           1.1116  -13.5260  -47.8207 N.am      2 UNK        -0.5000 
     65 C           1.6075  -13.6597  -46.5821 C.2       1 UNK         0.5000 
     66 O           0.9482  -14.0889  -45.6347 O.2       1 UNK        -0.5000 
     67 C           0.1288  -23.5522  -48.2780 C.2       11 UNK         0.5000 
     68 O           0.2416  -24.5886  -48.9336 O.2       11 UNK        -0.5000 
     69 N          -0.9652  -22.7772  -48.2986 N.am      12 UNK        -0.5000 
     70 CA         -2.1753  -23.0669  -49.0621 C.3       12 UNK         0.1400 
     71 CB         -3.1452  -21.8840  -48.9718 C.3       12 UNK        -0.1800 
     72 C          -2.8611  -24.3630  -48.6063 C.2       12 UNK         0.5000 
     73 O          -3.2255  -25.1710  -49.4568 O.2       12 UNK        -0.5000 
     74 N          -2.9812  -24.5691  -47.2862 N.am      13 UNK        -0.5000 
     75 CA         -3.5445  -25.7841  -46.6933 C.3       13 UNK         0.1400 
     76 CB         -3.6577  -25.6224  -45.1705 C.3       13 UNK        -0.1800 
     77 C          -2.7494  -27.0528  -47.0546 C.2       13 UNK         0.5000 
     78 O          -3.3573  -28.0692  -47.3909 O.2       13 UNK        -0.5000 
     79 N          -1.4120  -26.9579  -47.0365 N.am      14 UNK        -0.5000 
     80 CA         -0.4959  -28.0169  -47.4676 C.3       14 UNK         0.1400 
     81 CB          0.9420  -27.6357  -47.0845 C.3       14 UNK        -0.1800 
     82 C          -0.5981  -28.3261  -48.9750 C.2       14 UNK         0.5000 
     83 O          -0.4901  -29.4891  -49.3651 O.2       14 UNK        -0.5000 
     84 N          -0.8366  -27.2890  -49.7887 N.am      15 UNK        -0.5000 
     85 CA         -1.0754  -27.3853  -51.2312 C.3       15 UNK         0.1400 
     86 CB         -0.7711  -26.0206  -51.8715 C.3       15 UNK        -0.1800 
     87 C          -2.5049  -27.8456  -51.5947 C.2       15 UNK         0.5000 
     88 O          -2.7620  -28.1152  -52.7687 O.2       15 UNK        -0.5000 
     89 N          -3.4033  -27.9105  -50.6000 N.am      16 UNK        -0.5000 
     90 CA         -4.8408  -28.1862  -50.6987 C.3       16 UNK         0.1400 
     91 CB         -5.0997  -29.6225  -51.1998 C.3       16 UNK        -0.1800 
     92 C          -5.6023  -27.1077  -51.5022 C.2       16 UNK         0.5000 
     93 O          -6.5238  -27.4271  -52.2563 O.2       16 UNK        -0.5000 
     94 N          -5.1983  -25.8467  -51.3184 N.am      17 UNK        -0.5000 
     95 CA         -5.7771  -24.6526  -51.9248 C.3       17 UNK         0.1400 
     96 CB         -4.6526  -23.8954  -52.6534 C.3       17 UNK        -0.1800 
     97 C          -6.3989  -23.7556  -50.8409 C.2       17 UNK         0.5000 
     98 O          -6.1438  -23.9423  -49.6485 O.2       17 UNK        -0.5000 
     99 N          -7.1836  -22.7650  -51.2797 N.am      18 UNK        -0.5000 
    100 CA        -7.6534  -21.6639  -50.4396 C.3       18 UNK         0.1400 
    101 CB        -8.8467  -20.9851  -51.1296 C.3       18 UNK        -0.1800 
    102 C         -6.5208  -20.6459  -50.2253 C.2       18 UNK         0.5000 
    103 O         -5.7179  -20.4354  -51.1374 O.2       18 UNK        -0.5000 
    104 N         -6.4970  -19.9891  -49.0585 N.am      19 UNK        -0.5000 
    105 CA        -5.4939  -18.9773  -48.6981 C.3       19 UNK         0.1400 
    106 CB        -5.6713  -18.5912  -47.2220 C.3       19 UNK        -0.1800 
    107 C         -5.5197  -17.7253  -49.5987 C.2       19 UNK         0.5000 
    108 O         -4.4841  -17.0860  -49.7795 O.2       19 UNK        -0.5000 
    109 N         -6.6941  -17.4182  -50.1678 N.am      20 UNK        -0.5000 
    110 CA        -6.8903  -16.3504  -51.1487 C.3       20 UNK         0.1400 
    111 CB        -8.3935  -16.0577  -51.2730 C.3       20 UNK        -0.1800 
    112 C         -6.2910  -16.6840  -52.5298 C.2       20 UNK         0.5000 
    113 O         -5.8915  -15.7676  -53.2489 O.2       20 UNK        -0.5000 
    114 N         -6.2405  -17.9782  -52.8766 N.am      21 UNK        -0.5000 
    115 CA        -5.6229  -18.4809  -54.1035 C.3       21 UNK         0.1400 
    116 CB        -6.3043  -19.7944  -54.5222 C.3       21 UNK        -0.1800 
    117 C         -4.1112  -18.6811  -53.9090 C.2       21 UNK         0.5000 
    118 O         -3.3257  -18.2683  -54.7624 O.2       21 UNK        -0.5000 
    119 N         -3.7405  -19.2884  -52.7738 N.am      22 UNK        -0.5000 
    120 CA        -2.3615  -19.5453  -52.3316 C.3       22 UNK         0.1400 
    121 C         -1.5892  -20.6090  -53.1743 C.2       22 UNK         0.5000 
    122 N         -2.2661  -21.4464  -53.9512 N.am      22 UNK        -0.7600 
    123 O         -0.3670  -20.7009  -53.1142 O.2       22 UNK        -0.5000 
    124 C124       -1.5706  -18.2267  -52.0903 C.3       23 UNK        -0.0398 
    125 S125       -0.4501  -18.3348  -50.6558 S.3       23 UNK        -0.2404 
    126 C126        1.1567  -17.9950  -51.4329 C.3       23 UNK        -0.0205 
    127 H127        3.5451  -10.6131  -49.9793 H         1 UNK         0.0600 
    128 H128        4.9596  -11.5438  -49.4755 H         1 UNK         0.0600 
    129 H129        4.7110   -9.9090  -48.8544 H         1 UNK         0.0600 
    130 H130        4.4686  -13.0937  -47.9521 H         1 UNK         0.3000 
    131 H131        3.0474  -12.4929  -45.5747 H         1 UNK         0.0600 
    132 H132        5.0521  -14.1724  -45.9757 H         1 UNK         0.0800 
    133 H133        3.8969  -14.4001  -44.7133 H         1 UNK         0.0800 
    134 H134        5.4709  -16.2395  -47.9030 H         1 UNK         0.0800 
    135 H135        4.1854  -15.2274  -48.5231 H         1 UNK         0.0800 
    136 H136        2.3740  -16.1458  -49.8311 H         1 UNK         0.1150 
    137 H137        2.4457  -20.3011  -50.8526 H         1 UNK         0.1150 
    138 H138        5.1543  -18.7694  -47.8950 H         1 UNK         0.1150 
    139 H139        5.2090  -21.2621  -49.9043 H         1 UNK         0.0800 
    140 H140        4.9788  -21.1391  -48.1768 H         1 UNK         0.0800 
    141 H141        1.4508  -21.1477  -48.2300 H         1 UNK         0.0800 
    142 H142        2.6941  -21.5204  -47.0677 H         1 UNK         0.0800 
    143 H143        1.9192  -23.9902  -47.1871 H         1 UNK         0.0600 
    144 H144        0.8989  -21.8774  -45.6391 H         1 UNK         0.3000 
    145 H145       -1.2941  -23.7400  -43.5339 H         1 UNK         0.0600 
    146 H146        0.1657  -22.6481  -41.8487 H         1 UNK         0.0600 
    147 H147        0.9946  -24.0059  -42.5939 H         1 UNK         0.0600 
    148 H148        1.4069  -22.3636  -43.0680 H         1 UNK         0.0600 
    149 H149       -0.5149  -20.9624  -43.7727 H         1 UNK         0.3000 
    150 H150       -3.2813  -19.9855  -45.8114 H         1 UNK         0.0600 
    151 H151       -4.1255  -20.0557  -43.4549 H         1 UNK         0.0600 
    152 H152       -3.6113  -18.4392  -43.9125 H         1 UNK         0.0600 
    153 H153       -2.5836  -19.4302  -42.8782 H         1 UNK         0.0600 
    154 H154       -1.1056  -18.5289  -44.6383 H         1 UNK         0.3000 
    155 H155        1.1490  -18.8623  -47.3961 H         1 UNK         0.0600 
    156 H156       -0.4774  -16.4645  -46.4140 H         1 UNK         0.0600 
    157 H157        0.8949  -16.4513  -47.5246 H         1 UNK         0.0600 
    158 H158       -0.6387  -17.1340  -48.0295 H         1 UNK         0.0600 
    159 H159        1.4150  -17.2423  -45.1584 H         1 UNK         0.3000 
    160 H160        2.0950  -19.3863  -42.5458 H         1 UNK         0.0600 
    161 H161        4.2421  -19.8434  -43.7475 H         1 UNK         0.0600 
    162 H162        4.3629  -18.1465  -44.1923 H         1 UNK         0.0600 
    163 H163        4.4494  -18.6281  -42.4978 H         1 UNK         0.0600 
    164 H164        2.8920  -16.7300  -42.7283 H         1 UNK         0.3000 
    165 H165        0.2464  -15.5528  -41.0587 H         1 UNK         0.0600 
    166 H166        2.0249  -13.8330  -41.2026 H         1 UNK         0.0600 
    167 H167        2.7478  -15.4161  -40.9943 H         1 UNK         0.0600 
    168 H168        2.7519  -14.6385  -42.5822 H         1 UNK         0.0600 
    169 H169        0.3088  -14.6672  -43.8976 H         1 UNK         0.3000 
    170 H170       -1.2949  -13.4122  -44.6403 H         1 UNK         0.0600 
    171 H171       -3.4397  -13.7223  -43.3920 H         1 UNK         0.0600 
    172 H172       -3.2458  -12.1224  -42.6842 H         1 UNK         0.0600 
    173 H173       -3.4467  -12.3038  -44.4273 H         1 UNK         0.0600 
    174 H174       -1.5723  -10.8384  -44.2590 H         1 UNK         0.3000 
    175 H175       -0.0463   -9.0032  -43.9142 H         1 UNK         0.0600 
    176 H176        2.7934   -9.8644  -44.7003 H         1 UNK         0.0600 
    177 H177        2.2096   -8.2064  -44.5832 H         1 UNK         0.0600 
    178 H178        2.3191   -9.2018  -43.1390 H         1 UNK         0.0600 
    179 H179        1.1153  -10.0380  -46.4465 H         1 UNK         0.3000 
    180 H180       -2.0116   -9.8594  -48.1894 H         1 UNK         0.0600 
    181 H181        0.8422   -8.7955  -48.5612 H         1 UNK         0.0600 
    182 H182       -0.6310   -7.8367  -48.6174 H         1 UNK         0.0600 
    183 H183       -0.3393   -9.0638  -49.8402 H         1 UNK         0.0600 
    184 H184        0.5908  -11.2442  -48.3416 H         1 UNK         0.3000 
    185 H185       -0.7687  -14.4087  -47.5255 H         1 UNK         0.0600 
    186 H186        0.0695  -15.1237  -49.7502 H         1 UNK         0.0600 
    187 H187       -1.4613  -14.2815  -49.9100 H         1 UNK         0.0600 
    188 H188        0.0371  -13.4560  -50.3246 H         1 UNK         0.0600 
    189 H189        1.7339  -13.2040  -48.5464 H         1 UNK         0.3000 
    190 H190       -0.9697  -21.9078  -47.7689 H         1 UNK         0.3000 
    191 H191       -1.8849  -23.1871  -50.1078 H         1 UNK         0.0600 
    192 H192       -3.5058  -21.7305  -47.9542 H         1 UNK         0.0600 
    193 H193       -4.0124  -22.0511  -49.6093 H         1 UNK         0.0600 
    194 H194       -2.6705  -20.9604  -49.2986 H         1 UNK         0.0600 
    195 H195       -2.6974  -23.8370  -46.6430 H         1 UNK         0.3000 
    196 H196       -4.5531  -25.9035  -47.0948 H         1 UNK         0.0600 
    197 H197       -4.0974  -26.5106  -44.7153 H         1 UNK         0.0600 
    198 H198       -4.2934  -24.7760  -44.9105 H         1 UNK         0.0600 
    199 H199       -2.6838  -25.4647  -44.7077 H         1 UNK         0.0600 
    200 H200       -0.9877  -26.0974  -46.7008 H         1 UNK         0.3000 
    201 H201       -0.7605  -28.9272  -46.9257 H         1 UNK         0.0600 
    202 H202        1.0372  -27.4905  -46.0083 H         1 UNK         0.0600 
    203 H203        1.2593  -26.7147  -47.5741 H         1 UNK         0.0600 
    204 H204        1.6441  -28.4196  -47.3712 H         1 UNK         0.0600 
    205 H205       -0.8577  -26.3561  -49.3908 H         1 UNK         0.3000 
    206 H206       -0.3819  -28.1173  -51.6499 H         1 UNK         0.0600 
    207 H207        0.2469  -25.6987  -51.6513 H         1 UNK         0.0600 
    208 H208       -0.8702  -26.0651  -52.9567 H         1 UNK         0.0600 
    209 H209       -1.4508  -25.2473  -51.5134 H         1 UNK         0.0600 
    210 H210       -3.0853  -27.6334  -49.6802 H         1 UNK         0.3000 
    211 H211       -5.2247  -28.1239  -49.6795 H         1 UNK         0.0600 
    212 H212       -4.8057  -29.7501  -52.2418 H         1 UNK         0.0600 
    213 H213       -6.1580  -29.8755  -51.1271 H         1 UNK         0.0600 
    214 H214       -4.5511  -30.3519  -50.6039 H         1 UNK         0.0600 
    215 H215       -4.4731  -25.6642  -50.6244 H         1 UNK         0.3000 
    216 H216       -6.5551  -24.9193  -52.6427 H         1 UNK         0.0600 
    217 H217       -5.0333  -23.0037  -53.1525 H         1 UNK         0.0600 
    218 H218       -4.1875  -24.5206  -53.4159 H         1 UNK         0.0600 
    219 H219       -3.8702  -23.5758  -51.9633 H         1 UNK         0.0600 
    220 H220       -7.3207  -22.6548  -52.2734 H         1 UNK         0.3000 
    221 H221       -7.9772  -22.0554  -49.4728 H         1 UNK         0.0600 
    222 H222       -8.5701  -20.5662  -52.0984 H         1 UNK         0.0600 
    223 H223       -9.6612  -21.6915  -51.2912 H         1 UNK         0.0600 
    224 H224       -9.2413  -20.1710  -50.5203 H         1 UNK         0.0600 
    225 H225       -7.1938  -20.2013  -48.3588 H         1 UNK         0.3000 
    226 H226       -4.5072  -19.4284  -48.8113 H         1 UNK         0.0600 
    227 H227       -5.5932  -19.4637  -46.5732 H         1 UNK         0.0600 
    228 H228       -4.9017  -17.8844  -46.9084 H         1 UNK         0.0600 
    229 H229       -6.6404  -18.1244  -47.0419 H         1 UNK         0.0600 
    230 H230       -7.4977  -17.9864  -49.9453 H         1 UNK         0.3000 
    231 H231       -6.3957  -15.4487  -50.7809 H         1 UNK         0.0600 
    232 H232       -8.5762  -15.2474  -51.9801 H         1 UNK         0.0600 
    233 H233       -8.8168  -15.7532  -50.3157 H         1 UNK         0.0600 
    234 H234       -8.9466  -16.9301  -51.6236 H         1 UNK         0.0600 
    235 H235       -6.5266  -18.6729  -52.2011 H         1 UNK         0.3000 
    236 H236       -5.7695  -17.7567  -54.9079 H         1 UNK         0.0600 
    237 H237       -7.3701  -19.6454  -54.6955 H         1 UNK         0.0600 
    238 H238       -5.8750  -20.1761  -55.4494 H         1 UNK         0.0600 
    239 H239       -6.1954  -20.5727  -53.7667 H         1 UNK         0.0600 
    240 H240       -4.4675  -19.6371  -52.1518 H         1 UNK         0.3000 
    241 H241       -2.4981  -20.0251  -51.3642 H         1 UNK         0.0600 
    242 H242       -3.2679  -21.3841  -54.0198 H         1 UNK         0.3800 
    243 H243       -1.7642  -22.1337  -54.4901 H         1 UNK         0.3800 
    244 H244       -1.0315  -17.9201  -52.9881 H         1 UNK         0.0800 
    245 H245       -2.2602  -17.4105  -51.8689 H         1 UNK         0.0800 
    246 H246        1.2937  -18.6509  -52.2940 H         1 UNK         0.0800 
    247 H247        1.1671  -16.9727  -51.8139 H         1 UNK         0.0800 
@<TRIPOS>BOND
     1    1    2 1    
     2    1  127 1    
     3    1  128 1    
     4    1  129 1    
     5    2    3 2    
     6    2    4 am   BACKBONE|DICT|INTERRES
     7    4    5 1    
     8    4  130 1    
     9    5    6 1    
    10    5   65 1    
    11    5  131 1    
    12    6    7 1    
    13    6  132 1    
    14    6  133 1    
    15    7    8 1    
    16    8    9 1    
    17    8  134 1    
    18    8  135 1    
    19    9   10 ar   
    20    9   14 ar   
    21   10   11 ar   
    22   10  136 1    
    23   11   12 ar   
    24   11  126 1    
    25   12   13 ar   
    26   12  137 1    
    27   13   14 ar   
    28   13   15 1    
    29   14  138 1    
    30   15   16 1    
    31   15  139 1    
    32   15  140 1    
    33   16   17 1    
    34   17   18 1    
    35   17  141 1    
    36   17  142 1    
    37   18   19 1    
    38   18   67 1    
    39   18  143 1    
    40   19   20 am   BACKBONE|DICT|INTERRES
    41   19  144 1    
    42   20   21 2    
    43   20   22 1    
    44   22   23 1    
    45   22   24 1    
    46   22  145 1    
    47   23  146 1    
    48   23  147 1    
    49   23  148 1    
    50   24   25 am   BACKBONE|DICT|INTERRES
    51   24  149 1    
    52   25   26 2    
    53   25   27 1    
    54   27   28 1    
    55   27   29 1    
    56   27  150 1    
    57   28  151 1    
    58   28  152 1    
    59   28  153 1    
    60   29   30 am   BACKBONE|DICT|INTERRES
    61   29  154 1    
    62   30   31 2    
    63   30   32 1    
    64   32   33 1    
    65   32   34 1    
    66   32  155 1    
    67   33  156 1    
    68   33  157 1    
    69   33  158 1    
    70   34   35 am   BACKBONE|DICT|INTERRES
    71   34  159 1    
    72   35   36 2    
    73   35   37 1    
    74   37   38 1    
    75   37   39 1    
    76   37  160 1    
    77   38  161 1    
    78   38  162 1    
    79   38  163 1    
    80   39   40 am   BACKBONE|DICT|INTERRES
    81   39  164 1    
    82   40   41 2    
    83   40   42 1    
    84   42   43 1    
    85   42   44 1    
    86   42  165 1    
    87   43  166 1    
    88   43  167 1    
    89   43  168 1    
    90   44   45 am   BACKBONE|DICT|INTERRES
    91   44  169 1    
    92   45   46 2    
    93   45   47 1    
    94   47   48 1    
    95   47   49 1    
    96   47  170 1    
    97   48  171 1    
    98   48  172 1    
    99   48  173 1    
   100   49   50 am   BACKBONE|DICT|INTERRES
   101   49  174 1    
   102   50   51 2    
   103   50   52 1    
   104   52   53 1    
   105   52   54 1    
   106   52  175 1    
   107   53  176 1    
   108   53  177 1    
   109   53  178 1    
   110   54   55 am   BACKBONE|DICT|INTERRES
   111   54  179 1    
   112   55   56 2    
   113   55   57 1    
   114   57   58 1    
   115   57   59 1    
   116   57  180 1    
   117   58  181 1    
   118   58  182 1    
   119   58  183 1    
   120   59   60 am   BACKBONE|DICT|INTERRES
   121   59  184 1    
   122   60   61 2    
   123   60   62 1    
   124   62   63 1    
   125   62   64 1    
   126   62  185 1    
   127   63  186 1    
   128   63  187 1    
   129   63  188 1    
   130   64   65 am   BACKBONE|DICT|INTERRES
   131   64  189 1    
   132   65   66 2    
   133   67   68 2    
   134   67   69 am   BACKBONE|DICT|INTERRES
   135   69   70 1    
   136   69  190 1    
   137   70   71 1    
   138   70   72 1    
   139   70  191 1    
   140   71  192 1    
   141   71  193 1    
   142   71  194 1    
   143   72   73 2    
   144   72   74 am   BACKBONE|DICT|INTERRES
   145   74   75 1    
   146   74  195 1    
   147   75   76 1    
   148   75   77 1    
   149   75  196 1    
   150   76  197 1    
   151   76  198 1    
   152   76  199 1    
   153   77   78 2    
   154   77   79 am   BACKBONE|DICT|INTERRES
   155   79   80 1    
   156   79  200 1    
   157   80   81 1    
   158   80   82 1    
   159   80  201 1    
   160   81  202 1    
   161   81  203 1    
   162   81  204 1    
   163   82   83 2    
   164   82   84 am   BACKBONE|DICT|INTERRES
   165   84   85 1    
   166   84  205 1    
   167   85   86 1    
   168   85   87 1    
   169   85  206 1    
   170   86  207 1    
   171   86  208 1    
   172   86  209 1    
   173   87   88 2    
   174   87   89 am   BACKBONE|DICT|INTERRES
   175   89   90 1    
   176   89  210 1    
   177   90   91 1    
   178   90   92 1    
   179   90  211 1    
   180   91  212 1    
   181   91  213 1    
   182   91  214 1    
   183   92   93 2    
   184   92   94 am   BACKBONE|DICT|INTERRES
   185   94   95 1    
   186   94  215 1    
   187   95   96 1    
   188   95   97 1    
   189   95  216 1    
   190   96  217 1    
   191   96  218 1    
   192   96  219 1    
   193   97   98 2    
   194   97   99 am   BACKBONE|DICT|INTERRES
   195   99  100 1    
   196   99  220 1    
   197  100  101 1    
   198  100  102 1    
   199  100  221 1    
   200  101  222 1    
   201  101  223 1    
   202  101  224 1    
   203  102  103 2    
   204  102  104 am   BACKBONE|DICT|INTERRES
   205  104  105 1    
   206  104  225 1    
   207  105  106 1    
   208  105  107 1    
   209  105  226 1    
   210  106  227 1    
   211  106  228 1    
   212  106  229 1    
   213  107  108 2    
   214  107  109 am   BACKBONE|DICT|INTERRES
   215  109  110 1    
   216  109  230 1    
   217  110  111 1    
   218  110  112 1    
   219  110  231 1    
   220  111  232 1    
   221  111  233 1    
   222  111  234 1    
   223  112  113 2    
   224  112  114 am   BACKBONE|DICT|INTERRES
   225  114  115 1    
   226  114  235 1    
   227  115  116 1    
   228  115  117 1    
   229  115  236 1    
   230  116  237 1    
   231  116  238 1    
   232  116  239 1    
   233  117  118 2    
   234  117  119 am   BACKBONE|DICT|INTERRES
   235  119  120 1    
   236  119  240 1    
   237  120  121 1    
   238  120  124 1    
   239  120  241 1    
   240  121  122 am   BACKBONE|DICT|INTERRES
   241  121  123 2    
   242  122  242 1    
   243  122  243 1    
   244  124  125 1    
   245  124  244 1    
   246  124  245 1    
   247  125  126 1    
   248  126  246 1    
   249  126  247 1    
@<TRIPOS>SUBSTRUCTURE
     1 UNK         1 GROUP             0       ****    0 ROOT    
