@<TRIPOS>MOLECULE
3R540
247   249    1
SMALL
USER_CHARGES


@<TRIPOS>ATOM
      1 CA         -4.3004  -17.0305  -46.0208 C.3       0 UNK        -0.1800 
      2 C          -2.9660  -16.3105  -45.8993 C.2       0 UNK         0.5000 
      3 O          -2.8653  -15.3440  -45.1457 O.2       0 UNK        -0.5000 
      4 N          -1.9303  -16.8008  -46.5945 N.am      1 UNK        -0.5000 
      5 CA         -0.5368  -16.3470  -46.4770 C.3       1 UNK         0.1400 
      6 C6          0.3963  -17.1011  -47.4597 C.3       23 UNK        -0.0398 
      7 S7          0.5632  -16.2850  -49.0844 S.3       23 UNK        -0.2404 
      8 C8          0.1114  -17.5865  -50.2970 C.3       23 UNK        -0.0205 
      9 C9          0.7667  -18.9592  -50.1082 C.ar      23 UNK        -0.0193 
     10 C10         0.1054  -20.1001  -50.5785 C.ar      23 UNK        -0.1150 
     11 C11         0.6720  -21.3719  -50.4363 C.ar      23 UNK        -0.0193 
     12 C12         1.8895  -21.5086  -49.7696 C.ar      23 UNK        -0.1150 
     13 C13         2.5444  -20.3855  -49.2642 C.ar      23 UNK        -0.0193 
     14 C14         2.0082  -19.1127  -49.4810 C.ar      23 UNK        -0.1150 
     15 C15         3.7864  -20.5489  -48.4065 C.3       23 UNK        -0.0205 
     16 S16         3.4192  -21.2700  -46.7629 S.3       23 UNK        -0.2404 
     17 C17         1.8087  -20.5410  -46.2635 C.3       23 UNK        -0.0398 
     18 CA          0.7630  -21.6385  -45.9436 C.3       11 UNK         0.1400 
     19 N           1.1844  -22.4153  -44.7723 N.am      11 UNK        -0.5000 
     20 C           0.8734  -23.6912  -44.5123 C.2       10 UNK         0.5000 
     21 O           0.1140  -24.3565  -45.2173 O.2       10 UNK        -0.5000 
     22 CA          1.5004  -24.3377  -43.2593 C.3       10 UNK         0.1400 
     23 CB          2.7053  -25.2047  -43.6557 C.3       10 UNK        -0.1800 
     24 N           1.9324  -23.3696  -42.2496 N.am      10 UNK        -0.5000 
     25 C           1.1093  -22.6408  -41.4841 C.2       9 UNK         0.5000 
     26 O          -0.1167  -22.7508  -41.5070 O.2       9 UNK        -0.5000 
     27 CA          1.7580  -21.6060  -40.5390 C.3       9 UNK         0.1400 
     28 CB          1.8601  -22.1784  -39.1169 C.3       9 UNK        -0.1800 
     29 N           3.0808  -21.1118  -40.9448 N.am      9 UNK        -0.5000 
     30 C           3.3829  -20.5270  -42.1123 C.2       8 UNK         0.5000 
     31 O           2.5920  -20.4331  -43.0506 O.2       8 UNK        -0.5000 
     32 CA          4.8309  -20.0189  -42.2607 C.3       8 UNK         0.1400 
     33 CB          5.7884  -21.2040  -42.4686 C.3       8 UNK        -0.1800 
     34 N           5.0137  -19.0839  -43.3734 N.am      8 UNK        -0.5000 
     35 C           4.4545  -17.8724  -43.4879 C.2       7 UNK         0.5000 
     36 O           3.7174  -17.3666  -42.6362 O.2       7 UNK        -0.5000 
     37 CA          4.8081  -17.0865  -44.7633 C.3       7 UNK         0.1400 
     38 CB          4.4895  -17.8724  -46.0468 C.3       7 UNK        -0.1800 
     39 N           4.0795  -15.8258  -44.7737 N.am      7 UNK        -0.5000 
     40 C           4.4227  -14.7217  -45.4466 C.2       6 UNK         0.5000 
     41 O           5.4213  -14.6389  -46.1628 O.2       6 UNK        -0.5000 
     42 CA          3.4953  -13.5019  -45.2984 C.3       6 UNK         0.1400 
     43 CB          2.5801  -13.3713  -46.5267 C.3       6 UNK        -0.1800 
     44 N           2.6611  -13.5929  -44.1024 N.am      6 UNK        -0.5000 
     45 C           3.0447  -13.2578  -42.8639 C.2       5 UNK         0.5000 
     46 O           4.1474  -12.7754  -42.5994 O.2       5 UNK        -0.5000 
     47 CA          2.0173  -13.5213  -41.7424 C.3       5 UNK         0.1400 
     48 CB          2.2631  -12.6732  -40.4774 C.3       5 UNK        -0.1800 
     49 N           0.6325  -13.3933  -42.2077 N.am      5 UNK        -0.5000 
     50 C           0.0221  -12.2957  -42.6826 C.2       4 UNK         0.5000 
     51 O           0.5407  -11.1791  -42.7137 O.2       4 UNK        -0.5000 
     52 CA         -1.4011  -12.4745  -43.2514 C.3       4 UNK         0.1400 
     53 CB         -1.3793  -12.3403  -44.7828 C.3       4 UNK        -0.1800 
     54 N          -2.0079  -13.7611  -42.9086 N.am      4 UNK        -0.5000 
     55 C          -2.4570  -14.1078  -41.6957 C.2       3 UNK         0.5000 
     56 O          -2.4870  -13.3439  -40.7305 O.2       3 UNK        -0.5000 
     57 CA         -2.9050  -15.5704  -41.5273 C.3       3 UNK         0.1400 
     58 CB         -4.3769  -15.7425  -41.9324 C.3       3 UNK        -0.1800 
     59 N          -2.0750  -16.5051  -42.2927 N.am      3 UNK        -0.5000 
     60 C          -0.7986  -16.8029  -42.0095 C.2       2 UNK         0.5000 
     61 O          -0.1694  -16.3023  -41.0779 O.2       2 UNK        -0.5000 
     62 CA         -0.1094  -17.8233  -42.9338 C.3       2 UNK         0.1400 
     63 CB         -0.5819  -19.2412  -42.5788 C.3       2 UNK        -0.1800 
     64 N          -0.3653  -17.5735  -44.3524 N.am      2 UNK        -0.5000 
     65 C          -0.0171  -16.4677  -45.0245 C.2       1 UNK         0.5000 
     66 O           0.6392  -15.5483  -44.5335 O.2       1 UNK        -0.5000 
     67 C          -0.6671  -21.0770  -45.7524 C.2       11 UNK         0.5000 
     68 O          -0.9025  -19.8779  -45.9103 O.2       11 UNK        -0.5000 
     69 N          -1.6074  -21.9476  -45.3716 N.am      12 UNK        -0.5000 
     70 CA         -2.9718  -21.6168  -44.9603 C.3       12 UNK         0.1400 
     71 CB         -3.4483  -22.6920  -43.9674 C.3       12 UNK        -0.1800 
     72 C          -3.9437  -21.4204  -46.1445 C.2       12 UNK         0.5000 
     73 O          -5.0579  -21.9467  -46.1189 O.2       12 UNK        -0.5000 
     74 N          -3.5238  -20.6539  -47.1553 N.am      13 UNK        -0.5000 
     75 CA         -4.3225  -20.2774  -48.3178 C.3       13 UNK         0.1400 
     76 CB         -4.2842  -21.4012  -49.3639 C.3       13 UNK        -0.1800 
     77 C          -3.7671  -18.9815  -48.9168 C.2       13 UNK         0.5000 
     78 O          -2.5952  -18.6727  -48.6999 O.2       13 UNK        -0.5000 
     79 N          -4.6205  -18.2718  -49.6600 N.am      14 UNK        -0.5000 
     80 CA         -4.3598  -17.0941  -50.4883 C.3       14 UNK         0.1400 
     81 CB         -3.7606  -15.9269  -49.6756 C.3       14 UNK        -0.1800 
     82 C          -5.7150  -16.6718  -51.0960 C.2       14 UNK         0.5000 
     83 O          -6.7475  -16.9496  -50.4820 O.2       14 UNK        -0.5000 
     84 N          -5.7696  -16.0015  -52.2549 N.am      15 UNK        -0.5000 
     85 CA         -4.6800  -15.6889  -53.1818 C.3       15 UNK         0.1400 
     86 CB         -5.0445  -14.3944  -53.9347 C.3       15 UNK        -0.1800 
     87 C          -4.3985  -16.8793  -54.1257 C.2       15 UNK         0.5000 
     88 O          -4.5987  -18.0297  -53.7296 O.2       15 UNK        -0.5000 
     89 N          -3.9363  -16.5904  -55.3509 N.am      16 UNK        -0.5000 
     90 CA         -3.4908  -17.5489  -56.3704 C.3       16 UNK         0.1400 
     91 CB         -3.1269  -16.7834  -57.6515 C.3       16 UNK        -0.1800 
     92 C          -4.4896  -18.6782  -56.6908 C.2       16 UNK         0.5000 
     93 O          -4.0710  -19.8173  -56.8972 O.2       16 UNK        -0.5000 
     94 N          -5.7883  -18.3478  -56.6964 N.am      17 UNK        -0.5000 
     95 CA         -6.8847  -19.2843  -56.9505 C.3       17 UNK         0.1400 
     96 CB         -8.1936  -18.4955  -57.1066 C.3       17 UNK        -0.1800 
     97 C          -7.0322  -20.3656  -55.8626 C.2       17 UNK         0.5000 
     98 O          -7.3865  -21.5002  -56.1838 O.2       17 UNK        -0.5000 
     99 N          -6.7458  -20.0026  -54.6051 N.am      18 UNK        -0.5000 
    100 CA        -6.7394  -20.9225  -53.4688 C.3       18 UNK         0.1400 
    101 CB        -7.0784  -20.1545  -52.1838 C.3       18 UNK        -0.1800 
    102 C         -5.3758  -21.6147  -53.3356 C.2       18 UNK         0.5000 
    103 O         -5.3240  -22.8189  -53.0828 O.2       18 UNK        -0.5000 
    104 N         -4.2941  -20.8480  -53.5356 N.am      19 UNK        -0.5000 
    105 CA        -2.9020  -21.2888  -53.4313 C.3       19 UNK         0.1400 
    106 CB        -1.9770  -20.0757  -53.5949 C.3       19 UNK        -0.1800 
    107 C         -2.5084  -22.3961  -54.4277 C.2       19 UNK         0.5000 
    108 O         -1.5714  -23.1452  -54.1539 O.2       19 UNK        -0.5000 
    109 N         -3.2456  -22.5044  -55.5419 N.am      20 UNK        -0.5000 
    110 CA        -3.1433  -23.5869  -56.5221 C.3       20 UNK         0.1400 
    111 CB        -4.1006  -23.2947  -57.6876 C.3       20 UNK        -0.1800 
    112 C         -3.4261  -24.9831  -55.9275 C.2       20 UNK         0.5000 
    113 O         -2.8377  -25.9627  -56.3872 O.2       20 UNK        -0.5000 
    114 N         -4.2978  -25.0438  -54.9114 N.am      21 UNK        -0.5000 
    115 CA        -4.5657  -26.2395  -54.1132 C.3       21 UNK         0.1400 
    116 CB        -6.0807  -26.3632  -53.8853 C.3       21 UNK        -0.1800 
    117 C         -3.8201  -26.1750  -52.7687 C.2       21 UNK         0.5000 
    118 O         -3.2475  -27.1772  -52.3404 O.2       21 UNK        -0.5000 
    119 N         -3.8405  -24.9949  -52.1347 N.am      22 UNK        -0.5000 
    120 CA        -3.2672  -24.6962  -50.8134 C.3       22 UNK         0.1400 
    121 C         -3.9962  -25.3877  -49.6178 C.2       22 UNK         0.5000 
    122 N         -5.2445  -25.8139  -49.7719 N.am      22 UNK        -0.7600 
    123 O         -3.4432  -25.5278  -48.5311 O.2       22 UNK        -0.5000 
    124 C124       -1.7167  -24.8283  -50.7714 C.3       23 UNK        -0.0398 
    125 S125       -0.9335  -23.5287  -49.7466 S.3       23 UNK        -0.2404 
    126 C126       -0.0137  -22.6006  -51.0106 C.3       23 UNK        -0.0205 
    127 H127       -4.8547  -16.6809  -46.8895 H         1 UNK         0.0600 
    128 H128       -4.9109  -16.8498  -45.1362 H         1 UNK         0.0600 
    129 H129       -4.1549  -18.1060  -46.1050 H         1 UNK         0.0600 
    130 H130       -2.0838  -17.5670  -47.2461 H         1 UNK         0.3000 
    131 H131       -0.5211  -15.2825  -46.7195 H         1 UNK         0.0600 
    132 H132        0.0452  -18.1229  -47.5983 H         1 UNK         0.0800 
    133 H133        1.4105  -17.1842  -47.0651 H         1 UNK         0.0800 
    134 H134       -0.9725  -17.6871  -50.3004 H         1 UNK         0.0800 
    135 H135        0.3754  -17.2241  -51.2909 H         1 UNK         0.0800 
    136 H136       -0.8562  -19.9961  -51.0572 H         1 UNK         0.1150 
    137 H137        2.3110  -22.4920  -49.6141 H         1 UNK         0.1150 
    138 H138        2.5340  -18.2481  -49.1032 H         1 UNK         0.1150 
    139 H139        4.5014  -21.1912  -48.9222 H         1 UNK         0.0800 
    140 H140        4.2855  -19.5891  -48.2752 H         1 UNK         0.0800 
    141 H141        1.4330  -19.8806  -47.0371 H         1 UNK         0.0800 
    142 H142        1.9640  -19.8943  -45.4011 H         1 UNK         0.0800 
    143 H143        0.7113  -22.3047  -46.8079 H         1 UNK         0.0600 
    144 H144        1.7711  -21.9121  -44.1138 H         1 UNK         0.3000 
    145 H145        0.7444  -24.9860  -42.8114 H         1 UNK         0.0600 
    146 H146        2.4184  -25.9623  -44.3863 H         1 UNK         0.0600 
    147 H147        3.5020  -24.6061  -44.0996 H         1 UNK         0.0600 
    148 H148        3.1174  -25.7275  -42.7924 H         1 UNK         0.0600 
    149 H149        2.9255  -23.2113  -42.1664 H         1 UNK         0.3000 
    150 H150        1.0932  -20.7429  -40.5038 H         1 UNK         0.0600 
    151 H151        2.5489  -23.0230  -39.0727 H         1 UNK         0.0600 
    152 H152        0.8888  -22.5284  -38.7642 H         1 UNK         0.0600 
    153 H153        2.2061  -21.4239  -38.4101 H         1 UNK         0.0600 
    154 H154        3.8027  -21.1741  -40.2415 H         1 UNK         0.3000 
    155 H155        5.1036  -19.4997  -41.3398 H         1 UNK         0.0600 
    156 H156        5.5547  -21.7520  -43.3827 H         1 UNK         0.0600 
    157 H157        5.7338  -21.9107  -41.6397 H         1 UNK         0.0600 
    158 H158        6.8236  -20.8683  -42.5346 H         1 UNK         0.0600 
    159 H159        5.5796  -19.4223  -44.1370 H         1 UNK         0.3000 
    160 H160        5.8788  -16.8757  -44.7264 H         1 UNK         0.0600 
    161 H161        3.4328  -18.1297  -46.1017 H         1 UNK         0.0600 
    162 H162        5.0638  -18.7972  -46.0962 H         1 UNK         0.0600 
    163 H163        4.7375  -17.2984  -46.9396 H         1 UNK         0.0600 
    164 H164        3.2743  -15.8007  -44.1603 H         1 UNK         0.3000 
    165 H165        4.1189  -12.6077  -45.2354 H         1 UNK         0.0600 
    166 H166        3.1658  -13.2475  -47.4383 H         1 UNK         0.0600 
    167 H167        1.9534  -14.2540  -46.6587 H         1 UNK         0.0600 
    168 H168        1.9243  -12.5047  -46.4404 H         1 UNK         0.0600 
    169 H169        1.7628  -14.0553  -44.2188 H         1 UNK         0.3000 
    170 H170        2.1428  -14.5687  -41.4637 H         1 UNK         0.0600 
    171 H171        3.2398  -12.8926  -40.0449 H         1 UNK         0.0600 
    172 H172        2.2348  -11.6046  -40.6914 H         1 UNK         0.0600 
    173 H173        1.5160  -12.8830  -39.7120 H         1 UNK         0.0600 
    174 H174        0.1127  -14.2605  -42.2401 H         1 UNK         0.3000 
    175 H175       -2.0242  -11.6768  -42.8423 H         1 UNK         0.0600 
    176 H176       -2.3836  -12.4166  -45.2001 H         1 UNK         0.0600 
    177 H177       -0.9727  -11.3753  -45.0879 H         1 UNK         0.0600 
    178 H178       -0.7664  -13.1158  -45.2440 H         1 UNK         0.0600 
    179 H179       -2.0979  -14.4335  -43.6668 H         1 UNK         0.3000 
    180 H180       -2.8128  -15.8260  -40.4695 H         1 UNK         0.0600 
    181 H181       -4.5400  -15.4930  -42.9811 H         1 UNK         0.0600 
    182 H182       -5.0214  -15.0932  -41.3386 H         1 UNK         0.0600 
    183 H183       -4.7136  -16.7670  -41.7739 H         1 UNK         0.0600 
    184 H184       -2.4975  -16.9213  -43.1088 H         1 UNK         0.3000 
    185 H185        0.9676  -17.7623  -42.7652 H         1 UNK         0.0600 
    186 H186        0.0040  -19.9969  -43.0990 H         1 UNK         0.0600 
    187 H187       -0.4826  -19.4304  -41.5104 H         1 UNK         0.0600 
    188 H188       -1.6297  -19.3946  -42.8369 H         1 UNK         0.0600 
    189 H189       -0.8294  -18.3162  -44.8690 H         1 UNK         0.3000 
    190 H190       -1.3360  -22.9223  -45.2995 H         1 UNK         0.3000 
    191 H191       -2.9502  -20.6672  -44.4226 H         1 UNK         0.0600 
    192 H192       -3.5110  -23.6733  -44.4393 H         1 UNK         0.0600 
    193 H193       -4.4347  -22.4524  -43.5683 H         1 UNK         0.0600 
    194 H194       -2.7686  -22.7714  -43.1182 H         1 UNK         0.0600 
    195 H195       -2.6051  -20.2231  -47.1067 H         1 UNK         0.3000 
    196 H196       -5.3536  -20.0989  -48.0051 H         1 UNK         0.0600 
    197 H197       -4.8853  -21.1514  -50.2380 H         1 UNK         0.0600 
    198 H198       -4.6720  -22.3354  -48.9580 H         1 UNK         0.0600 
    199 H199       -3.2639  -21.5751  -49.7064 H         1 UNK         0.0600 
    200 H200       -5.5868  -18.5696  -49.7206 H         1 UNK         0.3000 
    201 H201       -3.6661  -17.3956  -51.2732 H         1 UNK         0.0600 
    202 H202       -3.6175  -15.0463  -50.3017 H         1 UNK         0.0600 
    203 H203       -4.4142  -15.6298  -48.8567 H         1 UNK         0.0600 
    204 H204       -2.7844  -16.1729  -49.2608 H         1 UNK         0.0600 
    205 H205       -6.6876  -15.7589  -52.5952 H         1 UNK         0.3000 
    206 H206       -3.7627  -15.4951  -52.6253 H         1 UNK         0.0600 
    207 H207       -5.2985  -13.5959  -53.2370 H         1 UNK         0.0600 
    208 H208       -4.2108  -14.0293  -54.5355 H         1 UNK         0.0600 
    209 H209       -5.8992  -14.5376  -54.5975 H         1 UNK         0.0600 
    210 H210       -3.8224  -15.6165  -55.5913 H         1 UNK         0.3000 
    211 H211       -2.5787  -18.0137  -55.9972 H         1 UNK         0.0600 
    212 H212       -3.9846  -16.2449  -58.0563 H         1 UNK         0.0600 
    213 H213       -2.7708  -17.4638  -58.4265 H         1 UNK         0.0600 
    214 H214       -2.3320  -16.0603  -57.4679 H         1 UNK         0.0600 
    215 H215       -6.0401  -17.3885  -56.5094 H         1 UNK         0.3000 
    216 H216       -6.6784  -19.7936  -57.8943 H         1 UNK         0.0600 
    217 H217       -9.0291  -19.1637  -57.3198 H         1 UNK         0.0600 
    218 H218       -8.1300  -17.7843  -57.9304 H         1 UNK         0.0600 
    219 H219       -8.4400  -17.9403  -56.2006 H         1 UNK         0.0600 
    220 H220       -6.3977  -19.0678  -54.4350 H         1 UNK         0.3000 
    221 H221       -7.5008  -21.6921  -53.6132 H         1 UNK         0.0600 
    222 H222       -8.0374  -19.6433  -52.2690 H         1 UNK         0.0600 
    223 H223       -7.1448  -20.8313  -51.3312 H         1 UNK         0.0600 
    224 H224       -6.3202  -19.4073  -51.9528 H         1 UNK         0.0600 
    225 H225       -4.4328  -19.8565  -53.7164 H         1 UNK         0.3000 
    226 H226       -2.7760  -21.6899  -52.4247 H         1 UNK         0.0600 
    227 H227       -0.9336  -20.3531  -53.4416 H         1 UNK         0.0600 
    228 H228       -2.0528  -19.6582  -54.5965 H         1 UNK         0.0600 
    229 H229       -2.2190  -19.2881  -52.8811 H         1 UNK         0.0600 
    230 H230       -3.9400  -21.7913  -55.7252 H         1 UNK         0.3000 
    231 H231       -2.1216  -23.5918  -56.9069 H         1 UNK         0.0600 
    232 H232       -5.1363  -23.2318  -57.3506 H         1 UNK         0.0600 
    233 H233       -4.0468  -24.0777  -58.4451 H         1 UNK         0.0600 
    234 H234       -3.8504  -22.3528  -58.1763 H         1 UNK         0.0600 
    235 H235       -4.7133  -24.1810  -54.5817 H         1 UNK         0.3000 
    236 H236       -4.2309  -27.1354  -54.6402 H         1 UNK         0.0600 
    237 H237       -6.3145  -27.2395  -53.2792 H         1 UNK         0.0600 
    238 H238       -6.4878  -25.4897  -53.3744 H         1 UNK         0.0600 
    239 H239       -6.6108  -26.4720  -54.8316 H         1 UNK         0.0600 
    240 H240       -4.3767  -24.2337  -52.5458 H         1 UNK         0.3000 
    241 H241       -3.5019  -23.6419  -50.6946 H         1 UNK         0.0600 
    242 H242       -5.7145  -26.2551  -48.9972 H         1 UNK         0.3800 
    243 H243       -5.7235  -25.6998  -50.6501 H         1 UNK         0.3800 
    244 H244       -1.3077  -24.7623  -51.7806 H         1 UNK         0.0800 
    245 H245       -1.4146  -25.8098  -50.4025 H         1 UNK         0.0800 
    246 H246        0.7306  -23.2549  -51.4670 H         1 UNK         0.0800 
    247 H247       -0.6885  -22.3067  -51.8102 H         1 UNK         0.0800 
@<TRIPOS>BOND
     1    1    2 1    
     2    1  127 1    
     3    1  128 1    
     4    1  129 1    
     5    2    3 2    
     6    2    4 am   BACKBONE|DICT|INTERRES
     7    4    5 1    
     8    4  130 1    
     9    5    6 1    
    10    5   65 1    
    11    5  131 1    
    12    6    7 1    
    13    6  132 1    
    14    6  133 1    
    15    7    8 1    
    16    8    9 1    
    17    8  134 1    
    18    8  135 1    
    19    9   10 ar   
    20    9   14 ar   
    21   10   11 ar   
    22   10  136 1    
    23   11   12 ar   
    24   11  126 1    
    25   12   13 ar   
    26   12  137 1    
    27   13   14 ar   
    28   13   15 1    
    29   14  138 1    
    30   15   16 1    
    31   15  139 1    
    32   15  140 1    
    33   16   17 1    
    34   17   18 1    
    35   17  141 1    
    36   17  142 1    
    37   18   19 1    
    38   18   67 1    
    39   18  143 1    
    40   19   20 am   BACKBONE|DICT|INTERRES
    41   19  144 1    
    42   20   21 2    
    43   20   22 1    
    44   22   23 1    
    45   22   24 1    
    46   22  145 1    
    47   23  146 1    
    48   23  147 1    
    49   23  148 1    
    50   24   25 am   BACKBONE|DICT|INTERRES
    51   24  149 1    
    52   25   26 2    
    53   25   27 1    
    54   27   28 1    
    55   27   29 1    
    56   27  150 1    
    57   28  151 1    
    58   28  152 1    
    59   28  153 1    
    60   29   30 am   BACKBONE|DICT|INTERRES
    61   29  154 1    
    62   30   31 2    
    63   30   32 1    
    64   32   33 1    
    65   32   34 1    
    66   32  155 1    
    67   33  156 1    
    68   33  157 1    
    69   33  158 1    
    70   34   35 am   BACKBONE|DICT|INTERRES
    71   34  159 1    
    72   35   36 2    
    73   35   37 1    
    74   37   38 1    
    75   37   39 1    
    76   37  160 1    
    77   38  161 1    
    78   38  162 1    
    79   38  163 1    
    80   39   40 am   BACKBONE|DICT|INTERRES
    81   39  164 1    
    82   40   41 2    
    83   40   42 1    
    84   42   43 1    
    85   42   44 1    
    86   42  165 1    
    87   43  166 1    
    88   43  167 1    
    89   43  168 1    
    90   44   45 am   BACKBONE|DICT|INTERRES
    91   44  169 1    
    92   45   46 2    
    93   45   47 1    
    94   47   48 1    
    95   47   49 1    
    96   47  170 1    
    97   48  171 1    
    98   48  172 1    
    99   48  173 1    
   100   49   50 am   BACKBONE|DICT|INTERRES
   101   49  174 1    
   102   50   51 2    
   103   50   52 1    
   104   52   53 1    
   105   52   54 1    
   106   52  175 1    
   107   53  176 1    
   108   53  177 1    
   109   53  178 1    
   110   54   55 am   BACKBONE|DICT|INTERRES
   111   54  179 1    
   112   55   56 2    
   113   55   57 1    
   114   57   58 1    
   115   57   59 1    
   116   57  180 1    
   117   58  181 1    
   118   58  182 1    
   119   58  183 1    
   120   59   60 am   BACKBONE|DICT|INTERRES
   121   59  184 1    
   122   60   61 2    
   123   60   62 1    
   124   62   63 1    
   125   62   64 1    
   126   62  185 1    
   127   63  186 1    
   128   63  187 1    
   129   63  188 1    
   130   64   65 am   BACKBONE|DICT|INTERRES
   131   64  189 1    
   132   65   66 2    
   133   67   68 2    
   134   67   69 am   BACKBONE|DICT|INTERRES
   135   69   70 1    
   136   69  190 1    
   137   70   71 1    
   138   70   72 1    
   139   70  191 1    
   140   71  192 1    
   141   71  193 1    
   142   71  194 1    
   143   72   73 2    
   144   72   74 am   BACKBONE|DICT|INTERRES
   145   74   75 1    
   146   74  195 1    
   147   75   76 1    
   148   75   77 1    
   149   75  196 1    
   150   76  197 1    
   151   76  198 1    
   152   76  199 1    
   153   77   78 2    
   154   77   79 am   BACKBONE|DICT|INTERRES
   155   79   80 1    
   156   79  200 1    
   157   80   81 1    
   158   80   82 1    
   159   80  201 1    
   160   81  202 1    
   161   81  203 1    
   162   81  204 1    
   163   82   83 2    
   164   82   84 am   BACKBONE|DICT|INTERRES
   165   84   85 1    
   166   84  205 1    
   167   85   86 1    
   168   85   87 1    
   169   85  206 1    
   170   86  207 1    
   171   86  208 1    
   172   86  209 1    
   173   87   88 2    
   174   87   89 am   BACKBONE|DICT|INTERRES
   175   89   90 1    
   176   89  210 1    
   177   90   91 1    
   178   90   92 1    
   179   90  211 1    
   180   91  212 1    
   181   91  213 1    
   182   91  214 1    
   183   92   93 2    
   184   92   94 am   BACKBONE|DICT|INTERRES
   185   94   95 1    
   186   94  215 1    
   187   95   96 1    
   188   95   97 1    
   189   95  216 1    
   190   96  217 1    
   191   96  218 1    
   192   96  219 1    
   193   97   98 2    
   194   97   99 am   BACKBONE|DICT|INTERRES
   195   99  100 1    
   196   99  220 1    
   197  100  101 1    
   198  100  102 1    
   199  100  221 1    
   200  101  222 1    
   201  101  223 1    
   202  101  224 1    
   203  102  103 2    
   204  102  104 am   BACKBONE|DICT|INTERRES
   205  104  105 1    
   206  104  225 1    
   207  105  106 1    
   208  105  107 1    
   209  105  226 1    
   210  106  227 1    
   211  106  228 1    
   212  106  229 1    
   213  107  108 2    
   214  107  109 am   BACKBONE|DICT|INTERRES
   215  109  110 1    
   216  109  230 1    
   217  110  111 1    
   218  110  112 1    
   219  110  231 1    
   220  111  232 1    
   221  111  233 1    
   222  111  234 1    
   223  112  113 2    
   224  112  114 am   BACKBONE|DICT|INTERRES
   225  114  115 1    
   226  114  235 1    
   227  115  116 1    
   228  115  117 1    
   229  115  236 1    
   230  116  237 1    
   231  116  238 1    
   232  116  239 1    
   233  117  118 2    
   234  117  119 am   BACKBONE|DICT|INTERRES
   235  119  120 1    
   236  119  240 1    
   237  120  121 1    
   238  120  124 1    
   239  120  241 1    
   240  121  122 am   BACKBONE|DICT|INTERRES
   241  121  123 2    
   242  122  242 1    
   243  122  243 1    
   244  124  125 1    
   245  124  244 1    
   246  124  245 1    
   247  125  126 1    
   248  126  246 1    
   249  126  247 1    
@<TRIPOS>SUBSTRUCTURE
     1 UNK         1 GROUP             0       ****    0 ROOT    
