@<TRIPOS>MOLECULE
3R540
247   249    1
SMALL
USER_CHARGES


@<TRIPOS>ATOM
      1 CA          2.4573  -14.8844  -46.0878 C.3       0 UNK        -0.1800 
      2 C           1.6963  -13.5735  -45.9812 C.2       0 UNK         0.5000 
      3 O           1.5827  -13.0034  -44.8958 O.2       0 UNK        -0.5000 
      4 N           1.1818  -13.0921  -47.1184 N.am      1 UNK        -0.5000 
      5 CA          0.3132  -11.9125  -47.2444 C.3       1 UNK         0.1400 
      6 C6         -0.2961  -11.7959  -48.6630 C.3       23 UNK        -0.0398 
      7 S7         -1.2441  -13.2881  -49.1221 S.3       23 UNK        -0.2404 
      8 C8         -0.1407  -14.0499  -50.3529 C.3       23 UNK        -0.0205 
      9 C9         -0.5277  -15.4968  -50.6145 C.ar      23 UNK        -0.0193 
     10 C10        -1.6345  -15.7919  -51.4153 C.ar      23 UNK        -0.1150 
     11 C11        -1.9995  -17.1185  -51.6579 C.ar      23 UNK        -0.0193 
     12 C12        -1.2483  -18.1547  -51.0938 C.ar      23 UNK        -0.1150 
     13 C13        -0.1273  -17.8742  -50.3068 C.ar      23 UNK        -0.0193 
     14 C14         0.2250  -16.5416  -50.0677 C.ar      23 UNK        -0.1150 
     15 C15         0.7297  -19.0099  -49.7596 C.3       23 UNK        -0.0205 
     16 S16         0.7874  -19.0462  -47.9401 S.3       23 UNK        -0.2404 
     17 C17        -0.8939  -19.6047  -47.5121 C.3       23 UNK        -0.0398 
     18 CA         -0.9474  -21.0729  -47.0189 C.3       11 UNK         0.1400 
     19 N          -0.1454  -21.3183  -45.8111 N.am      11 UNK        -0.5000 
     20 C           0.0340  -22.5216  -45.2425 C.2       10 UNK         0.5000 
     21 O          -0.4033  -23.5703  -45.7153 O.2       10 UNK        -0.5000 
     22 CA          0.7620  -22.5630  -43.8859 C.3       10 UNK         0.1400 
     23 CB          2.2879  -22.5532  -44.0624 C.3       10 UNK        -0.1800 
     24 N           0.3427  -21.4756  -43.0003 N.am      10 UNK        -0.5000 
     25 C          -0.8786  -21.3861  -42.4534 C.2       9 UNK         0.5000 
     26 O          -1.7516  -22.2404  -42.5991 O.2       9 UNK        -0.5000 
     27 CA         -1.2020  -20.1143  -41.6477 C.3       9 UNK         0.1400 
     28 CB         -0.7205  -20.2541  -40.1963 C.3       9 UNK        -0.1800 
     29 N          -0.6305  -18.9066  -42.2415 N.am      9 UNK        -0.5000 
     30 C          -0.9507  -18.4276  -43.4522 C.2       8 UNK         0.5000 
     31 O          -1.8282  -18.9114  -44.1677 O.2       8 UNK        -0.5000 
     32 CA         -0.1002  -17.2561  -43.9779 C.3       8 UNK         0.1400 
     33 CB         -0.6238  -15.9153  -43.4448 C.3       8 UNK        -0.1800 
     34 N           1.3181  -17.4002  -43.6428 N.am      8 UNK        -0.5000 
     35 C           2.0990  -18.4052  -44.0634 C.2       7 UNK         0.5000 
     36 O           1.7025  -19.3102  -44.7930 O.2       7 UNK        -0.5000 
     37 CA          3.5400  -18.4470  -43.5316 C.3       7 UNK         0.1400 
     38 CB          4.4745  -17.5494  -44.3561 C.3       7 UNK        -0.1800 
     39 N           3.5971  -18.0647  -42.1227 N.am      7 UNK        -0.5000 
     40 C           3.2426  -18.8710  -41.1131 C.2       6 UNK         0.5000 
     41 O           2.8901  -20.0410  -41.2656 O.2       6 UNK        -0.5000 
     42 CA          3.2583  -18.2583  -39.6994 C.3       6 UNK         0.1400 
     43 CB          4.6596  -18.3660  -39.0797 C.3       6 UNK        -0.1800 
     44 N           2.8261  -16.8587  -39.6764 N.am      6 UNK        -0.5000 
     45 C           1.5787  -16.4512  -39.9483 C.2       5 UNK         0.5000 
     46 O           0.6586  -17.2173  -40.2321 O.2       5 UNK        -0.5000 
     47 CA          1.3224  -14.9314  -39.9449 C.3       5 UNK         0.1400 
     48 CB          1.0010  -14.4449  -38.5241 C.3       5 UNK        -0.1800 
     49 N           2.4083  -14.1151  -40.5002 N.am      5 UNK        -0.5000 
     50 C           2.9707  -14.2750  -41.7058 C.2       4 UNK         0.5000 
     51 O           2.7083  -15.2080  -42.4648 O.2       4 UNK        -0.5000 
     52 CA          3.9504  -13.1778  -42.1437 C.3       4 UNK         0.1400 
     53 CB          4.8998  -13.6417  -43.2615 C.3       4 UNK        -0.1800 
     54 N           3.1694  -12.0437  -42.6255 N.am      4 UNK        -0.5000 
     55 C           2.8948  -10.9432  -41.9155 C.2       3 UNK         0.5000 
     56 O           3.3119  -10.7574  -40.7703 O.2       3 UNK        -0.5000 
     57 CA          1.9871   -9.8896  -42.5889 C.3       3 UNK         0.1400 
     58 CB          2.1007   -8.4945  -41.9390 C.3       3 UNK        -0.1800 
     59 N           2.1610   -9.7980  -44.0435 N.am      3 UNK        -0.5000 
     60 C           3.2680   -9.4687  -44.7261 C.2       2 UNK         0.5000 
     61 O           4.3389   -9.1833  -44.1874 O.2       2 UNK        -0.5000 
     62 CA          3.1579   -9.4665  -46.2713 C.3       2 UNK         0.1400 
     63 CB          4.5340   -9.5367  -46.9584 C.3       2 UNK        -0.1800 
     64 N           2.3293  -10.5626  -46.7816 N.am      2 UNK        -0.5000 
     65 C           0.9900  -10.5881  -46.8238 C.2       1 UNK         0.5000 
     66 O           0.2891   -9.6316  -46.4924 O.2       1 UNK        -0.5000 
     67 C          -2.4155  -21.5021  -46.8204 C.2       11 UNK         0.5000 
     68 O          -2.9788  -22.1572  -47.6987 O.2       11 UNK        -0.5000 
     69 N          -2.9924  -21.1519  -45.6615 N.am      12 UNK        -0.5000 
     70 CA         -4.3448  -21.5306  -45.2556 C.3       12 UNK         0.1400 
     71 CB         -4.7438  -20.7530  -43.9926 C.3       12 UNK        -0.1800 
     72 C          -4.4987  -23.0474  -45.0440 C.2       12 UNK         0.5000 
     73 O          -5.4668  -23.6259  -45.5367 O.2       12 UNK        -0.5000 
     74 N          -3.5300  -23.6728  -44.3588 N.am      13 UNK        -0.5000 
     75 CA         -3.4786  -25.1177  -44.1125 C.3       13 UNK         0.1400 
     76 CB         -2.3345  -25.4354  -43.1384 C.3       13 UNK        -0.1800 
     77 C          -3.3373  -25.9472  -45.4027 C.2       13 UNK         0.5000 
     78 O          -3.9620  -27.0018  -45.5204 O.2       13 UNK        -0.5000 
     79 N          -2.5530  -25.4360  -46.3608 N.am      14 UNK        -0.5000 
     80 CA         -2.3970  -25.9950  -47.7049 C.3       14 UNK         0.1400 
     81 CB         -1.1023  -25.4396  -48.3206 C.3       14 UNK        -0.1800 
     82 C          -3.5925  -25.7016  -48.6345 C.2       14 UNK         0.5000 
     83 O          -3.6252  -26.2298  -49.7470 O.2       14 UNK        -0.5000 
     84 N          -4.5207  -24.8368  -48.1968 N.am      15 UNK        -0.5000 
     85 CA         -5.6798  -24.3222  -48.9316 C.3       15 UNK         0.1400 
     86 CB         -6.7251  -25.4373  -49.1408 C.3       15 UNK        -0.1800 
     87 C          -5.2705  -23.6246  -50.2441 C.2       15 UNK         0.5000 
     88 O          -5.8812  -23.8639  -51.2858 O.2       15 UNK        -0.5000 
     89 N          -4.2010  -22.8167  -50.1750 N.am      16 UNK        -0.5000 
     90 CA         -3.5263  -22.1533  -51.2960 C.3       16 UNK         0.1400 
     91 CB         -4.4219  -21.0534  -51.8941 C.3       16 UNK        -0.1800 
     92 C          -3.0181  -23.1600  -52.3511 C.2       16 UNK         0.5000 
     93 O          -3.2485  -22.9793  -53.5492 O.2       16 UNK        -0.5000 
     94 N          -2.3736  -24.2284  -51.8562 N.am      17 UNK        -0.5000 
     95 CA         -1.8801  -25.3962  -52.5951 C.3       17 UNK         0.1400 
     96 CB         -0.6902  -25.0078  -53.4962 C.3       17 UNK        -0.1800 
     97 C          -3.0117  -26.1283  -53.3469 C.2       17 UNK         0.5000 
     98 O          -2.8744  -26.4380  -54.5310 O.2       17 UNK        -0.5000 
     99 N          -4.1207  -26.3636  -52.6298 N.am      18 UNK        -0.5000 
    100 CA        -5.3942  -26.9048  -53.1154 C.3       18 UNK         0.1400 
    101 CB        -5.2435  -28.3873  -53.5156 C.3       18 UNK        -0.1800 
    102 C         -6.0164  -26.0288  -54.2255 C.2       18 UNK         0.5000 
    103 O         -6.4039  -26.5392  -55.2785 O.2       18 UNK        -0.5000 
    104 N         -6.0907  -24.7186  -53.9492 N.am      19 UNK        -0.5000 
    105 CA        -6.6150  -23.6425  -54.7923 C.3       19 UNK         0.1400 
    106 CB        -8.1487  -23.7549  -54.9103 C.3       19 UNK        -0.1800 
    107 C         -5.9076  -23.5528  -56.1596 C.2       19 UNK         0.5000 
    108 O         -6.5609  -23.6142  -57.2041 O.2       19 UNK        -0.5000 
    109 N         -4.5765  -23.4045  -56.1339 N.am      20 UNK        -0.5000 
    110 CA        -3.7006  -23.3460  -57.3095 C.3       20 UNK         0.1400 
    111 CB        -2.2664  -23.6913  -56.8723 C.3       20 UNK        -0.1800 
    112 C         -3.7770  -21.9978  -58.0636 C.2       20 UNK         0.5000 
    113 O         -2.7553  -21.3321  -58.2425 O.2       20 UNK        -0.5000 
    114 N         -4.9936  -21.6152  -58.4813 N.am      21 UNK        -0.5000 
    115 CA        -5.3531  -20.3890  -59.2101 C.3       21 UNK         0.1400 
    116 CB        -4.7833  -20.4264  -60.6434 C.3       21 UNK        -0.1800 
    117 C         -4.9816  -19.0955  -58.4494 C.2       21 UNK         0.5000 
    118 O         -4.6084  -18.0940  -59.0632 O.2       21 UNK        -0.5000 
    119 N         -5.0752  -19.1564  -57.1159 N.am      22 UNK        -0.5000 
    120 CA        -4.6315  -18.1107  -56.1805 C.3       22 UNK         0.1400 
    121 C         -5.6377  -16.9386  -55.9758 C.2       22 UNK         0.5000 
    122 N         -6.8369  -16.9844  -56.5432 N.am      22 UNK        -0.7600 
    123 O         -5.3248  -15.9650  -55.2967 O.2       22 UNK        -0.5000 
    124 C124       -4.1896  -18.7480  -54.8348 C.3       23 UNK        -0.0398 
    125 S125       -2.6514  -18.0274  -54.1721 S.3       23 UNK        -0.2404 
    126 C126       -3.1953  -17.4397  -52.5389 C.3       23 UNK        -0.0205 
    127 H127        3.5121  -14.6989  -46.2877 H         1 UNK         0.0600 
    128 H128        2.0579  -15.5151  -46.8827 H         1 UNK         0.0600 
    129 H129        2.3750  -15.4329  -45.1531 H         1 UNK         0.0600 
    130 H130        1.3162  -13.6162  -47.9697 H         1 UNK         0.3000 
    131 H131       -0.5122  -12.0607  -46.5445 H         1 UNK         0.0600 
    132 H132       -0.9804  -10.9468  -48.7134 H         1 UNK         0.0800 
    133 H133        0.4801  -11.6032  -49.4058 H         1 UNK         0.0800 
    134 H134       -0.1884  -13.4806  -51.2825 H         1 UNK         0.0800 
    135 H135        0.8937  -13.9952  -50.0115 H         1 UNK         0.0800 
    136 H136       -2.2117  -14.9862  -51.8472 H         1 UNK         0.1150 
    137 H137       -1.5250  -19.1803  -51.2937 H         1 UNK         0.1150 
    138 H138        1.0908  -16.3223  -49.4587 H         1 UNK         0.1150 
    139 H139        0.3821  -19.9772  -50.1258 H         1 UNK         0.0800 
    140 H140        1.7462  -18.8901  -50.1365 H         1 UNK         0.0800 
    141 H141       -1.5402  -19.4715  -48.3814 H         1 UNK         0.0800 
    142 H142       -1.2819  -18.9289  -46.7497 H         1 UNK         0.0800 
    143 H143       -0.5352  -21.7051  -47.8082 H         1 UNK         0.0600 
    144 H144        0.3114  -20.5111  -45.3944 H         1 UNK         0.3000 
    145 H145        0.4969  -23.5036  -43.3988 H         1 UNK         0.0600 
    146 H146        2.7972  -22.5732  -43.0986 H         1 UNK         0.0600 
    147 H147        2.6156  -23.4297  -44.6224 H         1 UNK         0.0600 
    148 H148        2.6351  -21.6759  -44.6060 H         1 UNK         0.0600 
    149 H149        1.0038  -20.7255  -42.8514 H         1 UNK         0.3000 
    150 H150       -2.2874  -19.9970  -41.6355 H         1 UNK         0.0600 
    151 H151       -1.1403  -21.1458  -39.7290 H         1 UNK         0.0600 
    152 H152       -1.0273  -19.3976  -39.5959 H         1 UNK         0.0600 
    153 H153        0.3655  -20.3314  -40.1377 H         1 UNK         0.0600 
    154 H154        0.0553  -18.4063  -41.6839 H         1 UNK         0.3000 
    155 H155       -0.1808  -17.2452  -45.0669 H         1 UNK         0.0600 
    156 H156       -1.6511  -15.7435  -43.7680 H         1 UNK         0.0600 
    157 H157       -0.0231  -15.0814  -43.8077 H         1 UNK         0.0600 
    158 H158       -0.6141  -15.8858  -42.3559 H         1 UNK         0.0600 
    159 H159        1.7362  -16.6658  -43.0762 H         1 UNK         0.3000 
    160 H160        3.8969  -19.4745  -43.6320 H         1 UNK         0.0600 
    161 H161        4.2415  -16.4934  -44.2305 H         1 UNK         0.0600 
    162 H162        4.4004  -17.7793  -45.4199 H         1 UNK         0.0600 
    163 H163        5.5142  -17.6949  -44.0632 H         1 UNK         0.0600 
    164 H164        3.7861  -17.0911  -41.9268 H         1 UNK         0.3000 
    165 H165        2.5673  -18.8362  -39.0819 H         1 UNK         0.0600 
    166 H166        4.6637  -18.0092  -38.0496 H         1 UNK         0.0600 
    167 H167        5.0008  -19.4021  -39.0649 H         1 UNK         0.0600 
    168 H168        5.3943  -17.7863  -39.6398 H         1 UNK         0.0600 
    169 H169        3.5253  -16.1636  -39.4603 H         1 UNK         0.3000 
    170 H170        0.4434  -14.7517  -40.5657 H         1 UNK         0.0600 
    171 H171        0.1801  -15.0179  -38.0905 H         1 UNK         0.0600 
    172 H172        1.8600  -14.5471  -37.8598 H         1 UNK         0.0600 
    173 H173        0.6988  -13.3975  -38.5241 H         1 UNK         0.0600 
    174 H174        2.6756  -13.3048  -39.9589 H         1 UNK         0.3000 
    175 H175        4.5617  -12.8988  -41.2830 H         1 UNK         0.0600 
    176 H176        4.3588  -13.9038  -44.1694 H         1 UNK         0.0600 
    177 H177        5.6144  -12.8591  -43.5167 H         1 UNK         0.0600 
    178 H178        5.4707  -14.5178  -42.9519 H         1 UNK         0.0600 
    179 H179        2.7011  -12.1794  -43.5179 H         1 UNK         0.3000 
    180 H180        0.9656  -10.2388  -42.4325 H         1 UNK         0.0600 
    181 H181        3.1158   -8.1010  -41.9994 H         1 UNK         0.0600 
    182 H182        1.8263   -8.5296  -40.8840 H         1 UNK         0.0600 
    183 H183        1.4342   -7.7794  -42.4212 H         1 UNK         0.0600 
    184 H184        1.3377  -10.0100  -44.5926 H         1 UNK         0.3000 
    185 H185        2.6961   -8.5180  -46.5526 H         1 UNK         0.0600 
    186 H186        5.1602   -8.6901  -46.6743 H         1 UNK         0.0600 
    187 H187        5.0699  -10.4482  -46.6909 H         1 UNK         0.0600 
    188 H188        4.4347   -9.5115  -48.0438 H         1 UNK         0.0600 
    189 H189        2.8182  -11.4104  -47.0294 H         1 UNK         0.3000 
    190 H190       -2.4720  -20.5645  -45.0160 H         1 UNK         0.3000 
    191 H191       -5.0247  -21.2383  -46.0586 H         1 UNK         0.0600 
    192 H192       -4.6954  -19.6770  -44.1610 H         1 UNK         0.0600 
    193 H193       -5.7657  -20.9908  -43.6947 H         1 UNK         0.0600 
    194 H194       -4.0937  -20.9876  -43.1500 H         1 UNK         0.0600 
    195 H195       -2.7908  -23.1169  -43.9363 H         1 UNK         0.3000 
    196 H196       -4.4183  -25.4057  -43.6369 H         1 UNK         0.0600 
    197 H197       -2.2887  -26.5037  -42.9235 H         1 UNK         0.0600 
    198 H198       -2.4705  -24.9186  -42.1883 H         1 UNK         0.0600 
    199 H199       -1.3673  -25.1400  -43.5454 H         1 UNK         0.0600 
    200 H200       -2.0146  -24.5986  -46.1554 H         1 UNK         0.3000 
    201 H201       -2.3018  -27.0797  -47.6257 H         1 UNK         0.0600 
    202 H202       -0.2390  -25.6742  -47.6976 H         1 UNK         0.0600 
    203 H203       -1.1454  -24.3556  -48.4349 H         1 UNK         0.0600 
    204 H204       -0.9157  -25.8700  -49.3050 H         1 UNK         0.0600 
    205 H205       -4.3984  -24.4475  -47.2705 H         1 UNK         0.3000 
    206 H206       -6.1316  -23.5537  -48.3032 H         1 UNK         0.0600 
    207 H207       -7.0097  -25.8903  -48.1911 H         1 UNK         0.0600 
    208 H208       -7.6335  -25.0416  -49.5963 H         1 UNK         0.0600 
    209 H209       -6.3512  -26.2290  -49.7903 H         1 UNK         0.0600 
    210 H210       -3.7726  -22.6746  -49.2609 H         1 UNK         0.3000 
    211 H211       -2.6412  -21.6688  -50.8813 H         1 UNK         0.0600 
    212 H212       -5.3162  -21.4614  -52.3648 H         1 UNK         0.0600 
    213 H213       -3.8753  -20.4987  -52.6540 H         1 UNK         0.0600 
    214 H214       -4.7373  -20.3426  -51.1305 H         1 UNK         0.0600 
    215 H215       -2.3009  -24.2973  -50.8520 H         1 UNK         0.3000 
    216 H216       -1.5093  -26.1008  -51.8495 H         1 UNK         0.0600 
    217 H217       -0.2727  -25.8840  -53.9936 H         1 UNK         0.0600 
    218 H218        0.1110  -24.5537  -52.9134 H         1 UNK         0.0600 
    219 H219       -0.9812  -24.2991  -54.2704 H         1 UNK         0.0600 
    220 H220       -4.1008  -26.1102  -51.6457 H         1 UNK         0.3000 
    221 H221       -6.0843  -26.8620  -52.2716 H         1 UNK         0.0600 
    222 H222       -4.5950  -28.5114  -54.3833 H         1 UNK         0.0600 
    223 H223       -4.8259  -28.9747  -52.6980 H         1 UNK         0.0600 
    224 H224       -6.2112  -28.8228  -53.7666 H         1 UNK         0.0600 
    225 H225       -5.7843  -24.4193  -53.0251 H         1 UNK         0.3000 
    226 H226       -6.3935  -22.7107  -54.2703 H         1 UNK         0.0600 
    227 H227       -8.6184  -23.7633  -53.9267 H         1 UNK         0.0600 
    228 H228       -8.5614  -22.9077  -55.4593 H         1 UNK         0.0600 
    229 H229       -8.4505  -24.6628  -55.4335 H         1 UNK         0.0600 
    230 H230       -4.1131  -23.3373  -55.2300 H         1 UNK         0.3000 
    231 H231       -4.0208  -24.1179  -58.0124 H         1 UNK         0.0600 
    232 H232       -1.8872  -22.9741  -56.1434 H         1 UNK         0.0600 
    233 H233       -1.5832  -23.6931  -57.7224 H         1 UNK         0.0600 
    234 H234       -2.2210  -24.6830  -56.4242 H         1 UNK         0.0600 
    235 H235       -5.7641  -22.2390  -58.2530 H         1 UNK         0.3000 
    236 H236       -6.4411  -20.3896  -59.2893 H         1 UNK         0.0600 
    237 H237       -5.0760  -21.3405  -61.1600 H         1 UNK         0.0600 
    238 H238       -5.1542  -19.5887  -61.2351 H         1 UNK         0.0600 
    239 H239       -3.6942  -20.3729  -60.6474 H         1 UNK         0.0600 
    240 H240       -5.4107  -20.0136  -56.7038 H         1 UNK         0.3000 
    241 H241       -3.7526  -17.6507  -56.6366 H         1 UNK         0.0600 
    242 H242       -7.4791  -16.2189  -56.4093 H         1 UNK         0.3800 
    243 H243       -7.1062  -17.7714  -57.1114 H         1 UNK         0.3800 
    244 H244       -3.9755  -19.8097  -54.9698 H         1 UNK         0.0800 
    245 H245       -4.9888  -18.7097  -54.0923 H         1 UNK         0.0800 
    246 H246       -3.8056  -18.1961  -52.0463 H         1 UNK         0.0800 
    247 H247       -3.8332  -16.5636  -52.6676 H         1 UNK         0.0800 
@<TRIPOS>BOND
     1    1    2 1    
     2    1  127 1    
     3    1  128 1    
     4    1  129 1    
     5    2    3 2    
     6    2    4 am   BACKBONE|DICT|INTERRES
     7    4    5 1    
     8    4  130 1    
     9    5    6 1    
    10    5   65 1    
    11    5  131 1    
    12    6    7 1    
    13    6  132 1    
    14    6  133 1    
    15    7    8 1    
    16    8    9 1    
    17    8  134 1    
    18    8  135 1    
    19    9   10 ar   
    20    9   14 ar   
    21   10   11 ar   
    22   10  136 1    
    23   11   12 ar   
    24   11  126 1    
    25   12   13 ar   
    26   12  137 1    
    27   13   14 ar   
    28   13   15 1    
    29   14  138 1    
    30   15   16 1    
    31   15  139 1    
    32   15  140 1    
    33   16   17 1    
    34   17   18 1    
    35   17  141 1    
    36   17  142 1    
    37   18   19 1    
    38   18   67 1    
    39   18  143 1    
    40   19   20 am   BACKBONE|DICT|INTERRES
    41   19  144 1    
    42   20   21 2    
    43   20   22 1    
    44   22   23 1    
    45   22   24 1    
    46   22  145 1    
    47   23  146 1    
    48   23  147 1    
    49   23  148 1    
    50   24   25 am   BACKBONE|DICT|INTERRES
    51   24  149 1    
    52   25   26 2    
    53   25   27 1    
    54   27   28 1    
    55   27   29 1    
    56   27  150 1    
    57   28  151 1    
    58   28  152 1    
    59   28  153 1    
    60   29   30 am   BACKBONE|DICT|INTERRES
    61   29  154 1    
    62   30   31 2    
    63   30   32 1    
    64   32   33 1    
    65   32   34 1    
    66   32  155 1    
    67   33  156 1    
    68   33  157 1    
    69   33  158 1    
    70   34   35 am   BACKBONE|DICT|INTERRES
    71   34  159 1    
    72   35   36 2    
    73   35   37 1    
    74   37   38 1    
    75   37   39 1    
    76   37  160 1    
    77   38  161 1    
    78   38  162 1    
    79   38  163 1    
    80   39   40 am   BACKBONE|DICT|INTERRES
    81   39  164 1    
    82   40   41 2    
    83   40   42 1    
    84   42   43 1    
    85   42   44 1    
    86   42  165 1    
    87   43  166 1    
    88   43  167 1    
    89   43  168 1    
    90   44   45 am   BACKBONE|DICT|INTERRES
    91   44  169 1    
    92   45   46 2    
    93   45   47 1    
    94   47   48 1    
    95   47   49 1    
    96   47  170 1    
    97   48  171 1    
    98   48  172 1    
    99   48  173 1    
   100   49   50 am   BACKBONE|DICT|INTERRES
   101   49  174 1    
   102   50   51 2    
   103   50   52 1    
   104   52   53 1    
   105   52   54 1    
   106   52  175 1    
   107   53  176 1    
   108   53  177 1    
   109   53  178 1    
   110   54   55 am   BACKBONE|DICT|INTERRES
   111   54  179 1    
   112   55   56 2    
   113   55   57 1    
   114   57   58 1    
   115   57   59 1    
   116   57  180 1    
   117   58  181 1    
   118   58  182 1    
   119   58  183 1    
   120   59   60 am   BACKBONE|DICT|INTERRES
   121   59  184 1    
   122   60   61 2    
   123   60   62 1    
   124   62   63 1    
   125   62   64 1    
   126   62  185 1    
   127   63  186 1    
   128   63  187 1    
   129   63  188 1    
   130   64   65 am   BACKBONE|DICT|INTERRES
   131   64  189 1    
   132   65   66 2    
   133   67   68 2    
   134   67   69 am   BACKBONE|DICT|INTERRES
   135   69   70 1    
   136   69  190 1    
   137   70   71 1    
   138   70   72 1    
   139   70  191 1    
   140   71  192 1    
   141   71  193 1    
   142   71  194 1    
   143   72   73 2    
   144   72   74 am   BACKBONE|DICT|INTERRES
   145   74   75 1    
   146   74  195 1    
   147   75   76 1    
   148   75   77 1    
   149   75  196 1    
   150   76  197 1    
   151   76  198 1    
   152   76  199 1    
   153   77   78 2    
   154   77   79 am   BACKBONE|DICT|INTERRES
   155   79   80 1    
   156   79  200 1    
   157   80   81 1    
   158   80   82 1    
   159   80  201 1    
   160   81  202 1    
   161   81  203 1    
   162   81  204 1    
   163   82   83 2    
   164   82   84 am   BACKBONE|DICT|INTERRES
   165   84   85 1    
   166   84  205 1    
   167   85   86 1    
   168   85   87 1    
   169   85  206 1    
   170   86  207 1    
   171   86  208 1    
   172   86  209 1    
   173   87   88 2    
   174   87   89 am   BACKBONE|DICT|INTERRES
   175   89   90 1    
   176   89  210 1    
   177   90   91 1    
   178   90   92 1    
   179   90  211 1    
   180   91  212 1    
   181   91  213 1    
   182   91  214 1    
   183   92   93 2    
   184   92   94 am   BACKBONE|DICT|INTERRES
   185   94   95 1    
   186   94  215 1    
   187   95   96 1    
   188   95   97 1    
   189   95  216 1    
   190   96  217 1    
   191   96  218 1    
   192   96  219 1    
   193   97   98 2    
   194   97   99 am   BACKBONE|DICT|INTERRES
   195   99  100 1    
   196   99  220 1    
   197  100  101 1    
   198  100  102 1    
   199  100  221 1    
   200  101  222 1    
   201  101  223 1    
   202  101  224 1    
   203  102  103 2    
   204  102  104 am   BACKBONE|DICT|INTERRES
   205  104  105 1    
   206  104  225 1    
   207  105  106 1    
   208  105  107 1    
   209  105  226 1    
   210  106  227 1    
   211  106  228 1    
   212  106  229 1    
   213  107  108 2    
   214  107  109 am   BACKBONE|DICT|INTERRES
   215  109  110 1    
   216  109  230 1    
   217  110  111 1    
   218  110  112 1    
   219  110  231 1    
   220  111  232 1    
   221  111  233 1    
   222  111  234 1    
   223  112  113 2    
   224  112  114 am   BACKBONE|DICT|INTERRES
   225  114  115 1    
   226  114  235 1    
   227  115  116 1    
   228  115  117 1    
   229  115  236 1    
   230  116  237 1    
   231  116  238 1    
   232  116  239 1    
   233  117  118 2    
   234  117  119 am   BACKBONE|DICT|INTERRES
   235  119  120 1    
   236  119  240 1    
   237  120  121 1    
   238  120  124 1    
   239  120  241 1    
   240  121  122 am   BACKBONE|DICT|INTERRES
   241  121  123 2    
   242  122  242 1    
   243  122  243 1    
   244  124  125 1    
   245  124  244 1    
   246  124  245 1    
   247  125  126 1    
   248  126  246 1    
   249  126  247 1    
@<TRIPOS>SUBSTRUCTURE
     1 UNK         1 GROUP             0       ****    0 ROOT    
