@<TRIPOS>MOLECULE
3R540
247   249    1
SMALL
USER_CHARGES


@<TRIPOS>ATOM
      1 CA         -2.2500  -10.2889  -49.9823 C.3       0 UNK        -0.1800 
      2 C          -1.3199  -10.5569  -48.8081 C.2       0 UNK         0.5000 
      3 O          -0.4897   -9.7100  -48.4746 O.2       0 UNK        -0.5000 
      4 N          -1.4599  -11.7243  -48.1685 N.am      1 UNK        -0.5000 
      5 CA         -0.6531  -12.1844  -47.0311 C.3       1 UNK         0.1400 
      6 C6         -0.6525  -13.7282  -46.9154 C.3       23 UNK        -0.0398 
      7 S7          0.1529  -14.5525  -48.3252 S.3       23 UNK        -0.2404 
      8 C8         -1.1708  -15.6701  -48.8731 C.3       23 UNK        -0.0205 
      9 C9         -0.6360  -16.6861  -49.8660 C.ar      23 UNK        -0.0193 
     10 C10        -0.6667  -16.4213  -51.2384 C.ar      23 UNK        -0.1150 
     11 C11        -0.1610  -17.3513  -52.1520 C.ar      23 UNK        -0.0193 
     12 C12         0.3837  -18.5492  -51.6752 C.ar      23 UNK        -0.1150 
     13 C13         0.4118  -18.8282  -50.3059 C.ar      23 UNK        -0.0193 
     14 C14        -0.1021  -17.8926  -49.4066 C.ar      23 UNK        -0.1150 
     15 C15         1.0167  -20.1305  -49.8047 C.3       23 UNK        -0.0205 
     16 S16        -0.1194  -21.5347  -50.0090 S.3       23 UNK        -0.2404 
     17 C17        -1.2773  -21.3655  -48.6056 C.3       23 UNK        -0.0398 
     18 CA         -1.1209  -22.5480  -47.6154 C.3       11 UNK         0.1400 
     19 N          -0.1551  -22.2853  -46.5451 N.am      11 UNK        -0.5000 
     20 C           0.3844  -23.2534  -45.7902 C.2       10 UNK         0.5000 
     21 O           0.1455  -24.4515  -45.9458 O.2       10 UNK        -0.5000 
     22 CA          1.3080  -22.8147  -44.6413 C.3       10 UNK         0.1400 
     23 CB          2.6937  -22.4174  -45.1718 C.3       10 UNK        -0.1800 
     24 N           0.7421  -21.7262  -43.8429 N.am      10 UNK        -0.5000 
     25 C          -0.3896  -21.8224  -43.1298 C.2       9 UNK         0.5000 
     26 O          -1.0660  -22.8480  -43.0585 O.2       9 UNK        -0.5000 
     27 CA         -0.8694  -20.5568  -42.3966 C.3       9 UNK         0.1400 
     28 CB         -0.1072  -20.3732  -41.0760 C.3       9 UNK        -0.1800 
     29 N          -0.7533  -19.3437  -43.2051 N.am      9 UNK        -0.5000 
     30 C          -1.3908  -19.1320  -44.3659 C.2       8 UNK         0.5000 
     31 O          -2.1704  -19.9321  -44.8804 O.2       8 UNK        -0.5000 
     32 CA         -1.0414  -17.8359  -45.1176 C.3       8 UNK         0.1400 
     33 CB         -1.7068  -16.6207  -44.4554 C.3       8 UNK        -0.1800 
     34 N           0.4034  -17.6275  -45.2155 N.am      8 UNK        -0.5000 
     35 C           1.2551  -18.4963  -45.7811 C.2       7 UNK         0.5000 
     36 O           0.9076  -19.5427  -46.3290 O.2       7 UNK        -0.5000 
     37 CA          2.7491  -18.1671  -45.6603 C.3       7 UNK         0.1400 
     38 CB          3.1629  -17.1218  -46.7074 C.3       7 UNK        -0.1800 
     39 N           3.0804  -17.7001  -44.3129 N.am      7 UNK        -0.5000 
     40 C           3.0907  -18.4910  -43.2289 C.2       6 UNK         0.5000 
     41 O           2.8660  -19.7003  -43.2658 O.2       6 UNK        -0.5000 
     42 CA          3.3601  -17.8166  -41.8706 C.3       6 UNK         0.1400 
     43 CB          4.8697  -17.6736  -41.6272 C.3       6 UNK        -0.1800 
     44 N           2.7235  -16.5050  -41.7517 N.am      6 UNK        -0.5000 
     45 C           1.3986  -16.3029  -41.7223 C.2       5 UNK         0.5000 
     46 O           0.5695  -17.2118  -41.7412 O.2       5 UNK        -0.5000 
     47 CA          0.9192  -14.8382  -41.7237 C.3       5 UNK         0.1400 
     48 CB          0.7642  -14.3172  -40.2878 C.3       5 UNK        -0.1800 
     49 N           1.7946  -13.9327  -42.4732 N.am      5 UNK        -0.5000 
     50 C           2.0942  -14.0470  -43.7727 C.2       4 UNK         0.5000 
     51 O           1.6814  -14.9687  -44.4790 O.2       4 UNK        -0.5000 
     52 CA          3.0175  -12.9622  -44.3649 C.3       4 UNK         0.1400 
     53 CB          3.2519  -13.1430  -45.8752 C.3       4 UNK        -0.1800 
     54 N           2.5183  -11.6064  -44.1235 N.am      4 UNK        -0.5000 
     55 C           2.6555  -10.9128  -42.9845 C.2       3 UNK         0.5000 
     56 O           3.1665  -11.3779  -41.9647 O.2       3 UNK        -0.5000 
     57 CA          2.1296   -9.4668  -42.9818 C.3       3 UNK         0.1400 
     58 CB          3.2253   -8.5001  -43.4570 C.3       3 UNK        -0.1800 
     59 N           0.9521   -9.3132  -43.8378 N.am      3 UNK        -0.5000 
     60 C          -0.3106   -9.4765  -43.4204 C.2       2 UNK         0.5000 
     61 O          -0.6258   -9.7274  -42.2567 O.2       2 UNK        -0.5000 
     62 CA         -1.4003   -9.3660  -44.5016 C.3       2 UNK         0.1400 
     63 CB         -1.6165   -7.9049  -44.9259 C.3       2 UNK        -0.1800 
     64 N          -1.0783  -10.1742  -45.6784 N.am      2 UNK        -0.5000 
     65 C          -1.0907  -11.5128  -45.7079 C.2       1 UNK         0.5000 
     66 O          -1.4360  -12.2030  -44.7474 O.2       1 UNK        -0.5000 
     67 C          -2.4740  -23.0425  -47.0620 C.2       11 UNK         0.5000 
     68 O          -3.0435  -23.9680  -47.6418 O.2       11 UNK        -0.5000 
     69 N          -2.9460  -22.4834  -45.9365 N.am      12 UNK        -0.5000 
     70 CA         -4.1552  -22.9292  -45.2325 C.3       12 UNK         0.1400 
     71 CB         -4.4728  -21.9823  -44.0666 C.3       12 UNK        -0.1800 
     72 C          -4.0732  -24.3862  -44.7439 C.2       12 UNK         0.5000 
     73 O          -5.0523  -25.1219  -44.8712 O.2       12 UNK        -0.5000 
     74 N          -2.9012  -24.7841  -44.2313 N.am      13 UNK        -0.5000 
     75 CA         -2.5976  -26.1582  -43.8332 C.3       13 UNK         0.1400 
     76 CB         -1.2902  -26.1774  -43.0266 C.3       13 UNK        -0.1800 
     77 C          -2.5130  -27.1264  -45.0291 C.2       13 UNK         0.5000 
     78 O          -2.8637  -28.2973  -44.8777 O.2       13 UNK        -0.5000 
     79 N          -2.0514  -26.6288  -46.1852 N.am      14 UNK        -0.5000 
     80 CA         -1.9429  -27.3824  -47.4312 C.3       14 UNK         0.1400 
     81 CB         -0.9785  -26.6720  -48.3961 C.3       14 UNK        -0.1800 
     82 C          -3.3185  -27.6447  -48.0714 C.2       14 UNK         0.5000 
     83 O          -3.7538  -28.7971  -48.0990 O.2       14 UNK        -0.5000 
     84 N          -3.9741  -26.5901  -48.5794 N.am      15 UNK        -0.5000 
     85 CA         -5.2540  -26.6906  -49.2959 C.3       15 UNK         0.1400 
     86 CB         -5.0554  -27.3514  -50.6788 C.3       15 UNK        -0.1800 
     87 C          -6.0113  -25.3519  -49.4210 C.2       15 UNK         0.5000 
     88 O          -6.9628  -25.2760  -50.2009 O.2       15 UNK        -0.5000 
     89 N          -5.5955  -24.3163  -48.6775 N.am      16 UNK        -0.5000 
     90 CA         -6.1576  -22.9619  -48.6651 C.3       16 UNK         0.1400 
     91 CB         -7.5622  -22.9561  -48.0225 C.3       16 UNK        -0.1800 
     92 C          -6.0802  -22.3057  -50.0552 C.2       16 UNK         0.5000 
     93 O          -4.9808  -22.2061  -50.5997 O.2       16 UNK        -0.5000 
     94 N          -7.2218  -21.8914  -50.6198 N.am      17 UNK        -0.5000 
     95 CA         -7.3299  -21.2353  -51.9264 C.3       17 UNK         0.1400 
     96 CB         -8.7924  -20.8276  -52.1599 C.3       17 UNK        -0.1800 
     97 C          -6.8108  -22.0787  -53.1088 C.2       17 UNK         0.5000 
     98 O          -6.3696  -21.5070  -54.1057 O.2       17 UNK        -0.5000 
     99 N          -6.8523  -23.4124  -52.9764 N.am      18 UNK        -0.5000 
    100 CA        -6.3113  -24.3469  -53.9639 C.3       18 UNK         0.1400 
    101 CB        -6.9624  -25.7235  -53.7703 C.3       18 UNK        -0.1800 
    102 C         -4.7743  -24.4500  -53.9089 C.2       18 UNK         0.5000 
    103 O         -4.1606  -24.7707  -54.9271 O.2       18 UNK        -0.5000 
    104 N         -4.1781  -24.1685  -52.7411 N.am      19 UNK        -0.5000 
    105 CA        -2.7290  -24.0774  -52.5635 C.3       19 UNK         0.1400 
    106 CB        -2.3518  -24.4331  -51.1165 C.3       19 UNK        -0.1800 
    107 C         -2.2281  -22.6721  -52.9288 C.2       19 UNK         0.5000 
    108 O         -1.2342  -22.5431  -53.6454 O.2       19 UNK        -0.5000 
    109 N         -2.9468  -21.6427  -52.4608 N.am      20 UNK        -0.5000 
    110 CA        -2.6474  -20.2241  -52.6498 C.3       20 UNK         0.1400 
    111 CB        -3.3337  -19.4125  -51.5360 C.3       20 UNK        -0.1800 
    112 C         -2.9920  -19.7060  -54.0620 C.2       20 UNK         0.5000 
    113 O         -3.6594  -18.6795  -54.2014 O.2       20 UNK        -0.5000 
    114 N         -2.5167  -20.4163  -55.0901 N.am      21 UNK        -0.5000 
    115 CA        -2.6644  -20.0463  -56.4941 C.3       21 UNK         0.1400 
    116 CB        -2.5688  -21.3103  -57.3631 C.3       21 UNK        -0.1800 
    117 C         -1.6171  -19.0015  -56.9189 C.2       21 UNK         0.5000 
    118 O         -1.9786  -18.0033  -57.5425 O.2       21 UNK        -0.5000 
    119 N         -0.3431  -19.2556  -56.5777 N.am      22 UNK        -0.5000 
    120 CA         0.8382  -18.4522  -56.9608 C.3       22 UNK         0.1400 
    121 C          1.0856  -18.3461  -58.5015 C.2       22 UNK         0.5000 
    122 N          0.5792  -19.2657  -59.3145 N.am      22 UNK        -0.7600 
    123 O          1.7735  -17.4441  -58.9725 O.2       22 UNK        -0.5000 
    124 C124        0.8995  -17.0775  -56.2298 C.3       23 UNK        -0.0398 
    125 S125        1.3696  -17.2538  -54.4755 S.3       23 UNK        -0.2404 
    126 C126       -0.2398  -17.0757  -53.6492 C.3       23 UNK        -0.0205 
    127 H127       -1.6693  -10.1201  -50.8891 H         1 UNK         0.0600 
    128 H128       -2.8503   -9.3997  -49.7898 H         1 UNK         0.0600 
    129 H129       -2.9268  -11.1245  -50.1625 H         1 UNK         0.0600 
    130 H130       -2.1749  -12.3664  -48.4779 H         1 UNK         0.3000 
    131 H131        0.3791  -11.8717  -47.2012 H         1 UNK         0.0600 
    132 H132       -0.1093  -14.0434  -46.0257 H         1 UNK         0.0800 
    133 H133       -1.6720  -14.0974  -46.7943 H         1 UNK         0.0800 
    134 H134       -1.9798  -15.0895  -49.3187 H         1 UNK         0.0800 
    135 H135       -1.5952  -16.1884  -48.0119 H         1 UNK         0.0800 
    136 H136       -1.0866  -15.4903  -51.5925 H         1 UNK         0.1150 
    137 H137        0.7764  -19.2750  -52.3736 H         1 UNK         0.1150 
    138 H138       -0.0782  -18.0969  -48.3469 H         1 UNK         0.1150 
    139 H139        1.9268  -20.3384  -50.3689 H         1 UNK         0.0800 
    140 H140        1.3249  -20.0505  -48.7637 H         1 UNK         0.0800 
    141 H141       -2.2782  -21.3472  -49.0403 H         1 UNK         0.0800 
    142 H142       -1.1490  -20.4051  -48.1046 H         1 UNK         0.0800 
    143 H143       -0.7321  -23.3979  -48.1804 H         1 UNK         0.0600 
    144 H144        0.1047  -21.3173  -46.3740 H         1 UNK         0.3000 
    145 H145        1.4375  -23.6735  -43.9792 H         1 UNK         0.0600 
    146 H146        3.3806  -22.1994  -44.3540 H         1 UNK         0.0600 
    147 H147        3.1332  -23.2254  -45.7578 H         1 UNK         0.0600 
    148 H148        2.6455  -21.5371  -45.8123 H         1 UNK         0.0600 
    149 H149        1.2673  -20.8586  -43.8208 H         1 UNK         0.3000 
    150 H150       -1.9260  -20.6926  -42.1588 H         1 UNK         0.0600 
    151 H151       -0.1895  -21.2624  -40.4497 H         1 UNK         0.0600 
    152 H152       -0.5063  -19.5351  -40.5045 H         1 UNK         0.0600 
    153 H153        0.9535  -20.1867  -41.2458 H         1 UNK         0.0600 
    154 H154       -0.1519  -18.6119  -42.8362 H         1 UNK         0.3000 
    155 H155       -1.4292  -17.9251  -46.1342 H         1 UNK         0.0600 
    156 H156       -1.3875  -16.4955  -43.4215 H         1 UNK         0.0600 
    157 H157       -1.4740  -15.7008  -44.9874 H         1 UNK         0.0600 
    158 H158       -2.7920  -16.7281  -44.4504 H         1 UNK         0.0600 
    159 H159        0.7796  -16.7770  -44.8094 H         1 UNK         0.3000 
    160 H160        3.3145  -19.0809  -45.8545 H         1 UNK         0.0600 
    161 H161        3.0037  -17.5042  -47.7166 H         1 UNK         0.0600 
    162 H162        2.5832  -16.2031  -46.6187 H         1 UNK         0.0600 
    163 H163        4.2185  -16.8658  -46.6181 H         1 UNK         0.0600 
    164 H164        3.1902  -16.7032  -44.1938 H         1 UNK         0.3000 
    165 H165        2.9491  -18.4631  -41.0922 H         1 UNK         0.0600 
    166 H166        5.0726  -17.2704  -40.6349 H         1 UNK         0.0600 
    167 H167        5.3682  -18.6418  -41.6916 H         1 UNK         0.0600 
    168 H168        5.3366  -17.0146  -42.3602 H         1 UNK         0.0600 
    169 H169        3.3318  -15.7000  -41.7303 H         1 UNK         0.3000 
    170 H170       -0.0614  -14.8146  -42.2029 H         1 UNK         0.0600 
    171 H171        0.0975  -14.9582  -39.7093 H         1 UNK         0.0600 
    172 H172        1.7218  -14.2822  -39.7668 H         1 UNK         0.0600 
    173 H173        0.3392  -13.3133  -40.2770 H         1 UNK         0.0600 
    174 H174        2.1825  -13.1413  -41.9705 H         1 UNK         0.3000 
    175 H175        3.9859  -13.0683  -43.8714 H         1 UNK         0.0600 
    176 H176        2.3205  -13.1033  -46.4389 H         1 UNK         0.0600 
    177 H177        3.9154  -12.3723  -46.2678 H         1 UNK         0.0600 
    178 H178        3.7204  -14.1050  -46.0843 H         1 UNK         0.0600 
    179 H179        2.0581  -11.1568  -44.8988 H         1 UNK         0.3000 
    180 H180        1.8750   -9.2052  -41.9523 H         1 UNK         0.0600 
    181 H181        3.5310   -8.7061  -44.4836 H         1 UNK         0.0600 
    182 H182        4.1134   -8.5775  -42.8282 H         1 UNK         0.0600 
    183 H183        2.8844   -7.4657  -43.4098 H         1 UNK         0.0600 
    184 H184        1.1154   -9.0850  -44.8074 H         1 UNK         0.3000 
    185 H185       -2.3353   -9.7359  -44.0751 H         1 UNK         0.0600 
    186 H186       -2.4421   -7.8197  -45.6328 H         1 UNK         0.0600 
    187 H187       -1.8607   -7.2809  -44.0652 H         1 UNK         0.0600 
    188 H188       -0.7285   -7.4823  -45.3976 H         1 UNK         0.0600 
    189 H189       -0.8139   -9.6851  -46.5284 H         1 UNK         0.3000 
    190 H190       -2.4541  -21.6934  -45.5260 H         1 UNK         0.3000 
    191 H191       -4.9892  -22.8750  -45.9306 H         1 UNK         0.0600 
    192 H192       -3.6607  -21.9508  -43.3409 H         1 UNK         0.0600 
    193 H193       -5.3726  -22.3002  -43.5383 H         1 UNK         0.0600 
    194 H194       -4.6482  -20.9665  -44.4206 H         1 UNK         0.0600 
    195 H195       -2.1652  -24.0969  -44.0942 H         1 UNK         0.3000 
    196 H196       -3.4021  -26.5066  -43.1821 H         1 UNK         0.0600 
    197 H197       -1.0461  -27.1891  -42.7003 H         1 UNK         0.0600 
    198 H198       -1.3696  -25.5575  -42.1334 H         1 UNK         0.0600 
    199 H199       -0.4492  -25.8090  -43.6148 H         1 UNK         0.0600 
    200 H200       -1.7503  -25.6628  -46.2092 H         1 UNK         0.3000 
    201 H201       -1.5025  -28.3543  -47.1978 H         1 UNK         0.0600 
    202 H202        0.0204  -26.5973  -47.9658 H         1 UNK         0.0600 
    203 H203       -1.3071  -25.6638  -48.6396 H         1 UNK         0.0600 
    204 H204       -0.8887  -27.2222  -49.3335 H         1 UNK         0.0600 
    205 H205       -3.5662  -25.6665  -48.4744 H         1 UNK         0.3000 
    206 H206       -5.9076  -27.3367  -48.7066 H         1 UNK         0.0600 
    207 H207       -4.5075  -28.2906  -50.6136 H         1 UNK         0.0600 
    208 H208       -6.0165  -27.5876  -51.1353 H         1 UNK         0.0600 
    209 H209       -4.5171  -26.6998  -51.3658 H         1 UNK         0.0600 
    210 H210       -4.7539  -24.4199  -48.1192 H         1 UNK         0.3000 
    211 H211       -5.5042  -22.3581  -48.0368 H         1 UNK         0.0600 
    212 H212       -8.2850  -23.5338  -48.5995 H         1 UNK         0.0600 
    213 H213       -7.9472  -21.9405  -47.9226 H         1 UNK         0.0600 
    214 H214       -7.5285  -23.3827  -47.0198 H         1 UNK         0.0600 
    215 H215       -8.0850  -22.0369  -50.1170 H         1 UNK         0.3000 
    216 H216       -6.7257  -20.3269  -51.8887 H         1 UNK         0.0600 
    217 H217       -8.9068  -20.3102  -53.1134 H         1 UNK         0.0600 
    218 H218       -9.1433  -20.1504  -51.3809 H         1 UNK         0.0600 
    219 H219       -9.4536  -21.6950  -52.1756 H         1 UNK         0.0600 
    220 H220       -7.2148  -23.8107  -52.1193 H         1 UNK         0.3000 
    221 H221       -6.5776  -23.9920  -54.9619 H         1 UNK         0.0600 
    222 H222       -6.7712  -26.1211  -52.7753 H         1 UNK         0.0600 
    223 H223       -8.0426  -25.6704  -53.9066 H         1 UNK         0.0600 
    224 H224       -6.5783  -26.4447  -54.4928 H         1 UNK         0.0600 
    225 H225       -4.7475  -23.8428  -51.9708 H         1 UNK         0.3000 
    226 H226       -2.2324  -24.7938  -53.2213 H         1 UNK         0.0600 
    227 H227       -2.6042  -25.4664  -50.8860 H         1 UNK         0.0600 
    228 H228       -1.2785  -24.3241  -50.9566 H         1 UNK         0.0600 
    229 H229       -2.8548  -23.7923  -50.3926 H         1 UNK         0.0600 
    230 H230       -3.7451  -21.8480  -51.8640 H         1 UNK         0.3000 
    231 H231       -1.5723  -20.1021  -52.5322 H         1 UNK         0.0600 
    232 H232       -3.0078  -19.7399  -50.5503 H         1 UNK         0.0600 
    233 H233       -4.4186  -19.5073  -51.5804 H         1 UNK         0.0600 
    234 H234       -3.0894  -18.3524  -51.6138 H         1 UNK         0.0600 
    235 H235       -1.9758  -21.2486  -54.8749 H         1 UNK         0.3000 
    236 H236       -3.6553  -19.6123  -56.6454 H         1 UNK         0.0600 
    237 H237       -3.3565  -22.0201  -57.1084 H         1 UNK         0.0600 
    238 H238       -2.6806  -21.0668  -58.4204 H         1 UNK         0.0600 
    239 H239       -1.6116  -21.8182  -57.2400 H         1 UNK         0.0600 
    240 H240       -0.1447  -20.0991  -56.0600 H         1 UNK         0.3000 
    241 H241        1.6970  -19.0309  -56.6190 H         1 UNK         0.0600 
    242 H242        0.7520  -19.1986  -60.3055 H         1 UNK         0.3800 
    243 H243        0.0299  -20.0282  -58.9527 H         1 UNK         0.3800 
    244 H244        1.6568  -16.4283  -56.6710 H         1 UNK         0.0800 
    245 H245       -0.0424  -16.5359  -56.3232 H         1 UNK         0.0800 
    246 H246       -0.6228  -16.0718  -53.8385 H         1 UNK         0.0800 
    247 H247       -0.9488  -17.7671  -54.0991 H         1 UNK         0.0800 
@<TRIPOS>BOND
     1    1    2 1    
     2    1  127 1    
     3    1  128 1    
     4    1  129 1    
     5    2    3 2    
     6    2    4 am   BACKBONE|DICT|INTERRES
     7    4    5 1    
     8    4  130 1    
     9    5    6 1    
    10    5   65 1    
    11    5  131 1    
    12    6    7 1    
    13    6  132 1    
    14    6  133 1    
    15    7    8 1    
    16    8    9 1    
    17    8  134 1    
    18    8  135 1    
    19    9   10 ar   
    20    9   14 ar   
    21   10   11 ar   
    22   10  136 1    
    23   11   12 ar   
    24   11  126 1    
    25   12   13 ar   
    26   12  137 1    
    27   13   14 ar   
    28   13   15 1    
    29   14  138 1    
    30   15   16 1    
    31   15  139 1    
    32   15  140 1    
    33   16   17 1    
    34   17   18 1    
    35   17  141 1    
    36   17  142 1    
    37   18   19 1    
    38   18   67 1    
    39   18  143 1    
    40   19   20 am   BACKBONE|DICT|INTERRES
    41   19  144 1    
    42   20   21 2    
    43   20   22 1    
    44   22   23 1    
    45   22   24 1    
    46   22  145 1    
    47   23  146 1    
    48   23  147 1    
    49   23  148 1    
    50   24   25 am   BACKBONE|DICT|INTERRES
    51   24  149 1    
    52   25   26 2    
    53   25   27 1    
    54   27   28 1    
    55   27   29 1    
    56   27  150 1    
    57   28  151 1    
    58   28  152 1    
    59   28  153 1    
    60   29   30 am   BACKBONE|DICT|INTERRES
    61   29  154 1    
    62   30   31 2    
    63   30   32 1    
    64   32   33 1    
    65   32   34 1    
    66   32  155 1    
    67   33  156 1    
    68   33  157 1    
    69   33  158 1    
    70   34   35 am   BACKBONE|DICT|INTERRES
    71   34  159 1    
    72   35   36 2    
    73   35   37 1    
    74   37   38 1    
    75   37   39 1    
    76   37  160 1    
    77   38  161 1    
    78   38  162 1    
    79   38  163 1    
    80   39   40 am   BACKBONE|DICT|INTERRES
    81   39  164 1    
    82   40   41 2    
    83   40   42 1    
    84   42   43 1    
    85   42   44 1    
    86   42  165 1    
    87   43  166 1    
    88   43  167 1    
    89   43  168 1    
    90   44   45 am   BACKBONE|DICT|INTERRES
    91   44  169 1    
    92   45   46 2    
    93   45   47 1    
    94   47   48 1    
    95   47   49 1    
    96   47  170 1    
    97   48  171 1    
    98   48  172 1    
    99   48  173 1    
   100   49   50 am   BACKBONE|DICT|INTERRES
   101   49  174 1    
   102   50   51 2    
   103   50   52 1    
   104   52   53 1    
   105   52   54 1    
   106   52  175 1    
   107   53  176 1    
   108   53  177 1    
   109   53  178 1    
   110   54   55 am   BACKBONE|DICT|INTERRES
   111   54  179 1    
   112   55   56 2    
   113   55   57 1    
   114   57   58 1    
   115   57   59 1    
   116   57  180 1    
   117   58  181 1    
   118   58  182 1    
   119   58  183 1    
   120   59   60 am   BACKBONE|DICT|INTERRES
   121   59  184 1    
   122   60   61 2    
   123   60   62 1    
   124   62   63 1    
   125   62   64 1    
   126   62  185 1    
   127   63  186 1    
   128   63  187 1    
   129   63  188 1    
   130   64   65 am   BACKBONE|DICT|INTERRES
   131   64  189 1    
   132   65   66 2    
   133   67   68 2    
   134   67   69 am   BACKBONE|DICT|INTERRES
   135   69   70 1    
   136   69  190 1    
   137   70   71 1    
   138   70   72 1    
   139   70  191 1    
   140   71  192 1    
   141   71  193 1    
   142   71  194 1    
   143   72   73 2    
   144   72   74 am   BACKBONE|DICT|INTERRES
   145   74   75 1    
   146   74  195 1    
   147   75   76 1    
   148   75   77 1    
   149   75  196 1    
   150   76  197 1    
   151   76  198 1    
   152   76  199 1    
   153   77   78 2    
   154   77   79 am   BACKBONE|DICT|INTERRES
   155   79   80 1    
   156   79  200 1    
   157   80   81 1    
   158   80   82 1    
   159   80  201 1    
   160   81  202 1    
   161   81  203 1    
   162   81  204 1    
   163   82   83 2    
   164   82   84 am   BACKBONE|DICT|INTERRES
   165   84   85 1    
   166   84  205 1    
   167   85   86 1    
   168   85   87 1    
   169   85  206 1    
   170   86  207 1    
   171   86  208 1    
   172   86  209 1    
   173   87   88 2    
   174   87   89 am   BACKBONE|DICT|INTERRES
   175   89   90 1    
   176   89  210 1    
   177   90   91 1    
   178   90   92 1    
   179   90  211 1    
   180   91  212 1    
   181   91  213 1    
   182   91  214 1    
   183   92   93 2    
   184   92   94 am   BACKBONE|DICT|INTERRES
   185   94   95 1    
   186   94  215 1    
   187   95   96 1    
   188   95   97 1    
   189   95  216 1    
   190   96  217 1    
   191   96  218 1    
   192   96  219 1    
   193   97   98 2    
   194   97   99 am   BACKBONE|DICT|INTERRES
   195   99  100 1    
   196   99  220 1    
   197  100  101 1    
   198  100  102 1    
   199  100  221 1    
   200  101  222 1    
   201  101  223 1    
   202  101  224 1    
   203  102  103 2    
   204  102  104 am   BACKBONE|DICT|INTERRES
   205  104  105 1    
   206  104  225 1    
   207  105  106 1    
   208  105  107 1    
   209  105  226 1    
   210  106  227 1    
   211  106  228 1    
   212  106  229 1    
   213  107  108 2    
   214  107  109 am   BACKBONE|DICT|INTERRES
   215  109  110 1    
   216  109  230 1    
   217  110  111 1    
   218  110  112 1    
   219  110  231 1    
   220  111  232 1    
   221  111  233 1    
   222  111  234 1    
   223  112  113 2    
   224  112  114 am   BACKBONE|DICT|INTERRES
   225  114  115 1    
   226  114  235 1    
   227  115  116 1    
   228  115  117 1    
   229  115  236 1    
   230  116  237 1    
   231  116  238 1    
   232  116  239 1    
   233  117  118 2    
   234  117  119 am   BACKBONE|DICT|INTERRES
   235  119  120 1    
   236  119  240 1    
   237  120  121 1    
   238  120  124 1    
   239  120  241 1    
   240  121  122 am   BACKBONE|DICT|INTERRES
   241  121  123 2    
   242  122  242 1    
   243  122  243 1    
   244  124  125 1    
   245  124  244 1    
   246  124  245 1    
   247  125  126 1    
   248  126  246 1    
   249  126  247 1    
@<TRIPOS>SUBSTRUCTURE
     1 UNK         1 GROUP             0       ****    0 ROOT    
