@<TRIPOS>MOLECULE
3R540
247   249    1
SMALL
USER_CHARGES


@<TRIPOS>ATOM
      1 CA          2.3309  -11.9783  -52.6394 C.3       0 UNK        -0.1800 
      2 C           2.8478  -11.8537  -51.2131 C.2       0 UNK         0.5000 
      3 O           4.0103  -11.5037  -51.0092 O.2       0 UNK        -0.5000 
      4 N           1.9929  -12.1421  -50.2292 N.am      1 UNK        -0.5000 
      5 CA          2.2843  -12.0812  -48.7988 C.3       1 UNK         0.1400 
      6 C6          3.1650  -13.2640  -48.3045 C.3       23 UNK        -0.0398 
      7 S7          2.4055  -14.9173  -48.4858 S.3       23 UNK        -0.2404 
      8 C8          3.2278  -15.5145  -49.9925 C.3       23 UNK        -0.0205 
      9 C9          2.6817  -16.8688  -50.4094 C.ar      23 UNK        -0.0193 
     10 C10         1.6142  -16.9539  -51.3091 C.ar      23 UNK        -0.1150 
     11 C11         1.1097  -18.2003  -51.6907 C.ar      23 UNK        -0.0193 
     12 C12         1.6787  -19.3642  -51.1657 C.ar      23 UNK        -0.1150 
     13 C13         2.7437  -19.2904  -50.2642 C.ar      23 UNK        -0.0193 
     14 C14         3.2439  -18.0394  -49.8932 C.ar      23 UNK        -0.1150 
     15 C15         3.3585  -20.5588  -49.6920 C.3       23 UNK        -0.0205 
     16 S16         2.9253  -20.7866  -47.9397 S.3       23 UNK        -0.2404 
     17 C17         1.1426  -21.1662  -48.0251 C.3       23 UNK        -0.0398 
     18 CA          0.8058  -22.5352  -47.3908 C.3       11 UNK         0.1400 
     19 N           1.1606  -22.5784  -45.9738 N.am      11 UNK        -0.5000 
     20 C           1.2972  -23.6910  -45.2443 C.2       10 UNK         0.5000 
     21 O           1.1747  -24.8268  -45.7075 O.2       10 UNK        -0.5000 
     22 CA          1.6245  -23.4879  -43.7499 C.3       10 UNK         0.1400 
     23 CB          2.1325  -24.7682  -43.0555 C.3       10 UNK        -0.1800 
     24 N           2.5357  -22.3638  -43.5120 N.am      10 UNK        -0.5000 
     25 C           3.7987  -22.2165  -43.9416 C.2       9 UNK         0.5000 
     26 O           4.4091  -23.0733  -44.5822 O.2       9 UNK        -0.5000 
     27 CA          4.5115  -20.8880  -43.6029 C.3       9 UNK         0.1400 
     28 CB          4.7473  -20.0548  -44.8713 C.3       9 UNK        -0.1800 
     29 N           3.7852  -20.0618  -42.6374 N.am      9 UNK        -0.5000 
     30 C           3.7290  -20.2872  -41.3187 C.2       8 UNK         0.5000 
     31 O           4.3529  -21.1834  -40.7495 O.2       8 UNK        -0.5000 
     32 CA          2.7812  -19.3832  -40.5076 C.3       8 UNK         0.1400 
     33 CB          3.4889  -18.0832  -40.0974 C.3       8 UNK        -0.1800 
     34 N           1.5423  -19.0642  -41.2241 N.am      8 UNK        -0.5000 
     35 C           0.6160  -19.9661  -41.5820 C.2       7 UNK         0.5000 
     36 O           0.6962  -21.1665  -41.3231 O.2       7 UNK        -0.5000 
     37 CA         -0.5804  -19.4553  -42.4024 C.3       7 UNK         0.1400 
     38 CB         -1.6131  -18.7809  -41.4867 C.3       7 UNK        -0.1800 
     39 N          -0.1805  -18.5389  -43.4713 N.am      7 UNK        -0.5000 
     40 C           0.5690  -18.8844  -44.5289 C.2       6 UNK         0.5000 
     41 O           0.9640  -20.0308  -44.7361 O.2       6 UNK        -0.5000 
     42 CA          0.9831  -17.7581  -45.4955 C.3       6 UNK         0.1400 
     43 CB         -0.1419  -17.4375  -46.4908 C.3       6 UNK        -0.1800 
     44 N           1.3788  -16.5360  -44.7960 N.am      6 UNK        -0.5000 
     45 C           2.4076  -16.4475  -43.9413 C.2       5 UNK         0.5000 
     46 O           3.1778  -17.3748  -43.6930 O.2       5 UNK        -0.5000 
     47 CA          2.5581  -15.1174  -43.1859 C.3       5 UNK         0.1400 
     48 CB          3.2340  -14.0515  -44.0626 C.3       5 UNK        -0.1800 
     49 N           1.2666  -14.6256  -42.7041 N.am      5 UNK        -0.5000 
     50 C           0.5648  -15.1978  -41.7149 C.2       4 UNK         0.5000 
     51 O           0.9543  -16.1781  -41.0813 O.2       4 UNK        -0.5000 
     52 CA         -0.8183  -14.5968  -41.4027 C.3       4 UNK         0.1400 
     53 CB         -0.6851  -13.4070  -40.4408 C.3       4 UNK        -0.1800 
     54 N          -1.5341  -14.1688  -42.6048 N.am      4 UNK        -0.5000 
     55 C          -1.9898  -14.9991  -43.5538 C.2       3 UNK         0.5000 
     56 O          -1.8949  -16.2232  -43.4938 O.2       3 UNK        -0.5000 
     57 CA         -2.6026  -14.3466  -44.8075 C.3       3 UNK         0.1400 
     58 CB         -4.1024  -14.0874  -44.6039 C.3       3 UNK        -0.1800 
     59 N          -1.9362  -13.0975  -45.1905 N.am      3 UNK        -0.5000 
     60 C          -0.6439  -13.0070  -45.5310 C.2       2 UNK         0.5000 
     61 O           0.1255  -13.9709  -45.5448 O.2       2 UNK        -0.5000 
     62 CA         -0.1089  -11.5943  -45.8281 C.3       2 UNK         0.1400 
     63 CB          0.3290  -10.9128  -44.5218 C.3       2 UNK        -0.1800 
     64 N           1.0318  -11.6298  -46.7426 N.am      2 UNK        -0.5000 
     65 C           0.9504  -11.9586  -48.0375 C.2       1 UNK         0.5000 
     66 O          -0.1174  -12.1545  -48.6283 O.2       1 UNK        -0.5000 
     67 C          -0.6930  -22.8417  -47.5554 C.2       11 UNK         0.5000 
     68 O          -1.5085  -22.3096  -46.7961 O.2       11 UNK        -0.5000 
     69 N          -1.0377  -23.6509  -48.5683 N.am      12 UNK        -0.5000 
     70 CA         -2.3980  -24.1214  -48.8647 C.3       12 UNK         0.1400 
     71 CB         -2.3639  -25.0341  -50.0984 C.3       12 UNK        -0.1800 
     72 C          -3.4371  -23.0030  -49.0634 C.2       12 UNK         0.5000 
     73 O          -4.6101  -23.2101  -48.7549 O.2       12 UNK        -0.5000 
     74 N          -2.9817  -21.8264  -49.5127 N.am      13 UNK        -0.5000 
     75 CA         -3.7690  -20.6010  -49.6503 C.3       13 UNK         0.1400 
     76 CB         -2.8808  -19.5138  -50.2721 C.3       13 UNK        -0.1800 
     77 C          -4.3934  -20.0895  -48.3385 C.2       13 UNK         0.5000 
     78 O          -5.4336  -19.4342  -48.3936 O.2       13 UNK        -0.5000 
     79 N          -3.7654  -20.4026  -47.1984 N.am      14 UNK        -0.5000 
     80 CA         -4.2469  -20.0488  -45.8648 C.3       14 UNK         0.1400 
     81 CB         -3.1687  -19.2271  -45.1475 C.3       14 UNK        -0.1800 
     82 C          -4.6021  -21.3003  -45.0482 C.2       14 UNK         0.5000 
     83 O          -5.5982  -21.2830  -44.3255 O.2       14 UNK        -0.5000 
     84 N          -3.7942  -22.3631  -45.1731 N.am      15 UNK        -0.5000 
     85 CA         -3.9332  -23.6008  -44.4049 C.3       15 UNK         0.1400 
     86 CB         -2.6323  -24.4115  -44.5156 C.3       15 UNK        -0.1800 
     87 C          -5.1435  -24.4565  -44.8221 C.2       15 UNK         0.5000 
     88 O          -5.7264  -25.1230  -43.9659 O.2       15 UNK        -0.5000 
     89 N          -5.4953  -24.4288  -46.1145 N.am      16 UNK        -0.5000 
     90 CA         -6.5988  -25.2014  -46.6936 C.3       16 UNK         0.1400 
     91 CB         -6.0074  -26.2468  -47.6559 C.3       16 UNK        -0.1800 
     92 C          -7.6264  -24.3148  -47.4221 C.2       16 UNK         0.5000 
     93 O          -8.6581  -24.8320  -47.8521 O.2       16 UNK        -0.5000 
     94 N          -7.3227  -23.0152  -47.5733 N.am      17 UNK        -0.5000 
     95 CA         -8.0363  -22.0244  -48.3903 C.3       17 UNK         0.1400 
     96 CB         -9.4331  -21.7279  -47.8063 C.3       17 UNK        -0.1800 
     97 C          -8.0708  -22.4042  -49.8894 C.2       17 UNK         0.5000 
     98 O          -9.0461  -22.1106  -50.5828 O.2       17 UNK        -0.5000 
     99 N          -7.0045  -23.0656  -50.3557 N.am      18 UNK        -0.5000 
    100 CA        -6.8727  -23.6522  -51.6853 C.3       18 UNK         0.1400 
    101 CB        -6.7303  -25.1777  -51.5325 C.3       18 UNK        -0.1800 
    102 C         -5.6735  -23.0113  -52.3988 C.2       18 UNK         0.5000 
    103 O         -4.6688  -23.6773  -52.6531 O.2       18 UNK        -0.5000 
    104 N         -5.7853  -21.7041  -52.6683 N.am      19 UNK        -0.5000 
    105 CA        -4.7401  -20.9100  -53.3169 C.3       19 UNK         0.1400 
    106 CB        -5.0385  -19.4160  -53.1153 C.3       19 UNK        -0.1800 
    107 C         -4.5884  -21.2283  -54.8143 C.2       19 UNK         0.5000 
    108 O         -3.4630  -21.2721  -55.3125 O.2       19 UNK        -0.5000 
    109 N         -5.7229  -21.4352  -55.5016 N.am      20 UNK        -0.5000 
    110 CA        -5.8409  -21.6694  -56.9451 C.3       20 UNK         0.1400 
    111 CB        -5.3457  -23.0908  -57.2964 C.3       20 UNK        -0.1800 
    112 C         -5.1624  -20.5394  -57.7528 C.2       20 UNK         0.5000 
    113 O         -5.5256  -19.3742  -57.5760 O.2       20 UNK        -0.5000 
    114 N         -4.1618  -20.8819  -58.5760 N.am      21 UNK        -0.5000 
    115 CA        -3.3467  -19.9489  -59.3611 C.3       21 UNK         0.1400 
    116 CB        -2.4354  -20.7564  -60.2983 C.3       21 UNK        -0.1800 
    117 C         -2.5122  -18.9643  -58.5127 C.2       21 UNK         0.5000 
    118 O         -2.1214  -17.9139  -59.0235 O.2       21 UNK        -0.5000 
    119 N         -2.2684  -19.3046  -57.2401 N.am      22 UNK        -0.5000 
    120 CA        -1.6412  -18.4313  -56.2368 C.3       22 UNK         0.1400 
    121 C         -2.6003  -17.3414  -55.6639 C.2       22 UNK         0.5000 
    122 N         -3.8972  -17.3635  -55.9564 N.am      22 UNK        -0.7600 
    123 O         -2.1606  -16.4459  -54.9495 O.2       22 UNK        -0.5000 
    124 C124       -0.9876  -19.2828  -55.1157 C.3       23 UNK        -0.0398 
    125 S125        0.4997  -18.5325  -54.3685 S.3       23 UNK        -0.2404 
    126 C126       -0.0612  -18.3017  -52.6534 C.3       23 UNK        -0.0205 
    127 H127        1.2892  -12.2995  -52.6659 H         1 UNK         0.0600 
    128 H128        2.9247  -12.7074  -53.1907 H         1 UNK         0.0600 
    129 H129        2.4045  -11.0188  -53.1511 H         1 UNK         0.0600 
    130 H130        1.0305  -12.3874  -50.4287 H         1 UNK         0.3000 
    131 H131        2.8280  -11.1523  -48.6135 H         1 UNK         0.0600 
    132 H132        3.4138  -13.1290  -47.2513 H         1 UNK         0.0800 
    133 H133        4.1243  -13.2511  -48.8230 H         1 UNK         0.0800 
    134 H134        4.3030  -15.5809  -49.8194 H         1 UNK         0.0800 
    135 H135        3.0875  -14.7948  -50.7993 H         1 UNK         0.0800 
    136 H136        1.1741  -16.0508  -51.7085 H         1 UNK         0.1150 
    137 H137        1.2897  -20.3284  -51.4614 H         1 UNK         0.1150 
    138 H138        4.0644  -17.9778  -49.1918 H         1 UNK         0.1150 
    139 H139        3.0522  -21.4372  -50.2621 H         1 UNK         0.0800 
    140 H140        4.4442  -20.5008  -49.7808 H         1 UNK         0.0800 
    141 H141        0.8183  -21.1416  -49.0659 H         1 UNK         0.0800 
    142 H142        0.6028  -20.3647  -47.5201 H         1 UNK         0.0800 
    143 H143        1.3797  -23.3058  -47.9101 H         1 UNK         0.0600 
    144 H144        1.2239  -21.6764  -45.5055 H         1 UNK         0.3000 
    145 H145        0.6818  -23.2127  -43.2753 H         1 UNK         0.0600 
    146 H146        2.3375  -24.5878  -42.0002 H         1 UNK         0.0600 
    147 H147        1.3876  -25.5628  -43.1092 H         1 UNK         0.0600 
    148 H148        3.0459  -25.1453  -43.5160 H         1 UNK         0.0600 
    149 H149        2.1281  -21.5900  -43.0033 H         1 UNK         0.3000 
    150 H150        5.4852  -21.1434  -43.1801 H         1 UNK         0.0600 
    151 H151        5.2730  -20.6309  -45.6337 H         1 UNK         0.0600 
    152 H152        5.3497  -19.1722  -44.6563 H         1 UNK         0.0600 
    153 H153        3.8054  -19.7160  -45.3032 H         1 UNK         0.0600 
    154 H154        3.2936  -19.2567  -43.0143 H         1 UNK         0.3000 
    155 H155        2.5093  -19.9226  -39.5980 H         1 UNK         0.0600 
    156 H156        4.4090  -18.2939  -39.5510 H         1 UNK         0.0600 
    157 H157        2.8562  -17.4787  -39.4474 H         1 UNK         0.0600 
    158 H158        3.7525  -17.4774  -40.9648 H         1 UNK         0.0600 
    159 H159        1.3806  -18.0837  -41.4339 H         1 UNK         0.3000 
    160 H160       -1.0568  -20.3209  -42.8678 H         1 UNK         0.0600 
    161 H161       -1.2067  -17.8904  -41.0076 H         1 UNK         0.0600 
    162 H162       -1.9362  -19.4599  -40.6968 H         1 UNK         0.0600 
    163 H163       -2.5025  -18.4834  -42.0404 H         1 UNK         0.0600 
    164 H164       -0.5367  -17.5895  -43.4106 H         1 UNK         0.3000 
    165 H165        1.8460  -18.1129  -46.0632 H         1 UNK         0.0600 
    166 H166        0.2030  -16.7501  -47.2633 H         1 UNK         0.0600 
    167 H167       -0.5001  -18.3370  -46.9917 H         1 UNK         0.0600 
    168 H168       -0.9948  -16.9764  -45.9947 H         1 UNK         0.0600 
    169 H169        0.8229  -15.7041  -44.9740 H         1 UNK         0.3000 
    170 H170        3.1989  -15.2952  -42.3196 H         1 UNK         0.0600 
    171 H171        3.3685  -13.1179  -43.5163 H         1 UNK         0.0600 
    172 H172        4.2211  -14.3852  -44.3849 H         1 UNK         0.0600 
    173 H173        2.6563  -13.8352  -44.9605 H         1 UNK         0.0600 
    174 H174        0.8465  -13.8704  -43.2245 H         1 UNK         0.3000 
    175 H175       -1.4136  -15.3686  -40.9105 H         1 UNK         0.0600 
    176 H176       -0.1693  -13.7014  -39.5258 H         1 UNK         0.0600 
    177 H177       -0.1203  -12.5875  -40.8871 H         1 UNK         0.0600 
    178 H178       -1.6633  -13.0226  -40.1514 H         1 UNK         0.0600 
    179 H179       -1.6580  -13.1760  -42.7346 H         1 UNK         0.3000 
    180 H180       -2.4884  -15.0509  -45.6339 H         1 UNK         0.0600 
    181 H181       -4.6240  -15.0079  -44.3375 H         1 UNK         0.0600 
    182 H182       -4.2830  -13.3650  -43.8070 H         1 UNK         0.0600 
    183 H183       -4.5642  -13.7063  -45.5149 H         1 UNK         0.0600 
    184 H184       -2.5055  -12.2634  -45.1887 H         1 UNK         0.3000 
    185 H185       -0.9052  -11.0039  -46.2864 H         1 UNK         0.0600 
    186 H186       -0.5011  -10.8391  -43.8181 H         1 UNK         0.0600 
    187 H187        1.1306  -11.4635  -44.0275 H         1 UNK         0.0600 
    188 H188        0.6846   -9.8989  -44.7067 H         1 UNK         0.0600 
    189 H189        1.9400  -11.4952  -46.3244 H         1 UNK         0.3000 
    190 H190       -0.3065  -24.0364  -49.1488 H         1 UNK         0.3000 
    191 H191       -2.7292  -24.7169  -48.0120 H         1 UNK         0.0600 
    192 H192       -1.7121  -25.8930  -49.9381 H         1 UNK         0.0600 
    193 H193       -2.0113  -24.5021  -50.9830 H         1 UNK         0.0600 
    194 H194       -3.3581  -25.4212  -50.3264 H         1 UNK         0.0600 
    195 H195       -2.0016  -21.7588  -49.7394 H         1 UNK         0.3000 
    196 H196       -4.5937  -20.8136  -50.3303 H         1 UNK         0.0600 
    197 H197       -3.4240  -18.5744  -50.3832 H         1 UNK         0.0600 
    198 H198       -2.5446  -19.8108  -51.2634 H         1 UNK         0.0600 
    199 H199       -1.9995  -19.3123  -49.6614 H         1 UNK         0.0600 
    200 H200       -2.9238  -20.9669  -47.2415 H         1 UNK         0.3000 
    201 H201       -5.1487  -19.4360  -45.9252 H         1 UNK         0.0600 
    202 H202       -3.4796  -18.9705  -44.1349 H         1 UNK         0.0600 
    203 H203       -2.2297  -19.7766  -45.0803 H         1 UNK         0.0600 
    204 H204       -2.9764  -18.2918  -45.6719 H         1 UNK         0.0600 
    205 H205       -2.9697  -22.2978  -45.7663 H         1 UNK         0.3000 
    206 H206       -4.0696  -23.3306  -43.3555 H         1 UNK         0.0600 
    207 H207       -1.7771  -23.8333  -44.1655 H         1 UNK         0.0600 
    208 H208       -2.6826  -25.3169  -43.9097 H         1 UNK         0.0600 
    209 H209       -2.4313  -24.7155  -45.5431 H         1 UNK         0.0600 
    210 H210       -4.9553  -23.8698  -46.7629 H         1 UNK         0.3000 
    211 H211       -7.1508  -25.7313  -45.9150 H         1 UNK         0.0600 
    212 H212       -6.7910  -26.8612  -48.1010 H         1 UNK         0.0600 
    213 H213       -5.3259  -26.9191  -47.1347 H         1 UNK         0.0600 
    214 H214       -5.4559  -25.7784  -48.4712 H         1 UNK         0.0600 
    215 H215       -6.4429  -22.7025  -47.1920 H         1 UNK         0.3000 
    216 H216       -7.4579  -21.1036  -48.3270 H         1 UNK         0.0600 
    217 H217       -9.9007  -20.8877  -48.3208 H         1 UNK         0.0600 
    218 H218       -9.3704  -21.4656  -46.7502 H         1 UNK         0.0600 
    219 H219      -10.1041  -22.5819  -47.9012 H         1 UNK         0.0600 
    220 H220       -6.2149  -23.2089  -49.7301 H         1 UNK         0.3000 
    221 H221       -7.7581  -23.4539  -52.2926 H         1 UNK         0.0600 
    222 H222       -5.8532  -25.4442  -50.9418 H         1 UNK         0.0600 
    223 H223       -7.6040  -25.6054  -51.0401 H         1 UNK         0.0600 
    224 H224       -6.6340  -25.6617  -52.5051 H         1 UNK         0.0600 
    225 H225       -6.6363  -21.2246  -52.4111 H         1 UNK         0.3000 
    226 H226       -3.7890  -21.1386  -52.8318 H         1 UNK         0.0600 
    227 H227       -4.2035  -18.8054  -53.4592 H         1 UNK         0.0600 
    228 H228       -5.9247  -19.1012  -53.6679 H         1 UNK         0.0600 
    229 H229       -5.2025  -19.1758  -52.0655 H         1 UNK         0.0600 
    230 H230       -6.5959  -21.3522  -55.0014 H         1 UNK         0.3000 
    231 H231       -6.9037  -21.6191  -57.1856 H         1 UNK         0.0600 
    232 H232       -5.8963  -23.8420  -56.7300 H         1 UNK         0.0600 
    233 H233       -4.2867  -23.2273  -57.0743 H         1 UNK         0.0600 
    234 H234       -5.5000  -23.3140  -58.3529 H         1 UNK         0.0600 
    235 H235       -3.9092  -21.8575  -58.6379 H         1 UNK         0.3000 
    236 H236       -4.0247  -19.3516  -59.9741 H         1 UNK         0.0600 
    237 H237       -3.0179  -21.3923  -60.9652 H         1 UNK         0.0600 
    238 H238       -1.8344  -20.0960  -60.9250 H         1 UNK         0.0600 
    239 H239       -1.7484  -21.3934  -59.7397 H         1 UNK         0.0600 
    240 H240       -2.6566  -20.1702  -56.8813 H         1 UNK         0.3000 
    241 H241       -0.8435  -17.8886  -56.7475 H         1 UNK         0.0600 
    242 H242       -4.2955  -18.0781  -56.5543 H         1 UNK         0.3800 
    243 H243       -4.4930  -16.6406  -55.5861 H         1 UNK         0.3800 
    244 H244       -1.7187  -19.5375  -54.3477 H         1 UNK         0.0800 
    245 H245       -0.6586  -20.2404  -55.5222 H         1 UNK         0.0800 
    246 H246       -0.6795  -19.1472  -52.3566 H         1 UNK         0.0800 
    247 H247       -0.6941  -17.4149  -52.5914 H         1 UNK         0.0800 
@<TRIPOS>BOND
     1    1    2 1    
     2    1  127 1    
     3    1  128 1    
     4    1  129 1    
     5    2    3 2    
     6    2    4 am   BACKBONE|DICT|INTERRES
     7    4    5 1    
     8    4  130 1    
     9    5    6 1    
    10    5   65 1    
    11    5  131 1    
    12    6    7 1    
    13    6  132 1    
    14    6  133 1    
    15    7    8 1    
    16    8    9 1    
    17    8  134 1    
    18    8  135 1    
    19    9   10 ar   
    20    9   14 ar   
    21   10   11 ar   
    22   10  136 1    
    23   11   12 ar   
    24   11  126 1    
    25   12   13 ar   
    26   12  137 1    
    27   13   14 ar   
    28   13   15 1    
    29   14  138 1    
    30   15   16 1    
    31   15  139 1    
    32   15  140 1    
    33   16   17 1    
    34   17   18 1    
    35   17  141 1    
    36   17  142 1    
    37   18   19 1    
    38   18   67 1    
    39   18  143 1    
    40   19   20 am   BACKBONE|DICT|INTERRES
    41   19  144 1    
    42   20   21 2    
    43   20   22 1    
    44   22   23 1    
    45   22   24 1    
    46   22  145 1    
    47   23  146 1    
    48   23  147 1    
    49   23  148 1    
    50   24   25 am   BACKBONE|DICT|INTERRES
    51   24  149 1    
    52   25   26 2    
    53   25   27 1    
    54   27   28 1    
    55   27   29 1    
    56   27  150 1    
    57   28  151 1    
    58   28  152 1    
    59   28  153 1    
    60   29   30 am   BACKBONE|DICT|INTERRES
    61   29  154 1    
    62   30   31 2    
    63   30   32 1    
    64   32   33 1    
    65   32   34 1    
    66   32  155 1    
    67   33  156 1    
    68   33  157 1    
    69   33  158 1    
    70   34   35 am   BACKBONE|DICT|INTERRES
    71   34  159 1    
    72   35   36 2    
    73   35   37 1    
    74   37   38 1    
    75   37   39 1    
    76   37  160 1    
    77   38  161 1    
    78   38  162 1    
    79   38  163 1    
    80   39   40 am   BACKBONE|DICT|INTERRES
    81   39  164 1    
    82   40   41 2    
    83   40   42 1    
    84   42   43 1    
    85   42   44 1    
    86   42  165 1    
    87   43  166 1    
    88   43  167 1    
    89   43  168 1    
    90   44   45 am   BACKBONE|DICT|INTERRES
    91   44  169 1    
    92   45   46 2    
    93   45   47 1    
    94   47   48 1    
    95   47   49 1    
    96   47  170 1    
    97   48  171 1    
    98   48  172 1    
    99   48  173 1    
   100   49   50 am   BACKBONE|DICT|INTERRES
   101   49  174 1    
   102   50   51 2    
   103   50   52 1    
   104   52   53 1    
   105   52   54 1    
   106   52  175 1    
   107   53  176 1    
   108   53  177 1    
   109   53  178 1    
   110   54   55 am   BACKBONE|DICT|INTERRES
   111   54  179 1    
   112   55   56 2    
   113   55   57 1    
   114   57   58 1    
   115   57   59 1    
   116   57  180 1    
   117   58  181 1    
   118   58  182 1    
   119   58  183 1    
   120   59   60 am   BACKBONE|DICT|INTERRES
   121   59  184 1    
   122   60   61 2    
   123   60   62 1    
   124   62   63 1    
   125   62   64 1    
   126   62  185 1    
   127   63  186 1    
   128   63  187 1    
   129   63  188 1    
   130   64   65 am   BACKBONE|DICT|INTERRES
   131   64  189 1    
   132   65   66 2    
   133   67   68 2    
   134   67   69 am   BACKBONE|DICT|INTERRES
   135   69   70 1    
   136   69  190 1    
   137   70   71 1    
   138   70   72 1    
   139   70  191 1    
   140   71  192 1    
   141   71  193 1    
   142   71  194 1    
   143   72   73 2    
   144   72   74 am   BACKBONE|DICT|INTERRES
   145   74   75 1    
   146   74  195 1    
   147   75   76 1    
   148   75   77 1    
   149   75  196 1    
   150   76  197 1    
   151   76  198 1    
   152   76  199 1    
   153   77   78 2    
   154   77   79 am   BACKBONE|DICT|INTERRES
   155   79   80 1    
   156   79  200 1    
   157   80   81 1    
   158   80   82 1    
   159   80  201 1    
   160   81  202 1    
   161   81  203 1    
   162   81  204 1    
   163   82   83 2    
   164   82   84 am   BACKBONE|DICT|INTERRES
   165   84   85 1    
   166   84  205 1    
   167   85   86 1    
   168   85   87 1    
   169   85  206 1    
   170   86  207 1    
   171   86  208 1    
   172   86  209 1    
   173   87   88 2    
   174   87   89 am   BACKBONE|DICT|INTERRES
   175   89   90 1    
   176   89  210 1    
   177   90   91 1    
   178   90   92 1    
   179   90  211 1    
   180   91  212 1    
   181   91  213 1    
   182   91  214 1    
   183   92   93 2    
   184   92   94 am   BACKBONE|DICT|INTERRES
   185   94   95 1    
   186   94  215 1    
   187   95   96 1    
   188   95   97 1    
   189   95  216 1    
   190   96  217 1    
   191   96  218 1    
   192   96  219 1    
   193   97   98 2    
   194   97   99 am   BACKBONE|DICT|INTERRES
   195   99  100 1    
   196   99  220 1    
   197  100  101 1    
   198  100  102 1    
   199  100  221 1    
   200  101  222 1    
   201  101  223 1    
   202  101  224 1    
   203  102  103 2    
   204  102  104 am   BACKBONE|DICT|INTERRES
   205  104  105 1    
   206  104  225 1    
   207  105  106 1    
   208  105  107 1    
   209  105  226 1    
   210  106  227 1    
   211  106  228 1    
   212  106  229 1    
   213  107  108 2    
   214  107  109 am   BACKBONE|DICT|INTERRES
   215  109  110 1    
   216  109  230 1    
   217  110  111 1    
   218  110  112 1    
   219  110  231 1    
   220  111  232 1    
   221  111  233 1    
   222  111  234 1    
   223  112  113 2    
   224  112  114 am   BACKBONE|DICT|INTERRES
   225  114  115 1    
   226  114  235 1    
   227  115  116 1    
   228  115  117 1    
   229  115  236 1    
   230  116  237 1    
   231  116  238 1    
   232  116  239 1    
   233  117  118 2    
   234  117  119 am   BACKBONE|DICT|INTERRES
   235  119  120 1    
   236  119  240 1    
   237  120  121 1    
   238  120  124 1    
   239  120  241 1    
   240  121  122 am   BACKBONE|DICT|INTERRES
   241  121  123 2    
   242  122  242 1    
   243  122  243 1    
   244  124  125 1    
   245  124  244 1    
   246  124  245 1    
   247  125  126 1    
   248  126  246 1    
   249  126  247 1    
@<TRIPOS>SUBSTRUCTURE
     1 UNK         1 GROUP             0       ****    0 ROOT    
