@<TRIPOS>MOLECULE
3R540
247   249    1
SMALL
USER_CHARGES


@<TRIPOS>ATOM
      1 CA          0.8634  -16.2731  -46.7779 C.3       0 UNK        -0.1800 
      2 C           0.6878  -15.0669  -47.6888 C.2       0 UNK         0.5000 
      3 O           1.6578  -14.3669  -47.9809 O.2       0 UNK        -0.5000 
      4 N          -0.5494  -14.8279  -48.1392 N.am      1 UNK        -0.5000 
      5 CA         -0.9740  -13.7491  -49.0414 C.3       1 UNK         0.1400 
      6 C6         -0.3684  -13.8338  -50.4727 C.3       23 UNK        -0.0398 
      7 S7         -0.6279  -15.4651  -51.2504 S.3       23 UNK        -0.2404 
      8 C8          1.0827  -16.0929  -51.3149 C.3       23 UNK        -0.0205 
      9 C9          1.1492  -17.6103  -51.2286 C.ar      23 UNK        -0.0193 
     10 C10         0.5496  -18.4025  -52.2108 C.ar      23 UNK        -0.1150 
     11 C11         0.6321  -19.7972  -52.1519 C.ar      23 UNK        -0.0193 
     12 C12         1.3367  -20.3988  -51.1036 C.ar      23 UNK        -0.1150 
     13 C13         1.9683  -19.6171  -50.1297 C.ar      23 UNK        -0.0193 
     14 C14         1.8590  -18.2246  -50.1922 C.ar      23 UNK        -0.1150 
     15 C15         2.8323  -20.2693  -49.0557 C.3       23 UNK        -0.0205 
     16 S16         2.2167  -19.9868  -47.3654 S.3       23 UNK        -0.2404 
     17 C17         0.7501  -21.0639  -47.3415 C.3       23 UNK        -0.0398 
     18 CA          1.0056  -22.4333  -46.6690 C.3       11 UNK         0.1400 
     19 N           1.3365  -22.3103  -45.2439 N.am      11 UNK        -0.5000 
     20 C           1.7090  -23.3211  -44.4439 C.2       10 UNK         0.5000 
     21 O           1.8633  -24.4798  -44.8320 O.2       10 UNK        -0.5000 
     22 CA          1.8848  -22.9927  -42.9506 C.3       10 UNK         0.1400 
     23 CB          3.2550  -22.3550  -42.6722 C.3       10 UNK        -0.1800 
     24 N           0.8141  -22.1147  -42.4762 N.am      10 UNK        -0.5000 
     25 C          -0.4233  -22.5404  -42.1843 C.2       9 UNK         0.5000 
     26 O          -0.7462  -23.7282  -42.1776 O.2       9 UNK        -0.5000 
     27 CA         -1.4898  -21.4747  -41.8604 C.3       9 UNK         0.1400 
     28 CB         -1.5843  -21.2562  -40.3431 C.3       9 UNK        -0.1800 
     29 N          -1.2583  -20.1886  -42.5197 N.am      9 UNK        -0.5000 
     30 C          -1.3005  -19.9841  -43.8434 C.2       8 UNK         0.5000 
     31 O          -1.5923  -20.8592  -44.6557 O.2       8 UNK        -0.5000 
     32 CA         -0.8757  -18.5909  -44.3483 C.3       8 UNK         0.1400 
     33 CB         -2.0558  -17.6102  -44.3241 C.3       8 UNK        -0.1800 
     34 N           0.2537  -18.0324  -43.5983 N.am      8 UNK        -0.5000 
     35 C           1.4617  -18.6108  -43.5213 C.2       7 UNK         0.5000 
     36 O           1.7465  -19.6672  -44.0813 O.2       7 UNK        -0.5000 
     37 CA          2.4998  -17.9419  -42.6094 C.3       7 UNK         0.1400 
     38 CB          3.1571  -16.7409  -43.3055 C.3       7 UNK        -0.1800 
     39 N           1.8890  -17.5251  -41.3484 N.am      7 UNK        -0.5000 
     40 C           1.5886  -18.3684  -40.3494 C.2       6 UNK         0.5000 
     41 O           1.8714  -19.5666  -40.3613 O.2       6 UNK        -0.5000 
     42 CA          0.8190  -17.7869  -39.1466 C.3       6 UNK         0.1400 
     43 CB          1.7970  -17.2531  -38.0894 C.3       6 UNK        -0.1800 
     44 N          -0.1128  -16.7211  -39.5189 N.am      6 UNK        -0.5000 
     45 C          -1.1995  -16.8909  -40.2852 C.2       5 UNK         0.5000 
     46 O          -1.5641  -17.9830  -40.7162 O.2       5 UNK        -0.5000 
     47 CA         -1.9797  -15.6227  -40.6844 C.3       5 UNK         0.1400 
     48 CB         -3.1059  -15.3472  -39.6775 C.3       5 UNK        -0.1800 
     49 N          -1.1434  -14.4250  -40.8149 N.am      5 UNK        -0.5000 
     50 C          -0.0930  -14.3022  -41.6380 C.2       4 UNK         0.5000 
     51 O           0.3077  -15.2113  -42.3697 O.2       4 UNK        -0.5000 
     52 CA          0.6671  -12.9635  -41.5575 C.3       4 UNK         0.1400 
     53 CB          1.4978  -12.9066  -40.2643 C.3       4 UNK        -0.1800 
     54 N           1.5666  -12.7239  -42.6871 N.am      4 UNK        -0.5000 
     55 C           1.1962  -12.5795  -43.9652 C.2       3 UNK         0.5000 
     56 O           0.0266  -12.6417  -44.3533 O.2       3 UNK        -0.5000 
     57 CA          2.3432  -12.3107  -44.9610 C.3       3 UNK         0.1400 
     58 CB          3.2453  -13.5451  -45.1227 C.3       3 UNK        -0.1800 
     59 N           1.8444  -11.9112  -46.2763 N.am      3 UNK        -0.5000 
     60 C           1.3652  -10.6937  -46.5706 C.2       2 UNK         0.5000 
     61 O           1.3739   -9.7493  -45.7791 O.2       2 UNK        -0.5000 
     62 CA          0.7891  -10.4811  -47.9846 C.3       2 UNK         0.1400 
     63 CB          1.8217   -9.7872  -48.8867 C.3       2 UNK        -0.1800 
     64 N           0.3771  -11.7333  -48.6181 N.am      2 UNK        -0.5000 
     65 C          -0.7771  -12.3695  -48.3762 C.2       1 UNK         0.5000 
     66 O          -1.6648  -11.9193  -47.6505 O.2       1 UNK        -0.5000 
     67 C          -0.1931  -23.3741  -46.9153 C.2       11 UNK         0.5000 
     68 O          -0.1893  -24.1033  -47.9076 O.2       11 UNK        -0.5000 
     69 N          -1.1714  -23.3756  -45.9951 N.am      12 UNK        -0.5000 
     70 CA         -2.4177  -24.1524  -46.0227 C.3       12 UNK         0.1400 
     71 CB         -3.2546  -23.8110  -44.7806 C.3       12 UNK        -0.1800 
     72 C          -2.2615  -25.6799  -46.1612 C.2       12 UNK         0.5000 
     73 O          -3.2368  -26.3483  -46.5050 O.2       12 UNK        -0.5000 
     74 N          -1.0488  -26.2062  -45.9399 N.am      13 UNK        -0.5000 
     75 CA         -0.6613  -27.5779  -46.2746 C.3       13 UNK         0.1400 
     76 CB          0.7549  -27.8373  -45.7396 C.3       13 UNK        -0.1800 
     77 C          -0.7317  -27.8773  -47.7893 C.2       13 UNK         0.5000 
     78 O          -0.9484  -29.0309  -48.1630 O.2       13 UNK        -0.5000 
     79 N          -0.5677  -26.8406  -48.6229 N.am      14 UNK        -0.5000 
     80 CA         -0.7374  -26.8812  -50.0724 C.3       14 UNK         0.1400 
     81 CB          0.5447  -26.3678  -50.7498 C.3       14 UNK        -0.1800 
     82 C          -1.9572  -26.0400  -50.4843 C.2       14 UNK         0.5000 
     83 O          -2.8726  -26.5692  -51.1154 O.2       14 UNK        -0.5000 
     84 N          -1.9541  -24.7551  -50.1093 N.am      15 UNK        -0.5000 
     85 CA         -2.9650  -23.7500  -50.4299 C.3       15 UNK         0.1400 
     86 CB         -2.9853  -23.4572  -51.9390 C.3       15 UNK        -0.1800 
     87 C          -2.6133  -22.4804  -49.6465 C.2       15 UNK         0.5000 
     88 O          -1.4760  -22.0237  -49.7439 O.2       15 UNK        -0.5000 
     89 N          -3.5625  -21.9656  -48.8533 N.am      16 UNK        -0.5000 
     90 CA         -3.3204  -20.9239  -47.8490 C.3       16 UNK         0.1400 
     91 CB         -4.5725  -20.7548  -46.9753 C.3       16 UNK        -0.1800 
     92 C          -2.8662  -19.5686  -48.4173 C.2       16 UNK         0.5000 
     93 O          -1.9507  -18.9617  -47.8614 O.2       16 UNK        -0.5000 
     94 N          -3.5157  -19.1204  -49.4970 N.am      17 UNK        -0.5000 
     95 CA         -3.2460  -17.8595  -50.1799 C.3       17 UNK         0.1400 
     96 CB         -3.5546  -16.6583  -49.2588 C.3       17 UNK        -0.1800 
     97 C          -4.1152  -17.7611  -51.4391 C.2       17 UNK         0.5000 
     98 O          -5.2069  -18.3344  -51.4656 O.2       17 UNK        -0.5000 
     99 N          -3.6352  -16.9637  -52.4038 N.am      18 UNK        -0.5000 
    100 CA        -4.2731  -16.5446  -53.6574 C.3       18 UNK         0.1400 
    101 CB        -5.6000  -15.8098  -53.3805 C.3       18 UNK        -0.1800 
    102 C         -4.4795  -17.6698  -54.6894 C.2       18 UNK         0.5000 
    103 O         -4.6215  -18.8432  -54.3423 O.2       18 UNK        -0.5000 
    104 N         -4.5446  -17.2722  -55.9681 N.am      19 UNK        -0.5000 
    105 CA        -4.7245  -18.1500  -57.1315 C.3       19 UNK         0.1400 
    106 CB        -4.6696  -17.3024  -58.4111 C.3       19 UNK        -0.1800 
    107 C         -6.0130  -18.9959  -57.1023 C.2       19 UNK         0.5000 
    108 O         -6.0423  -20.0702  -57.7025 O.2       19 UNK        -0.5000 
    109 N         -7.0323  -18.5244  -56.3707 N.am      20 UNK        -0.5000 
    110 CA        -8.2804  -19.2387  -56.0990 C.3       20 UNK         0.1400 
    111 CB        -9.2265  -18.3094  -55.3234 C.3       20 UNK        -0.1800 
    112 C         -8.0812  -20.5647  -55.3354 C.2       20 UNK         0.5000 
    113 O         -8.8729  -21.4885  -55.5284 O.2       20 UNK        -0.5000 
    114 N         -7.0313  -20.6415  -54.5054 N.am      21 UNK        -0.5000 
    115 CA        -6.6150  -21.8576  -53.8107 C.3       21 UNK         0.1400 
    116 CB        -6.3259  -21.5322  -52.3366 C.3       21 UNK        -0.1800 
    117 C         -5.3738  -22.4668  -54.4814 C.2       21 UNK         0.5000 
    118 O         -5.3293  -23.6819  -54.6755 O.2       21 UNK        -0.5000 
    119 N         -4.3853  -21.6216  -54.8044 N.am      22 UNK        -0.5000 
    120 CA        -3.0786  -22.0260  -55.3468 C.3       22 UNK         0.1400 
    121 C         -3.1049  -22.5503  -56.8122 C.2       22 UNK         0.5000 
    122 N         -4.1193  -22.2595  -57.6168 N.am      22 UNK        -0.7600 
    123 O         -2.1809  -23.2441  -57.2278 O.2       22 UNK        -0.5000 
    124 C124       -2.0195  -20.9043  -55.1931 C.3       23 UNK        -0.0398 
    125 S125       -1.7598  -20.3615  -53.4652 S.3       23 UNK        -0.2404 
    126 C126        0.0289  -20.6423  -53.2660 C.3       23 UNK        -0.0205 
    127 H127        1.8629  -16.6941  -46.8873 H         1 UNK         0.0600 
    128 H128        0.7249  -15.9832  -45.7363 H         1 UNK         0.0600 
    129 H129        0.1439  -17.0558  -47.0200 H         1 UNK         0.0600 
    130 H130       -1.2929  -15.4393  -47.8359 H         1 UNK         0.3000 
    131 H131       -2.0524  -13.8711  -49.1502 H         1 UNK         0.0600 
    132 H132        0.6971  -13.6039  -50.4725 H         1 UNK         0.0800 
    133 H133       -0.8334  -13.0850  -51.1160 H         1 UNK         0.0800 
    134 H134        1.6691  -15.6557  -50.5061 H         1 UNK         0.0800 
    135 H135        1.5491  -15.7628  -52.2439 H         1 UNK         0.0800 
    136 H136        0.0222  -17.9317  -53.0286 H         1 UNK         0.1150 
    137 H137        1.4205  -21.4758  -51.0644 H         1 UNK         0.1150 
    138 H138        2.3498  -17.6204  -49.4419 H         1 UNK         0.1150 
    139 H139        2.9253  -21.3428  -49.2275 H         1 UNK         0.0800 
    140 H140        3.8417  -19.8627  -49.1283 H         1 UNK         0.0800 
    141 H141        0.4146  -21.1924  -48.3691 H         1 UNK         0.0800 
    142 H142       -0.0524  -20.5332  -46.8311 H         1 UNK         0.0800 
    143 H143        1.8670  -22.8919  -47.1589 H         1 UNK         0.0600 
    144 H144        1.3000  -21.3719  -44.8542 H         1 UNK         0.3000 
    145 H145        1.8405  -23.9310  -42.3933 H         1 UNK         0.0600 
    146 H146        3.3671  -22.1075  -41.6164 H         1 UNK         0.0600 
    147 H147        4.0601  -23.0426  -42.9334 H         1 UNK         0.0600 
    148 H148        3.4101  -21.4427  -43.2470 H         1 UNK         0.0600 
    149 H149        1.0040  -21.1213  -42.4813 H         1 UNK         0.3000 
    150 H150       -2.4506  -21.8583  -42.2096 H         1 UNK         0.0600 
    151 H151       -1.7689  -22.1963  -39.8219 H         1 UNK         0.0600 
    152 H152       -2.4022  -20.5806  -40.0925 H         1 UNK         0.0600 
    153 H153       -0.6637  -20.8317  -39.9412 H         1 UNK         0.0600 
    154 H154       -1.0888  -19.3929  -41.9104 H         1 UNK         0.3000 
    155 H155       -0.5530  -18.7025  -45.3846 H         1 UNK         0.0600 
    156 H156       -2.4678  -17.5013  -43.3215 H         1 UNK         0.0600 
    157 H157       -2.8597  -17.9603  -44.9729 H         1 UNK         0.0600 
    158 H158       -1.7585  -16.6228  -44.6780 H         1 UNK         0.0600 
    159 H159        0.1047  -17.1536  -43.1147 H         1 UNK         0.3000 
    160 H160        3.2828  -18.6730  -42.3961 H         1 UNK         0.0600 
    161 H161        3.8998  -16.2686  -42.6627 H         1 UNK         0.0600 
    162 H162        2.4264  -15.9841  -43.5864 H         1 UNK         0.0600 
    163 H163        3.6660  -17.0534  -44.2183 H         1 UNK         0.0600 
    164 H164        1.5516  -16.5719  -41.3075 H         1 UNK         0.3000 
    165 H165        0.2413  -18.5991  -38.7002 H         1 UNK         0.0600 
    166 H166        1.2683  -16.9124  -37.1990 H         1 UNK         0.0600 
    167 H167        2.4939  -18.0309  -37.7744 H         1 UNK         0.0600 
    168 H168        2.3867  -16.4184  -38.4708 H         1 UNK         0.0600 
    169 H169        0.1120  -15.7886  -39.2060 H         1 UNK         0.3000 
    170 H170       -2.4335  -15.8101  -41.6588 H         1 UNK         0.0600 
    171 H171       -3.7604  -16.2143  -39.5768 H         1 UNK         0.0600 
    172 H172       -2.7129  -15.1157  -38.6867 H         1 UNK         0.0600 
    173 H173       -3.7264  -14.5100  -39.9978 H         1 UNK         0.0600 
    174 H174       -1.3993  -13.6398  -40.2336 H         1 UNK         0.3000 
    175 H175       -0.0689  -12.1572  -41.5411 H         1 UNK         0.0600 
    176 H176        2.2501  -13.6963  -40.2351 H         1 UNK         0.0600 
    177 H177        2.0124  -11.9503  -40.1675 H         1 UNK         0.0600 
    178 H178        0.8688  -13.0205  -39.3807 H         1 UNK         0.0600 
    179 H179        2.5498  -12.6835  -42.4639 H         1 UNK         0.3000 
    180 H180        2.9514  -11.4961  -44.5618 H         1 UNK         0.0600 
    181 H181        2.6800  -14.4178  -45.4460 H         1 UNK         0.0600 
    182 H182        3.7349  -13.8030  -44.1832 H         1 UNK         0.0600 
    183 H183        4.0315  -13.3670  -45.8565 H         1 UNK         0.0600 
    184 H184        1.7653  -12.6504  -46.9672 H         1 UNK         0.3000 
    185 H185       -0.0792   -9.8250  -47.8941 H         1 UNK         0.0600 
    186 H186        2.1340   -8.8329  -48.4604 H         1 UNK         0.0600 
    187 H187        2.7166  -10.3969  -49.0177 H         1 UNK         0.0600 
    188 H188        1.4077   -9.5807  -49.8738 H         1 UNK         0.0600 
    189 H189        1.0776  -12.2023  -49.1742 H         1 UNK         0.3000 
    190 H190       -1.1089  -22.6822  -45.2559 H         1 UNK         0.3000 
    191 H191       -2.9751  -23.8252  -46.8997 H         1 UNK         0.0600 
    192 H192       -2.7516  -24.1163  -43.8638 H         1 UNK         0.0600 
    193 H193       -4.2200  -24.3179  -44.8068 H         1 UNK         0.0600 
    194 H194       -3.4567  -22.7425  -44.7149 H         1 UNK         0.0600 
    195 H195       -0.3043  -25.5847  -45.6530 H         1 UNK         0.3000 
    196 H196       -1.3514  -28.2565  -45.7694 H         1 UNK         0.0600 
    197 H197        1.4849  -27.1673  -46.1960 H         1 UNK         0.0600 
    198 H198        1.0709  -28.8604  -45.9478 H         1 UNK         0.0600 
    199 H199        0.8011  -27.6958  -44.6596 H         1 UNK         0.0600 
    200 H200       -0.4094  -25.9186  -48.2236 H         1 UNK         0.3000 
    201 H201       -0.9107  -27.9042  -50.4126 H         1 UNK         0.0600 
    202 H202        0.8007  -25.3576  -50.4274 H         1 UNK         0.0600 
    203 H203        0.4330  -26.3496  -51.8346 H         1 UNK         0.0600 
    204 H204        1.3923  -27.0137  -50.5206 H         1 UNK         0.0600 
    205 H205       -1.1797  -24.4007  -49.5520 H         1 UNK         0.3000 
    206 H206       -3.9443  -24.1147  -50.1143 H         1 UNK         0.0600 
    207 H207       -3.5876  -22.5755  -52.1530 H         1 UNK         0.0600 
    208 H208       -1.9823  -23.2633  -52.3206 H         1 UNK         0.0600 
    209 H209       -3.4072  -24.2866  -52.5061 H         1 UNK         0.0600 
    210 H210       -4.4818  -22.3828  -48.8511 H         1 UNK         0.3000 
    211 H211       -2.5156  -21.2774  -47.2037 H         1 UNK         0.0600 
    212 H212       -5.4274  -20.4091  -47.5576 H         1 UNK         0.0600 
    213 H213       -4.3961  -20.0259  -46.1829 H         1 UNK         0.0600 
    214 H214       -4.8504  -21.6926  -46.4946 H         1 UNK         0.0600 
    215 H215       -4.2578  -19.6706  -49.9094 H         1 UNK         0.3000 
    216 H216       -2.1943  -17.8504  -50.4725 H         1 UNK         0.0600 
    217 H217       -3.4624  -15.7157  -49.7986 H         1 UNK         0.0600 
    218 H218       -2.8722  -16.6078  -48.4122 H         1 UNK         0.0600 
    219 H219       -4.5708  -16.7091  -48.8662 H         1 UNK         0.0600 
    220 H220       -2.7157  -16.5699  -52.2547 H         1 UNK         0.3000 
    221 H221       -3.5820  -15.8267  -54.1018 H         1 UNK         0.0600 
    222 H222       -6.3646  -16.4822  -52.9898 H         1 UNK         0.0600 
    223 H223       -5.4618  -15.0044  -52.6591 H         1 UNK         0.0600 
    224 H224       -5.9990  -15.3619  -54.2912 H         1 UNK         0.0600 
    225 H225       -4.4395  -16.2889  -56.1733 H         1 UNK         0.3000 
    226 H226       -3.8852  -18.8471  -57.1504 H         1 UNK         0.0600 
    227 H227       -3.7185  -16.7764  -58.4964 H         1 UNK         0.0600 
    228 H228       -4.7732  -17.9275  -59.2992 H         1 UNK         0.0600 
    229 H229       -5.4688  -16.5606  -58.4366 H         1 UNK         0.0600 
    230 H230       -6.9136  -17.6331  -55.9133 H         1 UNK         0.3000 
    231 H231       -8.7424  -19.4778  -57.0590 H         1 UNK         0.0600 
    232 H232       -9.4431  -17.4035  -55.8898 H         1 UNK         0.0600 
    233 H233       -8.8010  -18.0131  -54.3636 H         1 UNK         0.0600 
    234 H234      -10.1793  -18.8011  -55.1226 H         1 UNK         0.0600 
    235 H235       -6.4086  -19.8449  -54.4242 H         1 UNK         0.3000 
    236 H236       -7.4107  -22.6050  -53.8350 H         1 UNK         0.0600 
    237 H237       -6.0833  -22.4372  -51.7787 H         1 UNK         0.0600 
    238 H238       -5.4843  -20.8468  -52.2337 H         1 UNK         0.0600 
    239 H239       -7.1903  -21.0742  -51.8558 H         1 UNK         0.0600 
    240 H240       -4.4819  -20.6322  -54.5852 H         1 UNK         0.3000 
    241 H241       -2.7363  -22.8702  -54.7463 H         1 UNK         0.0600 
    242 H242       -4.1140  -22.6190  -58.5579 H         1 UNK         0.3800 
    243 H243       -4.8713  -21.6431  -57.3304 H         1 UNK         0.3800 
    244 H244       -1.0662  -21.2342  -55.6089 H         1 UNK         0.0800 
    245 H245       -2.3107  -20.0295  -55.7749 H         1 UNK         0.0800 
    246 H246        0.1996  -21.7052  -53.0888 H         1 UNK         0.0800 
    247 H247        0.5485  -20.3908  -54.1914 H         1 UNK         0.0800 
@<TRIPOS>BOND
     1    1    2 1    
     2    1  127 1    
     3    1  128 1    
     4    1  129 1    
     5    2    3 2    
     6    2    4 am   BACKBONE|DICT|INTERRES
     7    4    5 1    
     8    4  130 1    
     9    5    6 1    
    10    5   65 1    
    11    5  131 1    
    12    6    7 1    
    13    6  132 1    
    14    6  133 1    
    15    7    8 1    
    16    8    9 1    
    17    8  134 1    
    18    8  135 1    
    19    9   10 ar   
    20    9   14 ar   
    21   10   11 ar   
    22   10  136 1    
    23   11   12 ar   
    24   11  126 1    
    25   12   13 ar   
    26   12  137 1    
    27   13   14 ar   
    28   13   15 1    
    29   14  138 1    
    30   15   16 1    
    31   15  139 1    
    32   15  140 1    
    33   16   17 1    
    34   17   18 1    
    35   17  141 1    
    36   17  142 1    
    37   18   19 1    
    38   18   67 1    
    39   18  143 1    
    40   19   20 am   BACKBONE|DICT|INTERRES
    41   19  144 1    
    42   20   21 2    
    43   20   22 1    
    44   22   23 1    
    45   22   24 1    
    46   22  145 1    
    47   23  146 1    
    48   23  147 1    
    49   23  148 1    
    50   24   25 am   BACKBONE|DICT|INTERRES
    51   24  149 1    
    52   25   26 2    
    53   25   27 1    
    54   27   28 1    
    55   27   29 1    
    56   27  150 1    
    57   28  151 1    
    58   28  152 1    
    59   28  153 1    
    60   29   30 am   BACKBONE|DICT|INTERRES
    61   29  154 1    
    62   30   31 2    
    63   30   32 1    
    64   32   33 1    
    65   32   34 1    
    66   32  155 1    
    67   33  156 1    
    68   33  157 1    
    69   33  158 1    
    70   34   35 am   BACKBONE|DICT|INTERRES
    71   34  159 1    
    72   35   36 2    
    73   35   37 1    
    74   37   38 1    
    75   37   39 1    
    76   37  160 1    
    77   38  161 1    
    78   38  162 1    
    79   38  163 1    
    80   39   40 am   BACKBONE|DICT|INTERRES
    81   39  164 1    
    82   40   41 2    
    83   40   42 1    
    84   42   43 1    
    85   42   44 1    
    86   42  165 1    
    87   43  166 1    
    88   43  167 1    
    89   43  168 1    
    90   44   45 am   BACKBONE|DICT|INTERRES
    91   44  169 1    
    92   45   46 2    
    93   45   47 1    
    94   47   48 1    
    95   47   49 1    
    96   47  170 1    
    97   48  171 1    
    98   48  172 1    
    99   48  173 1    
   100   49   50 am   BACKBONE|DICT|INTERRES
   101   49  174 1    
   102   50   51 2    
   103   50   52 1    
   104   52   53 1    
   105   52   54 1    
   106   52  175 1    
   107   53  176 1    
   108   53  177 1    
   109   53  178 1    
   110   54   55 am   BACKBONE|DICT|INTERRES
   111   54  179 1    
   112   55   56 2    
   113   55   57 1    
   114   57   58 1    
   115   57   59 1    
   116   57  180 1    
   117   58  181 1    
   118   58  182 1    
   119   58  183 1    
   120   59   60 am   BACKBONE|DICT|INTERRES
   121   59  184 1    
   122   60   61 2    
   123   60   62 1    
   124   62   63 1    
   125   62   64 1    
   126   62  185 1    
   127   63  186 1    
   128   63  187 1    
   129   63  188 1    
   130   64   65 am   BACKBONE|DICT|INTERRES
   131   64  189 1    
   132   65   66 2    
   133   67   68 2    
   134   67   69 am   BACKBONE|DICT|INTERRES
   135   69   70 1    
   136   69  190 1    
   137   70   71 1    
   138   70   72 1    
   139   70  191 1    
   140   71  192 1    
   141   71  193 1    
   142   71  194 1    
   143   72   73 2    
   144   72   74 am   BACKBONE|DICT|INTERRES
   145   74   75 1    
   146   74  195 1    
   147   75   76 1    
   148   75   77 1    
   149   75  196 1    
   150   76  197 1    
   151   76  198 1    
   152   76  199 1    
   153   77   78 2    
   154   77   79 am   BACKBONE|DICT|INTERRES
   155   79   80 1    
   156   79  200 1    
   157   80   81 1    
   158   80   82 1    
   159   80  201 1    
   160   81  202 1    
   161   81  203 1    
   162   81  204 1    
   163   82   83 2    
   164   82   84 am   BACKBONE|DICT|INTERRES
   165   84   85 1    
   166   84  205 1    
   167   85   86 1    
   168   85   87 1    
   169   85  206 1    
   170   86  207 1    
   171   86  208 1    
   172   86  209 1    
   173   87   88 2    
   174   87   89 am   BACKBONE|DICT|INTERRES
   175   89   90 1    
   176   89  210 1    
   177   90   91 1    
   178   90   92 1    
   179   90  211 1    
   180   91  212 1    
   181   91  213 1    
   182   91  214 1    
   183   92   93 2    
   184   92   94 am   BACKBONE|DICT|INTERRES
   185   94   95 1    
   186   94  215 1    
   187   95   96 1    
   188   95   97 1    
   189   95  216 1    
   190   96  217 1    
   191   96  218 1    
   192   96  219 1    
   193   97   98 2    
   194   97   99 am   BACKBONE|DICT|INTERRES
   195   99  100 1    
   196   99  220 1    
   197  100  101 1    
   198  100  102 1    
   199  100  221 1    
   200  101  222 1    
   201  101  223 1    
   202  101  224 1    
   203  102  103 2    
   204  102  104 am   BACKBONE|DICT|INTERRES
   205  104  105 1    
   206  104  225 1    
   207  105  106 1    
   208  105  107 1    
   209  105  226 1    
   210  106  227 1    
   211  106  228 1    
   212  106  229 1    
   213  107  108 2    
   214  107  109 am   BACKBONE|DICT|INTERRES
   215  109  110 1    
   216  109  230 1    
   217  110  111 1    
   218  110  112 1    
   219  110  231 1    
   220  111  232 1    
   221  111  233 1    
   222  111  234 1    
   223  112  113 2    
   224  112  114 am   BACKBONE|DICT|INTERRES
   225  114  115 1    
   226  114  235 1    
   227  115  116 1    
   228  115  117 1    
   229  115  236 1    
   230  116  237 1    
   231  116  238 1    
   232  116  239 1    
   233  117  118 2    
   234  117  119 am   BACKBONE|DICT|INTERRES
   235  119  120 1    
   236  119  240 1    
   237  120  121 1    
   238  120  124 1    
   239  120  241 1    
   240  121  122 am   BACKBONE|DICT|INTERRES
   241  121  123 2    
   242  122  242 1    
   243  122  243 1    
   244  124  125 1    
   245  124  244 1    
   246  124  245 1    
   247  125  126 1    
   248  126  246 1    
   249  126  247 1    
@<TRIPOS>SUBSTRUCTURE
     1 UNK         1 GROUP             0       ****    0 ROOT    
