@<TRIPOS>MOLECULE
3R540
247   249    1
SMALL
USER_CHARGES


@<TRIPOS>ATOM
      1 CA          4.3883  -13.5447  -45.4628 C.3       0 UNK        -0.1800 
      2 C           3.0878  -12.9616  -45.9963 C.2       0 UNK         0.5000 
      3 O           2.2176  -12.5882  -45.2090 O.2       0 UNK        -0.5000 
      4 N           2.9507  -12.8948  -47.3276 N.am      1 UNK        -0.5000 
      5 CA          1.7775  -12.3816  -48.0430 C.3       1 UNK         0.1400 
      6 C6          1.9046  -12.5510  -49.5774 C.3       23 UNK        -0.0398 
      7 S7          2.1319  -14.2813  -50.1113 S.3       23 UNK        -0.2404 
      8 C8          0.5012  -14.9876  -49.7180 C.3       23 UNK        -0.0205 
      9 C9          0.2340  -16.2545  -50.5146 C.ar      23 UNK        -0.0193 
     10 C10        -0.6839  -16.2401  -51.5678 C.ar      23 UNK        -0.1150 
     11 C11        -0.9535  -17.3991  -52.3011 C.ar      23 UNK        -0.0193 
     12 C12        -0.2887  -18.5853  -51.9586 C.ar      23 UNK        -0.1150 
     13 C13         0.6290  -18.6206  -50.9027 C.ar      23 UNK        -0.0193 
     14 C14         0.8899  -17.4446  -50.1899 C.ar      23 UNK        -0.1150 
     15 C15         1.3368  -19.9348  -50.5678 C.3       23 UNK        -0.0205 
     16 S16         1.6207  -20.2188  -48.7833 S.3       23 UNK        -0.2404 
     17 C17        -0.0776  -20.1884  -48.1245 C.3       23 UNK        -0.0398 
     18 CA         -0.4674  -21.5025  -47.4047 C.3       11 UNK         0.1400 
     19 N           0.1496  -21.6414  -46.0839 N.am      11 UNK        -0.5000 
     20 C           0.0496  -22.7324  -45.3090 C.2       10 UNK         0.5000 
     21 O          -0.4699  -23.7876  -45.6729 O.2       10 UNK        -0.5000 
     22 CA          0.5693  -22.6132  -43.8657 C.3       10 UNK         0.1400 
     23 CB          2.0868  -22.8434  -43.8111 C.3       10 UNK        -0.1800 
     24 N           0.2342  -21.3302  -43.2434 N.am      10 UNK        -0.5000 
     25 C          -1.0145  -20.8980  -43.0097 C.2       9 UNK         0.5000 
     26 O          -2.0247  -21.5523  -43.2671 O.2       9 UNK        -0.5000 
     27 CA         -1.1663  -19.4770  -42.4360 C.3       9 UNK         0.1400 
     28 CB         -0.8799  -19.4567  -40.9274 C.3       9 UNK        -0.1800 
     29 N          -0.3100  -18.5041  -43.1128 N.am      9 UNK        -0.5000 
     30 C          -0.4054  -18.1787  -44.4099 C.2       8 UNK         0.5000 
     31 O          -1.2657  -18.6253  -45.1685 O.2       8 UNK        -0.5000 
     32 CA          0.6814  -17.2447  -44.9686 C.3       8 UNK         0.1400 
     33 CB          0.3650  -15.7752  -44.6568 C.3       8 UNK        -0.1800 
     34 N           2.0113  -17.5845  -44.4617 N.am      8 UNK        -0.5000 
     35 C           2.6558  -18.7255  -44.7455 C.2       7 UNK         0.5000 
     36 O           2.2014  -19.6039  -45.4766 O.2       7 UNK        -0.5000 
     37 CA          4.0146  -18.9381  -44.0555 C.3       7 UNK         0.1400 
     38 CB          5.1152  -18.1322  -44.7622 C.3       7 UNK        -0.1800 
     39 N           3.9810  -18.5783  -42.6374 N.am      7 UNK        -0.5000 
     40 C           3.2584  -19.2206  -41.7080 C.2       6 UNK         0.5000 
     41 O           2.5710  -20.2133  -41.9407 O.2       6 UNK        -0.5000 
     42 CA          3.2649  -18.6205  -40.2899 C.3       6 UNK         0.1400 
     43 CB          4.4587  -19.1513  -39.4826 C.3       6 UNK        -0.1800 
     44 N           3.2864  -17.1551  -40.2880 N.am      6 UNK        -0.5000 
     45 C           2.3217  -16.3844  -40.8061 C.2       5 UNK         0.5000 
     46 O           1.3090  -16.8294  -41.3525 O.2       5 UNK        -0.5000 
     47 CA          2.5700  -14.8695  -40.7697 C.3       5 UNK         0.1400 
     48 CB          3.3535  -14.4315  -42.0177 C.3       5 UNK        -0.1800 
     49 N           1.3108  -14.1367  -40.7413 N.am      5 UNK        -0.5000 
     50 C           0.5526  -13.9141  -39.6628 C.2       4 UNK         0.5000 
     51 O           0.8662  -14.2819  -38.5289 O.2       4 UNK        -0.5000 
     52 CA         -0.7551  -13.1169  -39.8961 C.3       4 UNK         0.1400 
     53 CB         -1.4008  -12.6391  -38.5827 C.3       4 UNK        -0.1800 
     54 N          -0.5540  -11.9548  -40.7719 N.am      4 UNK        -0.5000 
     55 C          -0.4159  -12.0079  -42.1024 C.2       3 UNK         0.5000 
     56 O          -0.5197  -13.0575  -42.7427 O.2       3 UNK        -0.5000 
     57 CA         -0.0249  -10.6973  -42.8114 C.3       3 UNK         0.1400 
     58 CB          1.3577  -10.2131  -42.3400 C.3       3 UNK        -0.1800 
     59 N           0.0422  -10.9091  -44.2534 N.am      3 UNK        -0.5000 
     60 C          -0.9912  -10.8280  -45.0963 C.2       2 UNK         0.5000 
     61 O          -2.1004  -10.3844  -44.7935 O.2       2 UNK        -0.5000 
     62 CA         -0.6952  -11.3161  -46.5211 C.3       2 UNK         0.1400 
     63 CB         -1.9064  -11.2475  -47.4678 C.3       2 UNK        -0.1800 
     64 N           0.3978  -10.5081  -47.0660 N.am      2 UNK        -0.5000 
     65 C           1.5195  -10.8941  -47.6902 C.2       1 UNK         0.5000 
     66 O           2.3790  -10.0685  -48.0006 O.2       1 UNK        -0.5000 
     67 C          -1.9989  -21.6266  -47.3089 C.2       11 UNK         0.5000 
     68 O          -2.5678  -22.4872  -47.9805 O.2       11 UNK        -0.5000 
     69 N          -2.6338  -20.7862  -46.4788 N.am      12 UNK        -0.5000 
     70 CA         -4.0876  -20.7073  -46.3064 C.3       12 UNK         0.1400 
     71 CB         -4.4285  -19.5837  -45.3167 C.3       12 UNK        -0.1800 
     72 C          -4.7338  -22.0330  -45.8672 C.2       12 UNK         0.5000 
     73 O          -5.7565  -22.4248  -46.4313 O.2       12 UNK        -0.5000 
     74 N          -4.0917  -22.7297  -44.9196 N.am      13 UNK        -0.5000 
     75 CA         -4.4935  -24.0507  -44.4270 C.3       13 UNK         0.1400 
     76 CB         -3.6060  -24.4262  -43.2305 C.3       13 UNK        -0.1800 
     77 C          -4.4436  -25.1614  -45.4968 C.2       13 UNK         0.5000 
     78 O          -5.1357  -26.1698  -45.3528 O.2       13 UNK        -0.5000 
     79 N          -3.6421  -24.9524  -46.5473 N.am      14 UNK        -0.5000 
     80 CA         -3.4591  -25.8551  -47.6797 C.3       14 UNK         0.1400 
     81 CB         -1.9491  -26.0710  -47.8762 C.3       14 UNK        -0.1800 
     82 C          -4.1362  -25.3223  -48.9596 C.2       14 UNK         0.5000 
     83 O          -3.7706  -25.7561  -50.0517 O.2       14 UNK        -0.5000 
     84 N          -5.0915  -24.3876  -48.8239 N.am      15 UNK        -0.5000 
     85 CA         -5.8629  -23.7552  -49.9047 C.3       15 UNK         0.1400 
     86 CB         -6.7869  -24.7808  -50.5944 C.3       15 UNK        -0.1800 
     87 C          -4.9733  -22.9862  -50.9045 C.2       15 UNK         0.5000 
     88 O          -5.1445  -23.1080  -52.1199 O.2       15 UNK        -0.5000 
     89 N          -4.0289  -22.2148  -50.3519 N.am      16 UNK        -0.5000 
     90 CA         -2.9497  -21.4895  -51.0238 C.3       16 UNK         0.1400 
     91 CB         -3.4822  -20.5032  -52.0758 C.3       16 UNK        -0.1800 
     92 C          -1.8767  -22.4479  -51.5653 C.2       16 UNK         0.5000 
     93 O          -1.4762  -22.3345  -52.7217 O.2       16 UNK        -0.5000 
     94 N          -1.4424  -23.3889  -50.7135 N.am      17 UNK        -0.5000 
     95 CA         -0.4251  -24.4132  -50.9925 C.3       17 UNK         0.1400 
     96 CB          0.9734  -23.7694  -51.0877 C.3       17 UNK        -0.1800 
     97 C          -0.7775  -25.2862  -52.2175 C.2       17 UNK         0.5000 
     98 O           0.0604  -25.5040  -53.0940 O.2       17 UNK        -0.5000 
     99 N          -2.0386  -25.7383  -52.2548 N.am      18 UNK        -0.5000 
    100 CA        -2.6872  -26.5417  -53.2946 C.3       18 UNK         0.1400 
    101 CB        -1.9875  -27.9068  -53.4609 C.3       18 UNK        -0.1800 
    102 C         -2.8943  -25.8159  -54.6423 C.2       18 UNK         0.5000 
    103 O         -3.2779  -26.4660  -55.6161 O.2       18 UNK        -0.5000 
    104 N         -2.6877  -24.4906  -54.6892 N.am      19 UNK        -0.5000 
    105 CA        -2.9029  -23.6641  -55.8821 C.3       19 UNK         0.1400 
    106 CB        -1.9713  -22.4436  -55.8319 C.3       19 UNK        -0.1800 
    107 C         -4.3730  -23.2310  -56.0679 C.2       19 UNK         0.5000 
    108 O         -4.6686  -22.5305  -57.0376 O.2       19 UNK        -0.5000 
    109 N         -5.2580  -23.6295  -55.1402 N.am      20 UNK        -0.5000 
    110 CA        -6.7039  -23.3847  -55.1142 C.3       20 UNK         0.1400 
    111 CB        -7.4026  -24.1187  -56.2778 C.3       20 UNK        -0.1800 
    112 C         -7.0235  -21.8796  -55.0636 C.2       20 UNK         0.5000 
    113 O         -7.6706  -21.3466  -55.9664 O.2       20 UNK        -0.5000 
    114 N         -6.5083  -21.2253  -54.0128 N.am      21 UNK        -0.5000 
    115 CA        -6.5447  -19.7752  -53.7722 C.3       21 UNK         0.1400 
    116 CB        -7.9942  -19.2613  -53.6373 C.3       21 UNK        -0.1800 
    117 C         -5.7071  -18.9707  -54.7946 C.2       21 UNK         0.5000 
    118 O         -6.0184  -17.8089  -55.0610 O.2       21 UNK        -0.5000 
    119 N         -4.6582  -19.6058  -55.3393 N.am      22 UNK        -0.5000 
    120 CA        -3.8061  -19.1132  -56.4358 C.3       22 UNK         0.1400 
    121 C         -4.6091  -18.9015  -57.7520 C.2       22 UNK         0.5000 
    122 N         -5.2750  -19.9379  -58.2452 N.am      22 UNK        -0.7600 
    123 O         -4.6335  -17.8178  -58.3305 O.2       22 UNK        -0.5000 
    124 C124       -2.9098  -17.9042  -56.0430 C.3       23 UNK        -0.0398 
    125 S125       -1.5841  -18.3682  -54.8745 S.3       23 UNK        -0.2404 
    126 C126       -1.9913  -17.3393  -53.4248 C.3       23 UNK        -0.0205 
    127 H127        5.1378  -13.6468  -46.2478 H         1 UNK         0.0600 
    128 H128        4.2071  -14.5298  -45.0336 H         1 UNK         0.0600 
    129 H129        4.7975  -12.9014  -44.6838 H         1 UNK         0.0600 
    130 H130        3.7066  -13.2123  -47.9170 H         1 UNK         0.3000 
    131 H131        0.9429  -13.0068  -47.7443 H         1 UNK         0.0600 
    132 H132        1.0213  -12.1539  -50.0815 H         1 UNK         0.0800 
    133 H133        2.7504  -11.9743  -49.9565 H         1 UNK         0.0800 
    134 H134        0.4521  -15.2134  -48.6517 H         1 UNK         0.0800 
    135 H135       -0.2776  -14.2489  -49.9141 H         1 UNK         0.0800 
    136 H136       -1.1958  -15.3204  -51.8150 H         1 UNK         0.1150 
    137 H137       -0.4794  -19.4898  -52.5182 H         1 UNK         0.1150 
    138 H138        1.6048  -17.4494  -49.3792 H         1 UNK         0.1150 
    139 H139        0.7683  -20.7780  -50.9618 H         1 UNK         0.0800 
    140 H140        2.2998  -19.9475  -51.0792 H         1 UNK         0.0800 
    141 H141       -0.7593  -19.9804  -48.9494 H         1 UNK         0.0800 
    142 H142       -0.1652  -19.3354  -47.4519 H         1 UNK         0.0800 
    143 H143       -0.1221  -22.3396  -48.0155 H         1 UNK         0.0600 
    144 H144        0.6643  -20.8379  -45.7357 H         1 UNK         0.3000 
    145 H145        0.0881  -23.3980  -43.2785 H         1 UNK         0.0600 
    146 H146        2.3540  -23.7980  -44.2657 H         1 UNK         0.0600 
    147 H147        2.6327  -22.0626  -44.3409 H         1 UNK         0.0600 
    148 H148        2.4450  -22.8627  -42.7818 H         1 UNK         0.0600 
    149 H149        1.0178  -20.7507  -42.9562 H         1 UNK         0.3000 
    150 H150       -2.2021  -19.1669  -42.5872 H         1 UNK         0.0600 
    151 H151       -1.0413  -18.4629  -40.5091 H         1 UNK         0.0600 
    152 H152        0.1469  -19.7481  -40.7074 H         1 UNK         0.0600 
    153 H153       -1.5379  -20.1456  -40.3964 H         1 UNK         0.0600 
    154 H154        0.4001  -18.0479  -42.5465 H         1 UNK         0.3000 
    155 H155        0.6954  -17.3629  -46.0543 H         1 UNK         0.0600 
    156 H156       -0.6160  -15.4953  -45.0422 H         1 UNK         0.0600 
    157 H157        1.0943  -15.1094  -45.1162 H         1 UNK         0.0600 
    158 H158        0.3616  -15.5796  -43.5843 H         1 UNK         0.0600 
    159 H159        2.4253  -16.9428  -43.8038 H         1 UNK         0.3000 
    160 H160        4.2651  -19.9985  -44.1310 H         1 UNK         0.0600 
    161 H161        5.1654  -18.3876  -45.8216 H         1 UNK         0.0600 
    162 H162        6.0947  -18.3421  -44.3320 H         1 UNK         0.0600 
    163 H163        4.9408  -17.0580  -44.6915 H         1 UNK         0.0600 
    164 H164        4.5210  -17.7740  -42.3555 H         1 UNK         0.3000 
    165 H165        2.3475  -18.9409  -39.7918 H         1 UNK         0.0600 
    166 H166        4.4251  -18.7999  -38.4512 H         1 UNK         0.0600 
    167 H167        4.4552  -20.2418  -39.4530 H         1 UNK         0.0600 
    168 H168        5.4100  -18.8377  -39.9143 H         1 UNK         0.0600 
    169 H169        4.0926  -16.7173  -39.8657 H         1 UNK         0.3000 
    170 H170        3.1506  -14.6215  -39.8787 H         1 UNK         0.0600 
    171 H171        3.5620  -13.3616  -41.9959 H         1 UNK         0.0600 
    172 H172        4.3122  -14.9468  -42.0860 H         1 UNK         0.0600 
    173 H173        2.7990  -14.6404  -42.9335 H         1 UNK         0.0600 
    174 H174        0.9259  -13.8624  -41.6387 H         1 UNK         0.3000 
    175 H175       -1.4578  -13.8000  -40.3780 H         1 UNK         0.0600 
    176 H176       -0.7427  -11.9651  -38.0330 H         1 UNK         0.0600 
    177 H177       -2.3373  -12.1141  -38.7720 H         1 UNK         0.0600 
    178 H178       -1.6313  -13.4812  -37.9289 H         1 UNK         0.0600 
    179 H179       -0.4202  -11.0692  -40.3055 H         1 UNK         0.3000 
    180 H180       -0.7717   -9.9356  -42.5784 H         1 UNK         0.0600 
    181 H181        1.6588   -9.3093  -42.8702 H         1 UNK         0.0600 
    182 H182        2.1262  -10.9693  -42.5084 H         1 UNK         0.0600 
    183 H183        1.3572   -9.9751  -41.2759 H         1 UNK         0.0600 
    184 H184        0.8862  -11.3688  -44.5885 H         1 UNK         0.3000 
    185 H185       -0.4247  -12.3612  -46.3862 H         1 UNK         0.0600 
    186 H186       -2.2485  -10.2216  -47.6094 H         1 UNK         0.0600 
    187 H187       -1.6627  -11.6574  -48.4480 H         1 UNK         0.0600 
    188 H188       -2.7443  -11.8240  -47.0739 H         1 UNK         0.0600 
    189 H189        0.3145   -9.5251  -46.8484 H         1 UNK         0.3000 
    190 H190       -2.0877  -20.1059  -45.9539 H         1 UNK         0.3000 
    191 H191       -4.5139  -20.4431  -47.2762 H         1 UNK         0.0600 
    192 H192       -3.9858  -19.7639  -44.3366 H         1 UNK         0.0600 
    193 H193       -5.5070  -19.4944  -45.1802 H         1 UNK         0.0600 
    194 H194       -4.0655  -18.6202  -45.6747 H         1 UNK         0.0600 
    195 H195       -3.2675  -22.3191  -44.4860 H         1 UNK         0.3000 
    196 H196       -5.5260  -23.9777  -44.0800 H         1 UNK         0.0600 
    197 H197       -3.8837  -25.3995  -42.8239 H         1 UNK         0.0600 
    198 H198       -3.7023  -23.6984  -42.4247 H         1 UNK         0.0600 
    199 H199       -2.5535  -24.4744  -43.5139 H         1 UNK         0.0600 
    200 H200       -3.1261  -24.0817  -46.5962 H         1 UNK         0.3000 
    201 H201       -3.9119  -26.8261  -47.4713 H         1 UNK         0.0600 
    202 H202       -1.5026  -26.5221  -46.9899 H         1 UNK         0.0600 
    203 H203       -1.4339  -25.1276  -48.0564 H         1 UNK         0.0600 
    204 H204       -1.7422  -26.7371  -48.7146 H         1 UNK         0.0600 
    205 H205       -5.2973  -24.0534  -47.8899 H         1 UNK         0.3000 
    206 H206       -6.4993  -23.0081  -49.4282 H         1 UNK         0.0600 
    207 H207       -7.4503  -24.2901  -51.3076 H         1 UNK         0.0600 
    208 H208       -6.2214  -25.5350  -51.1425 H         1 UNK         0.0600 
    209 H209       -7.4160  -25.2952  -49.8680 H         1 UNK         0.0600 
    210 H210       -3.9261  -22.2649  -49.3432 H         1 UNK         0.3000 
    211 H211       -2.4589  -20.8913  -50.2576 H         1 UNK         0.0600 
    212 H212       -3.9717  -21.0113  -52.9028 H         1 UNK         0.0600 
    213 H213       -2.6704  -19.9295  -52.5110 H         1 UNK         0.0600 
    214 H214       -4.1748  -19.7933  -51.6268 H         1 UNK         0.0600 
    215 H215       -1.8598  -23.4124  -49.7910 H         1 UNK         0.3000 
    216 H216       -0.4112  -25.0885  -50.1382 H         1 UNK         0.0600 
    217 H217        1.7474  -24.5306  -51.1915 H         1 UNK         0.0600 
    218 H218        1.2045  -23.1950  -50.1907 H         1 UNK         0.0600 
    219 H219        1.0549  -23.1020  -51.9462 H         1 UNK         0.0600 
    220 H220       -2.6410  -25.5302  -51.4594 H         1 UNK         0.3000 
    221 H221       -3.6909  -26.7393  -52.9154 H         1 UNK         0.0600 
    222 H222       -1.0011  -27.8059  -53.9137 H         1 UNK         0.0600 
    223 H223       -1.8678  -28.4079  -52.5003 H         1 UNK         0.0600 
    224 H224       -2.5709  -28.5708  -54.0996 H         1 UNK         0.0600 
    225 H225       -2.3512  -24.0099  -53.8629 H         1 UNK         0.3000 
    226 H226       -2.6275  -24.2464  -56.7638 H         1 UNK         0.0600 
    227 H227       -0.9496  -22.7318  -55.5831 H         1 UNK         0.0600 
    228 H228       -1.9363  -21.9449  -56.8006 H         1 UNK         0.0600 
    229 H229       -2.3016  -21.7106  -55.0956 H         1 UNK         0.0600 
    230 H230       -4.8924  -24.1189  -54.3348 H         1 UNK         0.3000 
    231 H231       -7.0767  -23.8152  -54.1834 H         1 UNK         0.0600 
    232 H232       -7.0965  -23.7299  -57.2495 H         1 UNK         0.0600 
    233 H233       -7.1799  -25.1855  -56.2593 H         1 UNK         0.0600 
    234 H234       -8.4857  -24.0113  -56.2102 H         1 UNK         0.0600 
    235 H235       -5.9919  -21.7776  -53.3329 H         1 UNK         0.3000 
    236 H236       -6.0748  -19.6165  -52.8038 H         1 UNK         0.0600 
    237 H237       -8.5240  -19.2761  -54.5900 H         1 UNK         0.0600 
    238 H238       -8.5618  -19.8619  -52.9267 H         1 UNK         0.0600 
    239 H239       -8.0099  -18.2326  -53.2755 H         1 UNK         0.0600 
    240 H240       -4.5117  -20.5676  -55.0769 H         1 UNK         0.3000 
    241 H241       -3.1270  -19.9301  -56.6749 H         1 UNK         0.0600 
    242 H242       -5.8092  -19.8295  -59.0923 H         1 UNK         0.3800 
    243 H243       -5.2289  -20.8475  -57.7924 H         1 UNK         0.3800 
    244 H244       -2.4105  -17.5000  -56.9251 H         1 UNK         0.0800 
    245 H245       -3.5100  -17.0873  -55.6415 H         1 UNK         0.0800 
    246 H246       -2.9627  -17.6385  -53.0302 H         1 UNK         0.0800 
    247 H247       -2.1023  -16.3088  -53.7660 H         1 UNK         0.0800 
@<TRIPOS>BOND
     1    1    2 1    
     2    1  127 1    
     3    1  128 1    
     4    1  129 1    
     5    2    3 2    
     6    2    4 am   BACKBONE|DICT|INTERRES
     7    4    5 1    
     8    4  130 1    
     9    5    6 1    
    10    5   65 1    
    11    5  131 1    
    12    6    7 1    
    13    6  132 1    
    14    6  133 1    
    15    7    8 1    
    16    8    9 1    
    17    8  134 1    
    18    8  135 1    
    19    9   10 ar   
    20    9   14 ar   
    21   10   11 ar   
    22   10  136 1    
    23   11   12 ar   
    24   11  126 1    
    25   12   13 ar   
    26   12  137 1    
    27   13   14 ar   
    28   13   15 1    
    29   14  138 1    
    30   15   16 1    
    31   15  139 1    
    32   15  140 1    
    33   16   17 1    
    34   17   18 1    
    35   17  141 1    
    36   17  142 1    
    37   18   19 1    
    38   18   67 1    
    39   18  143 1    
    40   19   20 am   BACKBONE|DICT|INTERRES
    41   19  144 1    
    42   20   21 2    
    43   20   22 1    
    44   22   23 1    
    45   22   24 1    
    46   22  145 1    
    47   23  146 1    
    48   23  147 1    
    49   23  148 1    
    50   24   25 am   BACKBONE|DICT|INTERRES
    51   24  149 1    
    52   25   26 2    
    53   25   27 1    
    54   27   28 1    
    55   27   29 1    
    56   27  150 1    
    57   28  151 1    
    58   28  152 1    
    59   28  153 1    
    60   29   30 am   BACKBONE|DICT|INTERRES
    61   29  154 1    
    62   30   31 2    
    63   30   32 1    
    64   32   33 1    
    65   32   34 1    
    66   32  155 1    
    67   33  156 1    
    68   33  157 1    
    69   33  158 1    
    70   34   35 am   BACKBONE|DICT|INTERRES
    71   34  159 1    
    72   35   36 2    
    73   35   37 1    
    74   37   38 1    
    75   37   39 1    
    76   37  160 1    
    77   38  161 1    
    78   38  162 1    
    79   38  163 1    
    80   39   40 am   BACKBONE|DICT|INTERRES
    81   39  164 1    
    82   40   41 2    
    83   40   42 1    
    84   42   43 1    
    85   42   44 1    
    86   42  165 1    
    87   43  166 1    
    88   43  167 1    
    89   43  168 1    
    90   44   45 am   BACKBONE|DICT|INTERRES
    91   44  169 1    
    92   45   46 2    
    93   45   47 1    
    94   47   48 1    
    95   47   49 1    
    96   47  170 1    
    97   48  171 1    
    98   48  172 1    
    99   48  173 1    
   100   49   50 am   BACKBONE|DICT|INTERRES
   101   49  174 1    
   102   50   51 2    
   103   50   52 1    
   104   52   53 1    
   105   52   54 1    
   106   52  175 1    
   107   53  176 1    
   108   53  177 1    
   109   53  178 1    
   110   54   55 am   BACKBONE|DICT|INTERRES
   111   54  179 1    
   112   55   56 2    
   113   55   57 1    
   114   57   58 1    
   115   57   59 1    
   116   57  180 1    
   117   58  181 1    
   118   58  182 1    
   119   58  183 1    
   120   59   60 am   BACKBONE|DICT|INTERRES
   121   59  184 1    
   122   60   61 2    
   123   60   62 1    
   124   62   63 1    
   125   62   64 1    
   126   62  185 1    
   127   63  186 1    
   128   63  187 1    
   129   63  188 1    
   130   64   65 am   BACKBONE|DICT|INTERRES
   131   64  189 1    
   132   65   66 2    
   133   67   68 2    
   134   67   69 am   BACKBONE|DICT|INTERRES
   135   69   70 1    
   136   69  190 1    
   137   70   71 1    
   138   70   72 1    
   139   70  191 1    
   140   71  192 1    
   141   71  193 1    
   142   71  194 1    
   143   72   73 2    
   144   72   74 am   BACKBONE|DICT|INTERRES
   145   74   75 1    
   146   74  195 1    
   147   75   76 1    
   148   75   77 1    
   149   75  196 1    
   150   76  197 1    
   151   76  198 1    
   152   76  199 1    
   153   77   78 2    
   154   77   79 am   BACKBONE|DICT|INTERRES
   155   79   80 1    
   156   79  200 1    
   157   80   81 1    
   158   80   82 1    
   159   80  201 1    
   160   81  202 1    
   161   81  203 1    
   162   81  204 1    
   163   82   83 2    
   164   82   84 am   BACKBONE|DICT|INTERRES
   165   84   85 1    
   166   84  205 1    
   167   85   86 1    
   168   85   87 1    
   169   85  206 1    
   170   86  207 1    
   171   86  208 1    
   172   86  209 1    
   173   87   88 2    
   174   87   89 am   BACKBONE|DICT|INTERRES
   175   89   90 1    
   176   89  210 1    
   177   90   91 1    
   178   90   92 1    
   179   90  211 1    
   180   91  212 1    
   181   91  213 1    
   182   91  214 1    
   183   92   93 2    
   184   92   94 am   BACKBONE|DICT|INTERRES
   185   94   95 1    
   186   94  215 1    
   187   95   96 1    
   188   95   97 1    
   189   95  216 1    
   190   96  217 1    
   191   96  218 1    
   192   96  219 1    
   193   97   98 2    
   194   97   99 am   BACKBONE|DICT|INTERRES
   195   99  100 1    
   196   99  220 1    
   197  100  101 1    
   198  100  102 1    
   199  100  221 1    
   200  101  222 1    
   201  101  223 1    
   202  101  224 1    
   203  102  103 2    
   204  102  104 am   BACKBONE|DICT|INTERRES
   205  104  105 1    
   206  104  225 1    
   207  105  106 1    
   208  105  107 1    
   209  105  226 1    
   210  106  227 1    
   211  106  228 1    
   212  106  229 1    
   213  107  108 2    
   214  107  109 am   BACKBONE|DICT|INTERRES
   215  109  110 1    
   216  109  230 1    
   217  110  111 1    
   218  110  112 1    
   219  110  231 1    
   220  111  232 1    
   221  111  233 1    
   222  111  234 1    
   223  112  113 2    
   224  112  114 am   BACKBONE|DICT|INTERRES
   225  114  115 1    
   226  114  235 1    
   227  115  116 1    
   228  115  117 1    
   229  115  236 1    
   230  116  237 1    
   231  116  238 1    
   232  116  239 1    
   233  117  118 2    
   234  117  119 am   BACKBONE|DICT|INTERRES
   235  119  120 1    
   236  119  240 1    
   237  120  121 1    
   238  120  124 1    
   239  120  241 1    
   240  121  122 am   BACKBONE|DICT|INTERRES
   241  121  123 2    
   242  122  242 1    
   243  122  243 1    
   244  124  125 1    
   245  124  244 1    
   246  124  245 1    
   247  125  126 1    
   248  126  246 1    
   249  126  247 1    
@<TRIPOS>SUBSTRUCTURE
     1 UNK         1 GROUP             0       ****    0 ROOT    
