@<TRIPOS>MOLECULE
3R540
247   249    1
SMALL
USER_CHARGES


@<TRIPOS>ATOM
      1 CA         -4.0334  -16.5200  -43.6068 C.3       0 UNK        -0.1800 
      2 C          -4.1858  -15.0903  -44.1054 C.2       0 UNK         0.5000 
      3 O          -3.7966  -14.1566  -43.4050 O.2       0 UNK        -0.5000 
      4 N          -4.7622  -14.9137  -45.3023 N.am      1 UNK        -0.5000 
      5 CA         -5.0336  -13.6049  -45.9109 C.3       1 UNK         0.1400 
      6 C6         -6.2597  -13.6649  -46.8666 C.3       23 UNK        -0.0398 
      7 S7         -5.9564  -14.1302  -48.6131 S.3       23 UNK        -0.2404 
      8 C8         -6.2144  -15.9322  -48.6281 C.3       23 UNK        -0.0205 
      9 C9         -4.8973  -16.6920  -48.5658 C.ar      23 UNK        -0.0193 
     10 C10        -4.0148  -16.6480  -49.6500 C.ar      23 UNK        -0.1150 
     11 C11        -2.8144  -17.3621  -49.6209 C.ar      23 UNK        -0.0193 
     12 C12        -2.5042  -18.1335  -48.4976 C.ar      23 UNK        -0.1150 
     13 C13        -3.3825  -18.2016  -47.4121 C.ar      23 UNK        -0.0193 
     14 C14        -4.5749  -17.4699  -47.4502 C.ar      23 UNK        -0.1150 
     15 C15        -3.0328  -19.0650  -46.2061 C.3       23 UNK        -0.0205 
     16 S16        -4.3680  -20.2174  -45.7614 S.3       23 UNK        -0.2404 
     17 C17        -3.5744  -21.1688  -44.4239 C.3       23 UNK        -0.0398 
     18 CA         -2.7287  -22.3408  -44.9888 C.3       11 UNK         0.1400 
     19 N          -1.2912  -22.0382  -45.0324 N.am      11 UNK        -0.5000 
     20 C          -0.3720  -22.7923  -45.6570 C.2       10 UNK         0.5000 
     21 O          -0.6582  -23.8260  -46.2594 O.2       10 UNK        -0.5000 
     22 CA          1.1074  -22.3693  -45.5813 C.3       10 UNK         0.1400 
     23 CB          1.6438  -22.0196  -46.9783 C.3       10 UNK        -0.1800 
     24 N           1.3700  -21.2648  -44.6563 N.am      10 UNK        -0.5000 
     25 C           1.3060  -21.3536  -43.3198 C.2       9 UNK         0.5000 
     26 O           0.9975  -22.3870  -42.7243 O.2       9 UNK        -0.5000 
     27 CA          1.6092  -20.0772  -42.5106 C.3       9 UNK         0.1400 
     28 CB          3.0730  -20.0773  -42.0457 C.3       9 UNK        -0.1800 
     29 N           1.3373  -18.8375  -43.2417 N.am      9 UNK        -0.5000 
     30 C           0.1206  -18.4185  -43.6174 C.2       8 UNK         0.5000 
     31 O          -0.9180  -19.0278  -43.3641 O.2       8 UNK        -0.5000 
     32 CA          0.0622  -17.1338  -44.4660 C.3       8 UNK         0.1400 
     33 CB          0.1615  -15.8810  -43.5838 C.3       8 UNK        -0.1800 
     34 N           1.0998  -17.1009  -45.4971 N.am      8 UNK        -0.5000 
     35 C           1.1740  -17.9697  -46.5159 C.2       7 UNK         0.5000 
     36 O           0.3516  -18.8616  -46.7104 O.2       7 UNK        -0.5000 
     37 CA          2.3945  -17.8605  -47.4432 C.3       7 UNK         0.1400 
     38 CB          2.1618  -16.8161  -48.5431 C.3       7 UNK        -0.1800 
     39 N           3.6122  -17.5384  -46.7004 N.am      7 UNK        -0.5000 
     40 C           4.2622  -18.4080  -45.9139 C.2       6 UNK         0.5000 
     41 O           3.9313  -19.5849  -45.7740 O.2       6 UNK        -0.5000 
     42 CA          5.4640  -17.8593  -45.1234 C.3       6 UNK         0.1400 
     43 CB          6.7315  -17.8633  -45.9909 C.3       6 UNK        -0.1800 
     44 N           5.2326  -16.5087  -44.6087 N.am      6 UNK        -0.5000 
     45 C           4.3215  -16.2004  -43.6751 C.2       5 UNK         0.5000 
     46 O           3.5914  -17.0286  -43.1330 O.2       5 UNK        -0.5000 
     47 CA          4.1702  -14.7106  -43.3190 C.3       5 UNK         0.1400 
     48 CB          5.1589  -14.3180  -42.2113 C.3       5 UNK        -0.1800 
     49 N           4.3435  -13.8150  -44.4659 N.am      5 UNK        -0.5000 
     50 C           3.5587  -13.8072  -45.5507 C.2       4 UNK         0.5000 
     51 O           2.6301  -14.5982  -45.7341 O.2       4 UNK        -0.5000 
     52 CA          3.8894  -12.7666  -46.6302 C.3       4 UNK         0.1400 
     53 CB          4.4643  -13.4464  -47.8826 C.3       4 UNK        -0.1800 
     54 N           2.6840  -12.0276  -46.9916 N.am      4 UNK        -0.5000 
     55 C           2.2018  -10.9813  -46.3075 C.2       3 UNK         0.5000 
     56 O           2.7721  -10.4742  -45.3406 O.2       3 UNK        -0.5000 
     57 CA          0.8551  -10.4034  -46.7829 C.3       3 UNK         0.1400 
     58 CB          1.0811   -9.2951  -47.8229 C.3       3 UNK        -0.1800 
     59 N          -0.0239  -11.4263  -47.3534 N.am      3 UNK        -0.5000 
     60 C          -0.6972  -12.3263  -46.6257 C.2       2 UNK         0.5000 
     61 O          -0.6822  -12.3641  -45.3930 O.2       2 UNK        -0.5000 
     62 CA         -1.4805  -13.3867  -47.4208 C.3       2 UNK         0.1400 
     63 CB         -0.6181  -14.6426  -47.5933 C.3       2 UNK        -0.1800 
     64 N          -2.7351  -13.7713  -46.7802 N.am      2 UNK        -0.5000 
     65 C          -3.7794  -12.9631  -46.5502 C.2       1 UNK         0.5000 
     66 O          -3.7958  -11.7650  -46.8390 O.2       1 UNK        -0.5000 
     67 C          -3.0719  -23.6929  -44.3209 C.2       11 UNK         0.5000 
     68 O          -4.1341  -24.2482  -44.6053 O.2       11 UNK        -0.5000 
     69 N          -2.1536  -24.2366  -43.5097 N.am      12 UNK        -0.5000 
     70 CA         -2.2209  -25.5971  -42.9729 C.3       12 UNK         0.1400 
     71 CB         -1.0878  -25.7833  -41.9528 C.3       12 UNK        -0.1800 
     72 C          -2.1540  -26.6942  -44.0590 C.2       12 UNK         0.5000 
     73 O          -2.7053  -27.7765  -43.8554 O.2       12 UNK        -0.5000 
     74 N          -1.5070  -26.4014  -45.1964 N.am      13 UNK        -0.5000 
     75 CA         -1.3788  -27.2916  -46.3475 C.3       13 UNK         0.1400 
     76 CB          0.0108  -27.0946  -46.9811 C.3       13 UNK        -0.1800 
     77 C          -2.5247  -27.0304  -47.3412 C.2       13 UNK         0.5000 
     78 O          -2.2952  -26.4935  -48.4267 O.2       13 UNK        -0.5000 
     79 N          -3.7500  -27.3913  -46.9324 N.am      14 UNK        -0.5000 
     80 CA         -4.9956  -27.3236  -47.7092 C.3       14 UNK         0.1400 
     81 CB         -4.9813  -28.3873  -48.8271 C.3       14 UNK        -0.1800 
     82 C          -5.2978  -25.9074  -48.2420 C.2       14 UNK         0.5000 
     83 O          -5.5277  -25.7279  -49.4407 O.2       14 UNK        -0.5000 
     84 N          -5.2387  -24.9172  -47.3389 N.am      15 UNK        -0.5000 
     85 CA         -5.4035  -23.4853  -47.6102 C.3       15 UNK         0.1400 
     86 CB         -6.8468  -23.1688  -48.0570 C.3       15 UNK        -0.1800 
     87 C          -4.3366  -22.9461  -48.5860 C.2       15 UNK         0.5000 
     88 O          -4.6603  -22.1391  -49.4535 O.2       15 UNK        -0.5000 
     89 N          -3.0932  -23.4326  -48.4446 N.am      16 UNK        -0.5000 
     90 CA         -1.9317  -23.1579  -49.2977 C.3       16 UNK         0.1400 
     91 CB         -1.5221  -21.6708  -49.2179 C.3       16 UNK        -0.1800 
     92 C          -2.1595  -23.6600  -50.7373 C.2       16 UNK         0.5000 
     93 O          -1.8978  -22.9357  -51.6974 O.2       16 UNK        -0.5000 
     94 N          -2.6760  -24.8945  -50.8406 N.am      17 UNK        -0.5000 
     95 CA         -3.1288  -25.5739  -52.0581 C.3       17 UNK         0.1400 
     96 CB         -1.9276  -25.9353  -52.9564 C.3       17 UNK        -0.1800 
     97 C          -4.2239  -24.7733  -52.7956 C.2       17 UNK         0.5000 
     98 O          -4.1069  -24.5239  -53.9970 O.2       17 UNK        -0.5000 
     99 N          -5.2587  -24.3724  -52.0402 N.am      18 UNK        -0.5000 
    100 CA        -6.3689  -23.5022  -52.4474 C.3       18 UNK         0.1400 
    101 CB        -7.2820  -24.2174  -53.4647 C.3       18 UNK        -0.1800 
    102 C         -5.8767  -22.1215  -52.9342 C.2       18 UNK         0.5000 
    103 O         -6.1954  -21.6937  -54.0462 O.2       18 UNK        -0.5000 
    104 N         -5.0773  -21.4686  -52.0821 N.am      19 UNK        -0.5000 
    105 CA        -4.3800  -20.1893  -52.2254 C.3       19 UNK         0.1400 
    106 CB        -5.3657  -19.0198  -52.4072 C.3       19 UNK        -0.1800 
    107 C         -3.2852  -20.1760  -53.3058 C.2       19 UNK         0.5000 
    108 O         -2.1703  -19.7400  -53.0204 O.2       19 UNK        -0.5000 
    109 N         -3.6241  -20.5977  -54.5331 N.am      20 UNK        -0.5000 
    110 CA        -2.7699  -20.6317  -55.7296 C.3       20 UNK         0.1400 
    111 CB        -1.7152  -21.7486  -55.5912 C.3       20 UNK        -0.1800 
    112 C         -2.1424  -19.2580  -56.0670 C.2       20 UNK         0.5000 
    113 O         -0.9979  -19.1891  -56.5214 O.2       20 UNK        -0.5000 
    114 N         -2.8886  -18.1821  -55.7639 N.am      21 UNK        -0.5000 
    115 CA        -2.4928  -16.7671  -55.8179 C.3       21 UNK         0.1400 
    116 CB        -2.3113  -16.3179  -57.2826 C.3       21 UNK        -0.1800 
    117 C         -1.2660  -16.4187  -54.9392 C.2       21 UNK         0.5000 
    118 O         -0.6161  -15.4001  -55.1804 O.2       21 UNK        -0.5000 
    119 N         -0.9614  -17.2759  -53.9536 N.am      22 UNK        -0.5000 
    120 CA         0.2538  -17.2698  -53.1241 C.3       22 UNK         0.1400 
    121 C          1.5648  -17.5404  -53.9289 C.2       22 UNK         0.5000 
    122 N          1.5041  -18.1433  -55.1123 N.am      22 UNK        -0.7600 
    123 O          2.6600  -17.2314  -53.4670 O.2       22 UNK        -0.5000 
    124 C124        0.3570  -16.0334  -52.1803 C.3       23 UNK        -0.0398 
    125 S125       -1.0049  -15.7431  -50.9824 S.3       23 UNK        -0.2404 
    126 C126       -1.8735  -17.3366  -50.8162 C.3       23 UNK        -0.0205 
    127 H127       -2.9809  -16.7986  -43.5728 H         1 UNK         0.0600 
    128 H128       -4.5624  -17.2302  -44.2418 H         1 UNK         0.0600 
    129 H129       -4.4388  -16.6092  -42.5990 H         1 UNK         0.0600 
    130 H130       -5.0464  -15.7143  -45.8468 H         1 UNK         0.3000 
    131 H131       -5.3203  -12.9339  -45.0977 H         1 UNK         0.0600 
    132 H132       -7.0407  -14.3007  -46.4476 H         1 UNK         0.0800 
    133 H133       -6.7069  -12.6702  -46.9026 H         1 UNK         0.0800 
    134 H134       -6.7251  -16.2003  -49.5541 H         1 UNK         0.0800 
    135 H135       -6.8833  -16.2296  -47.8196 H         1 UNK         0.0800 
    136 H136       -4.2636  -16.0565  -50.5200 H         1 UNK         0.1150 
    137 H137       -1.5806  -18.6941  -48.4746 H         1 UNK         0.1150 
    138 H138       -5.2652  -17.5346  -46.6218 H         1 UNK         0.1150 
    139 H139       -2.1316  -19.6452  -46.4052 H         1 UNK         0.0800 
    140 H140       -2.8063  -18.4250  -45.3566 H         1 UNK         0.0800 
    141 H141       -4.3838  -21.5229  -43.7824 H         1 UNK         0.0800 
    142 H142       -2.9820  -20.5068  -43.7932 H         1 UNK         0.0800 
    143 H143       -3.0100  -22.4855  -46.0279 H         1 UNK         0.0600 
    144 H144       -0.9853  -21.1997  -44.5567 H         1 UNK         0.3000 
    145 H145        1.6636  -23.2380  -45.2235 H         1 UNK         0.0600 
    146 H146        2.6984  -21.7469  -46.9423 H         1 UNK         0.0600 
    147 H147        1.5538  -22.8715  -47.6536 H         1 UNK         0.0600 
    148 H148        1.0964  -21.1937  -47.4296 H         1 UNK         0.0600 
    149 H149        1.6332  -20.3809  -45.0712 H         1 UNK         0.3000 
    150 H150        0.9698  -20.0917  -41.6257 H         1 UNK         0.0600 
    151 H151        3.3078  -20.9835  -41.4859 H         1 UNK         0.0600 
    152 H152        3.2787  -19.2297  -41.3917 H         1 UNK         0.0600 
    153 H153        3.7614  -20.0233  -42.8901 H         1 UNK         0.0600 
    154 H154        2.1402  -18.2459  -43.4395 H         1 UNK         0.3000 
    155 H155       -0.9026  -17.1083  -44.9745 H         1 UNK         0.0600 
    156 H156       -0.6473  -15.8547  -42.8527 H         1 UNK         0.0600 
    157 H157        0.0908  -14.9697  -44.1782 H         1 UNK         0.0600 
    158 H158        1.1012  -15.8490  -43.0334 H         1 UNK         0.0600 
    159 H159        1.7846  -16.3533  -45.4386 H         1 UNK         0.3000 
    160 H160        2.5290  -18.8308  -47.9263 H         1 UNK         0.0600 
    161 H161        2.0856  -15.8122  -48.1291 H         1 UNK         0.0600 
    162 H162        1.2378  -17.0199  -49.0861 H         1 UNK         0.0600 
    163 H163        2.9749  -16.8187  -49.2690 H         1 UNK         0.0600 
    164 H164        3.9159  -16.5763  -46.7179 H         1 UNK         0.3000 
    165 H165        5.6309  -18.5219  -44.2714 H         1 UNK         0.0600 
    166 H166        7.6037  -17.5517  -45.4159 H         1 UNK         0.0600 
    167 H167        6.9375  -18.8633  -46.3752 H         1 UNK         0.0600 
    168 H168        6.6372  -17.1951  -46.8478 H         1 UNK         0.0600 
    169 H169        5.7908  -15.7653  -45.0015 H         1 UNK         0.3000 
    170 H170        3.1581  -14.5648  -42.9368 H         1 UNK         0.0600 
    171 H171        5.0373  -14.9570  -41.3355 H         1 UNK         0.0600 
    172 H172        6.1940  -14.4090  -42.5430 H         1 UNK         0.0600 
    173 H173        4.9990  -13.2900  -41.8858 H         1 UNK         0.0600 
    174 H174        5.0864  -13.1347  -44.3945 H         1 UNK         0.3000 
    175 H175        4.6394  -12.0713  -46.2469 H         1 UNK         0.0600 
    176 H176        3.7481  -14.1280  -48.3411 H         1 UNK         0.0600 
    177 H177        4.7477  -12.7084  -48.6333 H         1 UNK         0.0600 
    178 H178        5.3585  -14.0222  -47.6405 H         1 UNK         0.0600 
    179 H179        2.1270  -12.4124  -47.7389 H         1 UNK         0.3000 
    180 H180        0.3588   -9.9593  -45.9171 H         1 UNK         0.0600 
    181 H181        1.5661   -9.6772  -48.7220 H         1 UNK         0.0600 
    182 H182        1.7152   -8.5048  -47.4188 H         1 UNK         0.0600 
    183 H183        0.1386   -8.8340  -48.1190 H         1 UNK         0.0600 
    184 H184       -0.0921  -11.4533  -48.3606 H         1 UNK         0.3000 
    185 H185       -1.7262  -12.9908  -48.4084 H         1 UNK         0.0600 
    186 H186        0.2375  -14.4322  -48.2343 H         1 UNK         0.0600 
    187 H187       -0.2352  -14.9979  -46.6376 H         1 UNK         0.0600 
    188 H188       -1.1779  -15.4576  -48.0500 H         1 UNK         0.0600 
    189 H189       -2.8151  -14.7340  -46.4925 H         1 UNK         0.3000 
    190 H190       -1.3049  -23.7188  -43.3265 H         1 UNK         0.3000 
    191 H191       -3.1742  -25.7075  -42.4519 H         1 UNK         0.0600 
    192 H192       -1.1706  -25.0664  -41.1357 H         1 UNK         0.0600 
    193 H193       -1.1168  -26.7812  -41.5130 H         1 UNK         0.0600 
    194 H194       -0.1073  -25.6546  -42.4134 H         1 UNK         0.0600 
    195 H195       -1.1413  -25.4637  -45.3325 H         1 UNK         0.3000 
    196 H196       -1.4476  -28.3331  -46.0267 H         1 UNK         0.0600 
    197 H197        0.1525  -27.7723  -47.8237 H         1 UNK         0.0600 
    198 H198        0.8037  -27.2997  -46.2619 H         1 UNK         0.0600 
    199 H199        0.1516  -26.0793  -47.3526 H         1 UNK         0.0600 
    200 H200       -3.8343  -27.7786  -46.0012 H         1 UNK         0.3000 
    201 H201       -5.8068  -27.5739  -47.0242 H         1 UNK         0.0600 
    202 H202       -4.8088  -29.3838  -48.4207 H         1 UNK         0.0600 
    203 H203       -4.2048  -28.1883  -49.5667 H         1 UNK         0.0600 
    204 H204       -5.9358  -28.4137  -49.3543 H         1 UNK         0.0600 
    205 H205       -5.0032  -25.1453  -46.3793 H         1 UNK         0.3000 
    206 H206       -5.2471  -22.9690  -46.6645 H         1 UNK         0.0600 
    207 H207       -7.5732  -23.5526  -47.3409 H         1 UNK         0.0600 
    208 H208       -7.0034  -22.0919  -48.1302 H         1 UNK         0.0600 
    209 H209       -7.0776  -23.5983  -49.0318 H         1 UNK         0.0600 
    210 H210       -2.9377  -24.1419  -47.7422 H         1 UNK         0.3000 
    211 H211       -1.1072  -23.7490  -48.8973 H         1 UNK         0.0600 
    212 H212       -2.2644  -21.0171  -49.6756 H         1 UNK         0.0600 
    213 H213       -0.5772  -21.4993  -49.7341 H         1 UNK         0.0600 
    214 H214       -1.3906  -21.3516  -48.1844 H         1 UNK         0.0600 
    215 H215       -2.8049  -25.4179  -49.9785 H         1 UNK         0.3000 
    216 H216       -3.5929  -26.5067  -51.7341 H         1 UNK         0.0600 
    217 H217       -2.2462  -26.5344  -53.8100 H         1 UNK         0.0600 
    218 H218       -1.1879  -26.5187  -52.4082 H         1 UNK         0.0600 
    219 H219       -1.4313  -25.0467  -53.3481 H         1 UNK         0.0600 
    220 H220       -5.2711  -24.6715  -51.0681 H         1 UNK         0.3000 
    221 H221       -6.9599  -23.3187  -51.5492 H         1 UNK         0.0600 
    222 H222       -6.7700  -24.4109  -54.4077 H         1 UNK         0.0600 
    223 H223       -7.6354  -25.1712  -53.0731 H         1 UNK         0.0600 
    224 H224       -8.1612  -23.6127  -53.6895 H         1 UNK         0.0600 
    225 H225       -4.8937  -21.9140  -51.1828 H         1 UNK         0.3000 
    226 H226       -3.8721  -20.0331  -51.2723 H         1 UNK         0.0600 
    227 H227       -6.0676  -18.9677  -51.5748 H         1 UNK         0.0600 
    228 H228       -4.8368  -18.0668  -52.4427 H         1 UNK         0.0600 
    229 H229       -5.9423  -19.1069  -53.3282 H         1 UNK         0.0600 
    230 H230       -4.5711  -20.9527  -54.6451 H         1 UNK         0.3000 
    231 H231       -3.4196  -20.8872  -56.5675 H         1 UNK         0.0600 
    232 H232       -0.9996  -21.5310  -54.7974 H         1 UNK         0.0600 
    233 H233       -1.1523  -21.8761  -56.5165 H         1 UNK         0.0600 
    234 H234       -2.1842  -22.7057  -55.3616 H         1 UNK         0.0600 
    235 H235       -3.8075  -18.3578  -55.3830 H         1 UNK         0.3000 
    236 H236       -3.3277  -16.2027  -55.4005 H         1 UNK         0.0600 
    237 H237       -3.1885  -16.5619  -57.8817 H         1 UNK         0.0600 
    238 H238       -2.1668  -15.2389  -57.3482 H         1 UNK         0.0600 
    239 H239       -1.4457  -16.7919  -57.7463 H         1 UNK         0.0600 
    240 H240       -1.5396  -18.1019  -53.8321 H         1 UNK         0.3000 
    241 H241        0.1776  -18.1551  -52.4955 H         1 UNK         0.0600 
    242 H242        2.3567  -18.3224  -55.6182 H         1 UNK         0.3800 
    243 H243        0.6164  -18.4267  -55.5135 H         1 UNK         0.3800 
    244 H244        1.2645  -16.1088  -51.5796 H         1 UNK         0.0800 
    245 H245        0.4786  -15.1243  -52.7700 H         1 UNK         0.0800 
    246 H246       -2.4555  -17.5180  -51.7178 H         1 UNK         0.0800 
    247 H247       -1.1522  -18.1490  -50.7272 H         1 UNK         0.0800 
@<TRIPOS>BOND
     1    1    2 1    
     2    1  127 1    
     3    1  128 1    
     4    1  129 1    
     5    2    3 2    
     6    2    4 am   BACKBONE|DICT|INTERRES
     7    4    5 1    
     8    4  130 1    
     9    5    6 1    
    10    5   65 1    
    11    5  131 1    
    12    6    7 1    
    13    6  132 1    
    14    6  133 1    
    15    7    8 1    
    16    8    9 1    
    17    8  134 1    
    18    8  135 1    
    19    9   10 ar   
    20    9   14 ar   
    21   10   11 ar   
    22   10  136 1    
    23   11   12 ar   
    24   11  126 1    
    25   12   13 ar   
    26   12  137 1    
    27   13   14 ar   
    28   13   15 1    
    29   14  138 1    
    30   15   16 1    
    31   15  139 1    
    32   15  140 1    
    33   16   17 1    
    34   17   18 1    
    35   17  141 1    
    36   17  142 1    
    37   18   19 1    
    38   18   67 1    
    39   18  143 1    
    40   19   20 am   BACKBONE|DICT|INTERRES
    41   19  144 1    
    42   20   21 2    
    43   20   22 1    
    44   22   23 1    
    45   22   24 1    
    46   22  145 1    
    47   23  146 1    
    48   23  147 1    
    49   23  148 1    
    50   24   25 am   BACKBONE|DICT|INTERRES
    51   24  149 1    
    52   25   26 2    
    53   25   27 1    
    54   27   28 1    
    55   27   29 1    
    56   27  150 1    
    57   28  151 1    
    58   28  152 1    
    59   28  153 1    
    60   29   30 am   BACKBONE|DICT|INTERRES
    61   29  154 1    
    62   30   31 2    
    63   30   32 1    
    64   32   33 1    
    65   32   34 1    
    66   32  155 1    
    67   33  156 1    
    68   33  157 1    
    69   33  158 1    
    70   34   35 am   BACKBONE|DICT|INTERRES
    71   34  159 1    
    72   35   36 2    
    73   35   37 1    
    74   37   38 1    
    75   37   39 1    
    76   37  160 1    
    77   38  161 1    
    78   38  162 1    
    79   38  163 1    
    80   39   40 am   BACKBONE|DICT|INTERRES
    81   39  164 1    
    82   40   41 2    
    83   40   42 1    
    84   42   43 1    
    85   42   44 1    
    86   42  165 1    
    87   43  166 1    
    88   43  167 1    
    89   43  168 1    
    90   44   45 am   BACKBONE|DICT|INTERRES
    91   44  169 1    
    92   45   46 2    
    93   45   47 1    
    94   47   48 1    
    95   47   49 1    
    96   47  170 1    
    97   48  171 1    
    98   48  172 1    
    99   48  173 1    
   100   49   50 am   BACKBONE|DICT|INTERRES
   101   49  174 1    
   102   50   51 2    
   103   50   52 1    
   104   52   53 1    
   105   52   54 1    
   106   52  175 1    
   107   53  176 1    
   108   53  177 1    
   109   53  178 1    
   110   54   55 am   BACKBONE|DICT|INTERRES
   111   54  179 1    
   112   55   56 2    
   113   55   57 1    
   114   57   58 1    
   115   57   59 1    
   116   57  180 1    
   117   58  181 1    
   118   58  182 1    
   119   58  183 1    
   120   59   60 am   BACKBONE|DICT|INTERRES
   121   59  184 1    
   122   60   61 2    
   123   60   62 1    
   124   62   63 1    
   125   62   64 1    
   126   62  185 1    
   127   63  186 1    
   128   63  187 1    
   129   63  188 1    
   130   64   65 am   BACKBONE|DICT|INTERRES
   131   64  189 1    
   132   65   66 2    
   133   67   68 2    
   134   67   69 am   BACKBONE|DICT|INTERRES
   135   69   70 1    
   136   69  190 1    
   137   70   71 1    
   138   70   72 1    
   139   70  191 1    
   140   71  192 1    
   141   71  193 1    
   142   71  194 1    
   143   72   73 2    
   144   72   74 am   BACKBONE|DICT|INTERRES
   145   74   75 1    
   146   74  195 1    
   147   75   76 1    
   148   75   77 1    
   149   75  196 1    
   150   76  197 1    
   151   76  198 1    
   152   76  199 1    
   153   77   78 2    
   154   77   79 am   BACKBONE|DICT|INTERRES
   155   79   80 1    
   156   79  200 1    
   157   80   81 1    
   158   80   82 1    
   159   80  201 1    
   160   81  202 1    
   161   81  203 1    
   162   81  204 1    
   163   82   83 2    
   164   82   84 am   BACKBONE|DICT|INTERRES
   165   84   85 1    
   166   84  205 1    
   167   85   86 1    
   168   85   87 1    
   169   85  206 1    
   170   86  207 1    
   171   86  208 1    
   172   86  209 1    
   173   87   88 2    
   174   87   89 am   BACKBONE|DICT|INTERRES
   175   89   90 1    
   176   89  210 1    
   177   90   91 1    
   178   90   92 1    
   179   90  211 1    
   180   91  212 1    
   181   91  213 1    
   182   91  214 1    
   183   92   93 2    
   184   92   94 am   BACKBONE|DICT|INTERRES
   185   94   95 1    
   186   94  215 1    
   187   95   96 1    
   188   95   97 1    
   189   95  216 1    
   190   96  217 1    
   191   96  218 1    
   192   96  219 1    
   193   97   98 2    
   194   97   99 am   BACKBONE|DICT|INTERRES
   195   99  100 1    
   196   99  220 1    
   197  100  101 1    
   198  100  102 1    
   199  100  221 1    
   200  101  222 1    
   201  101  223 1    
   202  101  224 1    
   203  102  103 2    
   204  102  104 am   BACKBONE|DICT|INTERRES
   205  104  105 1    
   206  104  225 1    
   207  105  106 1    
   208  105  107 1    
   209  105  226 1    
   210  106  227 1    
   211  106  228 1    
   212  106  229 1    
   213  107  108 2    
   214  107  109 am   BACKBONE|DICT|INTERRES
   215  109  110 1    
   216  109  230 1    
   217  110  111 1    
   218  110  112 1    
   219  110  231 1    
   220  111  232 1    
   221  111  233 1    
   222  111  234 1    
   223  112  113 2    
   224  112  114 am   BACKBONE|DICT|INTERRES
   225  114  115 1    
   226  114  235 1    
   227  115  116 1    
   228  115  117 1    
   229  115  236 1    
   230  116  237 1    
   231  116  238 1    
   232  116  239 1    
   233  117  118 2    
   234  117  119 am   BACKBONE|DICT|INTERRES
   235  119  120 1    
   236  119  240 1    
   237  120  121 1    
   238  120  124 1    
   239  120  241 1    
   240  121  122 am   BACKBONE|DICT|INTERRES
   241  121  123 2    
   242  122  242 1    
   243  122  243 1    
   244  124  125 1    
   245  124  244 1    
   246  124  245 1    
   247  125  126 1    
   248  126  246 1    
   249  126  247 1    
@<TRIPOS>SUBSTRUCTURE
     1 UNK         1 GROUP             0       ****    0 ROOT    
