@<TRIPOS>MOLECULE
3R540
247   249    1
SMALL
USER_CHARGES


@<TRIPOS>ATOM
      1 CA          1.9141  -11.9642  -40.4956 C.3       0 UNK        -0.1800 
      2 C           1.4267  -12.7794  -41.6843 C.2       0 UNK         0.5000 
      3 O           2.1183  -13.7033  -42.1117 O.2       0 UNK        -0.5000 
      4 N           0.2419  -12.4398  -42.2118 N.am      1 UNK        -0.5000 
      5 CA         -0.4224  -13.0817  -43.3565 C.3       1 UNK         0.1400 
      6 C6         -0.8488  -14.5530  -43.0948 C.3       23 UNK        -0.0398 
      7 S7         -1.9443  -14.7087  -41.6458 S.3       23 UNK        -0.2404 
      8 C8         -3.5898  -14.6849  -42.4311 C.3       23 UNK        -0.0205 
      9 C9         -3.9028  -15.9599  -43.2051 C.ar      23 UNK        -0.0193 
     10 C10        -4.3357  -15.8943  -44.5336 C.ar      23 UNK        -0.1150 
     11 C11        -4.6716  -17.0598  -45.2302 C.ar      23 UNK        -0.0193 
     12 C12        -4.5570  -18.2997  -44.5928 C.ar      23 UNK        -0.1150 
     13 C13        -4.1197  -18.3796  -43.2670 C.ar      23 UNK        -0.0193 
     14 C14        -3.8049  -17.2056  -42.5788 C.ar      23 UNK        -0.1150 
     15 C15        -4.0155  -19.7192  -42.5521 C.3       23 UNK        -0.0205 
     16 S16        -2.2795  -20.2289  -42.3392 S.3       23 UNK        -0.2404 
     17 C17        -2.1118  -21.5458  -43.5876 C.3       23 UNK        -0.0398 
     18 CA         -2.0542  -21.0308  -45.0444 C.3       11 UNK         0.1400 
     19 N          -1.0186  -20.0218  -45.2805 N.am      11 UNK        -0.5000 
     20 C          -0.9133  -19.3034  -46.4095 C.2       10 UNK         0.5000 
     21 O          -1.7176  -19.3656  -47.3374 O.2       10 UNK        -0.5000 
     22 CA          0.3433  -18.4291  -46.5586 C.3       10 UNK         0.1400 
     23 CB          0.1442  -17.0587  -45.9017 C.3       10 UNK        -0.1800 
     24 N           1.5270  -19.0920  -46.0064 N.am      10 UNK        -0.5000 
     25 C           2.0924  -20.1787  -46.5542 C.2       9 UNK         0.5000 
     26 O           1.7338  -20.6629  -47.6263 O.2       9 UNK        -0.5000 
     27 CA          3.2048  -20.8769  -45.7529 C.3       9 UNK         0.1400 
     28 CB          4.5927  -20.3469  -46.1426 C.3       9 UNK        -0.1800 
     29 N           2.9977  -20.7576  -44.3088 N.am      9 UNK        -0.5000 
     30 C           2.0441  -21.4298  -43.6466 C.2       8 UNK         0.5000 
     31 O           1.2931  -22.2410  -44.1884 O.2       8 UNK        -0.5000 
     32 CA          1.8663  -21.1358  -42.1446 C.3       8 UNK         0.1400 
     33 CB          2.6438  -22.1586  -41.3035 C.3       8 UNK        -0.1800 
     34 N           2.2670  -19.7855  -41.7470 N.am      8 UNK        -0.5000 
     35 C           1.6878  -18.6536  -42.1700 C.2       7 UNK         0.5000 
     36 O           0.7516  -18.6357  -42.9689 O.2       7 UNK        -0.5000 
     37 CA          2.2644  -17.3187  -41.6415 C.3       7 UNK         0.1400 
     38 CB          3.4282  -17.4904  -40.6409 C.3       7 UNK        -0.1800 
     39 N           2.6812  -16.3970  -42.7036 N.am      7 UNK        -0.5000 
     40 C           3.4163  -16.6765  -43.7865 C.2       6 UNK         0.5000 
     41 O           3.8015  -17.8075  -44.0934 O.2       6 UNK        -0.5000 
     42 CA          3.8198  -15.4871  -44.6651 C.3       6 UNK         0.1400 
     43 CB          5.1623  -14.8946  -44.2035 C.3       6 UNK        -0.1800 
     44 N           3.9211  -15.9520  -46.0436 N.am      6 UNK        -0.5000 
     45 C           3.8049  -15.1892  -47.1349 C.2       5 UNK         0.5000 
     46 O           3.6765  -13.9657  -47.0987 O.2       5 UNK        -0.5000 
     47 CA          3.8533  -15.8895  -48.5035 C.3       5 UNK         0.1400 
     48 CB          4.0475  -17.4195  -48.4449 C.3       5 UNK        -0.1800 
     49 N           2.6324  -15.5711  -49.2355 N.am      5 UNK        -0.5000 
     50 C           2.5111  -15.5212  -50.5644 C.2       4 UNK         0.5000 
     51 O           3.4457  -15.7362  -51.3377 O.2       4 UNK        -0.5000 
     52 CA          1.1248  -15.1748  -51.1479 C.3       4 UNK         0.1400 
     53 CB          0.2320  -16.4291  -51.2232 C.3       4 UNK        -0.1800 
     54 N           0.4324  -14.0439  -50.5080 N.am      4 UNK        -0.5000 
     55 C          -0.0460  -13.9482  -49.2599 C.2       3 UNK         0.5000 
     56 O           0.0224  -14.8531  -48.4271 O.2       3 UNK        -0.5000 
     57 CA         -0.6817  -12.5992  -48.8654 C.3       3 UNK         0.1400 
     58 CB         -2.1986  -12.7278  -48.6598 C.3       3 UNK        -0.1800 
     59 N          -0.0913  -12.1005  -47.6275 N.am      3 UNK        -0.5000 
     60 C           1.1554  -11.6299  -47.5033 C.2       2 UNK         0.5000 
     61 O           1.8952  -11.4274  -48.4679 O.2       2 UNK        -0.5000 
     62 CA          1.6598  -11.3000  -46.0780 C.3       2 UNK         0.1400 
     63 CB          1.9722   -9.7999  -45.9472 C.3       2 UNK        -0.1800 
     64 N           0.7629  -11.6799  -44.9781 N.am      2 UNK        -0.5000 
     65 C           0.4232  -12.9314  -44.6380 C.2       1 UNK         0.5000 
     66 O           0.7645  -13.9243  -45.2735 O.2       1 UNK        -0.5000 
     67 C          -1.9329  -22.2076  -46.0308 C.2       11 UNK         0.5000 
     68 O          -2.9376  -22.5976  -46.6227 O.2       11 UNK        -0.5000 
     69 N          -0.7087  -22.7198  -46.2346 N.am      12 UNK        -0.5000 
     70 CA         -0.3988  -23.7635  -47.2167 C.3       12 UNK         0.1400 
     71 CB          1.0762  -24.1731  -47.1032 C.3       12 UNK        -0.1800 
     72 C          -0.7456  -23.3385  -48.6553 C.2       12 UNK         0.5000 
     73 O          -1.3860  -24.1044  -49.3761 O.2       12 UNK        -0.5000 
     74 N          -0.4188  -22.0873  -49.0080 N.am      13 UNK        -0.5000 
     75 CA         -0.7786  -21.4321  -50.2692 C.3       13 UNK         0.1400 
     76 CB         -0.0073  -20.1084  -50.3940 C.3       13 UNK        -0.1800 
     77 C          -2.2928  -21.2037  -50.4787 C.2       13 UNK         0.5000 
     78 O          -2.6743  -20.7310  -51.5503 O.2       13 UNK        -0.5000 
     79 N          -3.1262  -21.5446  -49.4893 N.am      14 UNK        -0.5000 
     80 CA         -4.5827  -21.5272  -49.5648 C.3       14 UNK         0.1400 
     81 CB         -5.1009  -20.5524  -48.4950 C.3       14 UNK        -0.1800 
     82 C          -5.1991  -22.9265  -49.3639 C.2       14 UNK         0.5000 
     83 O          -6.4246  -23.0369  -49.4268 O.2       14 UNK        -0.5000 
     84 N          -4.3811  -23.9580  -49.0976 N.am      15 UNK        -0.5000 
     85 CA         -4.8477  -25.2653  -48.6253 C.3       15 UNK         0.1400 
     86 CB         -4.5206  -25.4049  -47.1303 C.3       15 UNK        -0.1800 
     87 C          -4.2710  -26.4583  -49.4015 C.2       15 UNK         0.5000 
     88 O          -4.9533  -27.4803  -49.4921 O.2       15 UNK        -0.5000 
     89 N          -3.0487  -26.3447  -49.9406 N.am      16 UNK        -0.5000 
     90 CA         -2.3375  -27.4189  -50.6432 C.3       16 UNK         0.1400 
     91 CB         -0.8370  -27.0786  -50.6829 C.3       16 UNK        -0.1800 
     92 C          -2.9269  -27.6779  -52.0454 C.2       16 UNK         0.5000 
     93 O          -2.3438  -27.2649  -53.0485 O.2       16 UNK        -0.5000 
     94 N          -4.1067  -28.3166  -52.0723 N.am      17 UNK        -0.5000 
     95 CA         -5.0007  -28.4923  -53.2243 C.3       17 UNK         0.1400 
     96 CB         -4.3621  -29.3964  -54.2994 C.3       17 UNK        -0.1800 
     97 C          -5.4650  -27.1244  -53.7655 C.2       17 UNK         0.5000 
     98 O          -5.3713  -26.8579  -54.9645 O.2       17 UNK        -0.5000 
     99 N          -5.8737  -26.2516  -52.8312 N.am      18 UNK        -0.5000 
    100 CA        -6.1835  -24.8200  -52.9612 C.3       18 UNK         0.1400 
    101 CB        -7.3120  -24.5620  -53.9769 C.3       18 UNK        -0.1800 
    102 C         -4.9569  -23.9314  -53.2524 C.2       18 UNK         0.5000 
    103 O         -4.8973  -22.8168  -52.7355 O.2       18 UNK        -0.5000 
    104 N         -3.9974  -24.4379  -54.0384 N.am      19 UNK        -0.5000 
    105 CA        -2.7306  -23.8168  -54.4254 C.3       19 UNK         0.1400 
    106 CB        -1.7648  -23.7651  -53.2221 C.3       19 UNK        -0.1800 
    107 C         -2.9461  -22.4620  -55.1290 C.2       19 UNK         0.5000 
    108 O         -3.4179  -22.4489  -56.2672 O.2       19 UNK        -0.5000 
    109 N         -2.6096  -21.3583  -54.4523 N.am      20 UNK        -0.5000 
    110 CA        -2.7747  -19.9914  -54.9427 C.3       20 UNK         0.1400 
    111 CB        -1.5671  -19.1600  -54.4746 C.3       20 UNK        -0.1800 
    112 C         -4.0874  -19.3504  -54.4539 C.2       20 UNK         0.5000 
    113 O         -4.3401  -18.1923  -54.7883 O.2       20 UNK        -0.5000 
    114 N         -4.8702  -20.0689  -53.6320 N.am      21 UNK        -0.5000 
    115 CA        -6.0720  -19.6088  -52.9266 C.3       21 UNK         0.1400 
    116 CB        -7.2246  -19.3561  -53.9199 C.3       21 UNK        -0.1800 
    117 C         -5.7852  -18.4021  -52.0047 C.2       21 UNK         0.5000 
    118 O         -6.6193  -17.5039  -51.8807 O.2       21 UNK        -0.5000 
    119 N         -4.5880  -18.3973  -51.4005 N.am      22 UNK        -0.5000 
    120 CA        -3.9997  -17.2842  -50.6358 C.3       22 UNK         0.1400 
    121 C         -3.5383  -16.0760  -51.5103 C.2       22 UNK         0.5000 
    122 N         -3.5361  -16.1542  -52.8363 N.am      22 UNK        -0.7600 
    123 O         -3.1459  -15.0429  -50.9812 O.2       22 UNK        -0.5000 
    124 C124       -4.8722  -16.8429  -49.4192 C.3       23 UNK        -0.0398 
    125 S125       -3.9114  -16.6516  -47.8772 S.3       23 UNK        -0.2404 
    126 C126       -5.2147  -16.9772  -46.6495 C.3       23 UNK        -0.0205 
    127 H127        2.0609  -12.6131  -39.6323 H         1 UNK         0.0600 
    128 H128        1.2041  -11.1845  -40.2187 H         1 UNK         0.0600 
    129 H129        2.8662  -11.4896  -40.7326 H         1 UNK         0.0600 
    130 H130       -0.2691  -11.6736  -41.7966 H         1 UNK         0.3000 
    131 H131       -1.3348  -12.5110  -43.5363 H         1 UNK         0.0600 
    132 H132       -1.3543  -14.9677  -43.9687 H         1 UNK         0.0800 
    133 H133        0.0226  -15.1877  -42.9299 H         1 UNK         0.0800 
    134 H134       -3.6654  -13.8072  -43.0749 H         1 UNK         0.0800 
    135 H135       -4.3443  -14.5601  -41.6535 H         1 UNK         0.0800 
    136 H136       -4.4324  -14.9358  -45.0242 H         1 UNK         0.1150 
    137 H137       -4.8295  -19.1993  -45.1256 H         1 UNK         0.1150 
    138 H138       -3.4798  -17.2632  -41.5494 H         1 UNK         0.1150 
    139 H139       -4.4762  -19.6331  -41.5670 H         1 UNK         0.0800 
    140 H140       -4.5802  -20.4876  -43.0818 H         1 UNK         0.0800 
    141 H141       -2.9417  -22.2438  -43.4625 H         1 UNK         0.0800 
    142 H142       -1.2113  -22.1112  -43.3460 H         1 UNK         0.0800 
    143 H143       -3.0099  -20.5538  -45.2592 H         1 UNK         0.0600 
    144 H144       -0.3495  -19.8659  -44.5371 H         1 UNK         0.3000 
    145 H145        0.5133  -18.2620  -47.6243 H         1 UNK         0.0600 
    146 H146        1.0234  -16.4307  -46.0375 H         1 UNK         0.0600 
    147 H147       -0.6998  -16.5341  -46.3518 H         1 UNK         0.0600 
    148 H148       -0.0582  -17.1335  -44.8349 H         1 UNK         0.0600 
    149 H149        1.8476  -18.7792  -45.0985 H         1 UNK         0.3000 
    150 H150        3.1794  -21.9374  -46.0112 H         1 UNK         0.0600 
    151 H151        4.7796  -20.5011  -47.2061 H         1 UNK         0.0600 
    152 H152        5.3803  -20.8656  -45.5961 H         1 UNK         0.0600 
    153 H153        4.6967  -19.2812  -45.9483 H         1 UNK         0.0600 
    154 H154        3.5340  -20.0469  -43.8265 H         1 UNK         0.3000 
    155 H155        0.8041  -21.2449  -41.9165 H         1 UNK         0.0600 
    156 H156        3.7194  -22.0789  -41.4664 H         1 UNK         0.0600 
    157 H157        2.3480  -23.1778  -41.5563 H         1 UNK         0.0600 
    158 H158        2.4530  -22.0216  -40.2389 H         1 UNK         0.0600 
    159 H159        3.0462  -19.7158  -41.1091 H         1 UNK         0.3000 
    160 H160        1.4447  -16.8264  -41.1163 H         1 UNK         0.0600 
    161 H161        4.2973  -17.9602  -41.1034 H         1 UNK         0.0600 
    162 H162        3.1317  -18.0935  -39.7817 H         1 UNK         0.0600 
    163 H163        3.7482  -16.5236  -40.2518 H         1 UNK         0.0600 
    164 H164        2.4267  -15.4221  -42.5459 H         1 UNK         0.3000 
    165 H165        3.0493  -14.7203  -44.5934 H         1 UNK         0.0600 
    166 H166        5.4444  -14.0329  -44.8084 H         1 UNK         0.0600 
    167 H167        5.1017  -14.5571  -43.1680 H         1 UNK         0.0600 
    168 H168        5.9671  -15.6281  -44.2661 H         1 UNK         0.0600 
    169 H169        4.0098  -16.9555  -46.1328 H         1 UNK         0.3000 
    170 H170        4.7060  -15.4578  -49.0316 H         1 UNK         0.0600 
    171 H171        4.9549  -17.6867  -47.9024 H         1 UNK         0.0600 
    172 H172        3.2025  -17.9096  -47.9646 H         1 UNK         0.0600 
    173 H173        4.1427  -17.8415  -49.4454 H         1 UNK         0.0600 
    174 H174        1.8139  -15.3395  -48.6751 H         1 UNK         0.3000 
    175 H175        1.3043  -14.8537  -52.1752 H         1 UNK         0.0600 
    176 H176       -0.6662  -16.2315  -51.8054 H         1 UNK         0.0600 
    177 H177        0.7551  -17.2511  -51.7133 H         1 UNK         0.0600 
    178 H178       -0.0737  -16.7808  -50.2376 H         1 UNK         0.0600 
    179 H179        0.3508  -13.2257  -51.0950 H         1 UNK         0.3000 
    180 H180       -0.5017  -11.8641  -49.6526 H         1 UNK         0.0600 
    181 H181       -2.4480  -13.5342  -47.9682 H         1 UNK         0.0600 
    182 H182       -2.6985  -12.9363  -49.6044 H         1 UNK         0.0600 
    183 H183       -2.6278  -11.8046  -48.2702 H         1 UNK         0.0600 
    184 H184       -0.6038  -12.2907  -46.7807 H         1 UNK         0.3000 
    185 H185        2.5924  -11.8491  -45.9393 H         1 UNK         0.0600 
    186 H186        2.6829   -9.4776  -46.7094 H         1 UNK         0.0600 
    187 H187        1.0734   -9.1923  -46.0588 H         1 UNK         0.0600 
    188 H188        2.4161   -9.5713  -44.9781 H         1 UNK         0.0600 
    189 H189        0.4390  -10.9232  -44.3935 H         1 UNK         0.3000 
    190 H190        0.0633  -22.3853  -45.6647 H         1 UNK         0.3000 
    191 H191       -1.0097  -24.6346  -46.9723 H         1 UNK         0.0600 
    192 H192        1.7450  -23.3536  -47.3640 H         1 UNK         0.0600 
    193 H193        1.3005  -25.0033  -47.7741 H         1 UNK         0.0600 
    194 H194        1.3202  -24.4965  -46.0911 H         1 UNK         0.0600 
    195 H195        0.1331  -21.5305  -48.3616 H         1 UNK         0.3000 
    196 H196       -0.4460  -22.0859  -51.0769 H         1 UNK         0.0600 
    197 H197       -0.1844  -19.6403  -51.3625 H         1 UNK         0.0600 
    198 H198        1.0677  -20.2648  -50.3042 H         1 UNK         0.0600 
    199 H199       -0.3083  -19.3949  -49.6278 H         1 UNK         0.0600 
    200 H200       -2.7399  -21.8670  -48.6100 H         1 UNK         0.3000 
    201 H201       -4.9106  -21.1751  -50.5423 H         1 UNK         0.0600 
    202 H202       -4.5876  -19.5945  -48.5598 H         1 UNK         0.0600 
    203 H203       -4.9428  -20.9381  -47.4873 H         1 UNK         0.0600 
    204 H204       -6.1684  -20.3655  -48.6153 H         1 UNK         0.0600 
    205 H205       -3.3799  -23.8052  -49.1035 H         1 UNK         0.3000 
    206 H206       -5.9318  -25.3398  -48.7305 H         1 UNK         0.0600 
    207 H207       -4.9974  -24.6159  -46.5483 H         1 UNK         0.0600 
    208 H208       -4.8745  -26.3585  -46.7364 H         1 UNK         0.0600 
    209 H209       -3.4469  -25.3509  -46.9480 H         1 UNK         0.0600 
    210 H210       -2.5286  -25.4788  -49.8255 H         1 UNK         0.3000 
    211 H211       -2.4448  -28.3410  -50.0680 H         1 UNK         0.0600 
    212 H212       -0.2726  -27.8550  -51.2006 H         1 UNK         0.0600 
    213 H213       -0.6478  -26.1358  -51.1958 H         1 UNK         0.0600 
    214 H214       -0.4272  -26.9947  -49.6762 H         1 UNK         0.0600 
    215 H215       -4.5148  -28.5373  -51.1694 H         1 UNK         0.3000 
    216 H216       -5.8932  -28.9989  -52.8541 H         1 UNK         0.0600 
    217 H217       -5.0750  -29.6151  -55.0951 H         1 UNK         0.0600 
    218 H218       -4.0467  -30.3495  -53.8752 H         1 UNK         0.0600 
    219 H219       -3.4916  -28.9313  -54.7626 H         1 UNK         0.0600 
    220 H220       -5.8765  -26.5907  -51.8795 H         1 UNK         0.3000 
    221 H221       -6.5546  -24.5150  -51.9813 H         1 UNK         0.0600 
    222 H222       -7.0065  -24.7931  -54.9975 H         1 UNK         0.0600 
    223 H223       -8.1950  -25.1576  -53.7458 H         1 UNK         0.0600 
    224 H224       -7.6127  -23.5136  -53.9602 H         1 UNK         0.0600 
    225 H225       -4.1827  -25.3454  -54.4524 H         1 UNK         0.3000 
    226 H226       -2.2804  -24.4726  -55.1720 H         1 UNK         0.0600 
    227 H227       -1.4562  -24.7690  -52.9374 H         1 UNK         0.0600 
    228 H228       -0.8550  -23.2111  -53.4566 H         1 UNK         0.0600 
    229 H229       -2.2255  -23.3130  -52.3468 H         1 UNK         0.0600 
    230 H230       -2.3321  -21.4416  -53.4806 H         1 UNK         0.3000 
    231 H231       -2.7909  -19.9825  -56.0343 H         1 UNK         0.0600 
    232 H232       -0.6283  -19.6070  -54.8019 H         1 UNK         0.0600 
    233 H233       -1.5353  -19.0697  -53.3884 H         1 UNK         0.0600 
    234 H234       -1.6036  -18.1496  -54.8836 H         1 UNK         0.0600 
    235 H235       -4.5724  -21.0102  -53.3876 H         1 UNK         0.3000 
    236 H236       -6.3781  -20.4272  -52.2742 H         1 UNK         0.0600 
    237 H237       -7.0192  -18.5080  -54.5736 H         1 UNK         0.0600 
    238 H238       -7.4002  -20.2296  -54.5478 H         1 UNK         0.0600 
    239 H239       -8.1553  -19.1443  -53.3925 H         1 UNK         0.0600 
    240 H240       -3.9648  -19.1812  -51.5714 H         1 UNK         0.3000 
    241 H241       -3.0710  -17.7072  -50.2504 H         1 UNK         0.0600 
    242 H242       -3.8801  -16.9700  -53.3305 H         1 UNK         0.3800 
    243 H243       -3.2264  -15.3553  -53.3651 H         1 UNK         0.3800 
    244 H244       -5.6520  -17.5807  -49.2313 H         1 UNK         0.0800 
    245 H245       -5.4082  -15.9140  -49.6223 H         1 UNK         0.0800 
    246 H246       -5.9653  -16.1876  -46.7066 H         1 UNK         0.0800 
    247 H247       -5.7272  -17.9062  -46.9035 H         1 UNK         0.0800 
@<TRIPOS>BOND
     1    1    2 1    
     2    1  127 1    
     3    1  128 1    
     4    1  129 1    
     5    2    3 2    
     6    2    4 am   BACKBONE|DICT|INTERRES
     7    4    5 1    
     8    4  130 1    
     9    5    6 1    
    10    5   65 1    
    11    5  131 1    
    12    6    7 1    
    13    6  132 1    
    14    6  133 1    
    15    7    8 1    
    16    8    9 1    
    17    8  134 1    
    18    8  135 1    
    19    9   10 ar   
    20    9   14 ar   
    21   10   11 ar   
    22   10  136 1    
    23   11   12 ar   
    24   11  126 1    
    25   12   13 ar   
    26   12  137 1    
    27   13   14 ar   
    28   13   15 1    
    29   14  138 1    
    30   15   16 1    
    31   15  139 1    
    32   15  140 1    
    33   16   17 1    
    34   17   18 1    
    35   17  141 1    
    36   17  142 1    
    37   18   19 1    
    38   18   67 1    
    39   18  143 1    
    40   19   20 am   BACKBONE|DICT|INTERRES
    41   19  144 1    
    42   20   21 2    
    43   20   22 1    
    44   22   23 1    
    45   22   24 1    
    46   22  145 1    
    47   23  146 1    
    48   23  147 1    
    49   23  148 1    
    50   24   25 am   BACKBONE|DICT|INTERRES
    51   24  149 1    
    52   25   26 2    
    53   25   27 1    
    54   27   28 1    
    55   27   29 1    
    56   27  150 1    
    57   28  151 1    
    58   28  152 1    
    59   28  153 1    
    60   29   30 am   BACKBONE|DICT|INTERRES
    61   29  154 1    
    62   30   31 2    
    63   30   32 1    
    64   32   33 1    
    65   32   34 1    
    66   32  155 1    
    67   33  156 1    
    68   33  157 1    
    69   33  158 1    
    70   34   35 am   BACKBONE|DICT|INTERRES
    71   34  159 1    
    72   35   36 2    
    73   35   37 1    
    74   37   38 1    
    75   37   39 1    
    76   37  160 1    
    77   38  161 1    
    78   38  162 1    
    79   38  163 1    
    80   39   40 am   BACKBONE|DICT|INTERRES
    81   39  164 1    
    82   40   41 2    
    83   40   42 1    
    84   42   43 1    
    85   42   44 1    
    86   42  165 1    
    87   43  166 1    
    88   43  167 1    
    89   43  168 1    
    90   44   45 am   BACKBONE|DICT|INTERRES
    91   44  169 1    
    92   45   46 2    
    93   45   47 1    
    94   47   48 1    
    95   47   49 1    
    96   47  170 1    
    97   48  171 1    
    98   48  172 1    
    99   48  173 1    
   100   49   50 am   BACKBONE|DICT|INTERRES
   101   49  174 1    
   102   50   51 2    
   103   50   52 1    
   104   52   53 1    
   105   52   54 1    
   106   52  175 1    
   107   53  176 1    
   108   53  177 1    
   109   53  178 1    
   110   54   55 am   BACKBONE|DICT|INTERRES
   111   54  179 1    
   112   55   56 2    
   113   55   57 1    
   114   57   58 1    
   115   57   59 1    
   116   57  180 1    
   117   58  181 1    
   118   58  182 1    
   119   58  183 1    
   120   59   60 am   BACKBONE|DICT|INTERRES
   121   59  184 1    
   122   60   61 2    
   123   60   62 1    
   124   62   63 1    
   125   62   64 1    
   126   62  185 1    
   127   63  186 1    
   128   63  187 1    
   129   63  188 1    
   130   64   65 am   BACKBONE|DICT|INTERRES
   131   64  189 1    
   132   65   66 2    
   133   67   68 2    
   134   67   69 am   BACKBONE|DICT|INTERRES
   135   69   70 1    
   136   69  190 1    
   137   70   71 1    
   138   70   72 1    
   139   70  191 1    
   140   71  192 1    
   141   71  193 1    
   142   71  194 1    
   143   72   73 2    
   144   72   74 am   BACKBONE|DICT|INTERRES
   145   74   75 1    
   146   74  195 1    
   147   75   76 1    
   148   75   77 1    
   149   75  196 1    
   150   76  197 1    
   151   76  198 1    
   152   76  199 1    
   153   77   78 2    
   154   77   79 am   BACKBONE|DICT|INTERRES
   155   79   80 1    
   156   79  200 1    
   157   80   81 1    
   158   80   82 1    
   159   80  201 1    
   160   81  202 1    
   161   81  203 1    
   162   81  204 1    
   163   82   83 2    
   164   82   84 am   BACKBONE|DICT|INTERRES
   165   84   85 1    
   166   84  205 1    
   167   85   86 1    
   168   85   87 1    
   169   85  206 1    
   170   86  207 1    
   171   86  208 1    
   172   86  209 1    
   173   87   88 2    
   174   87   89 am   BACKBONE|DICT|INTERRES
   175   89   90 1    
   176   89  210 1    
   177   90   91 1    
   178   90   92 1    
   179   90  211 1    
   180   91  212 1    
   181   91  213 1    
   182   91  214 1    
   183   92   93 2    
   184   92   94 am   BACKBONE|DICT|INTERRES
   185   94   95 1    
   186   94  215 1    
   187   95   96 1    
   188   95   97 1    
   189   95  216 1    
   190   96  217 1    
   191   96  218 1    
   192   96  219 1    
   193   97   98 2    
   194   97   99 am   BACKBONE|DICT|INTERRES
   195   99  100 1    
   196   99  220 1    
   197  100  101 1    
   198  100  102 1    
   199  100  221 1    
   200  101  222 1    
   201  101  223 1    
   202  101  224 1    
   203  102  103 2    
   204  102  104 am   BACKBONE|DICT|INTERRES
   205  104  105 1    
   206  104  225 1    
   207  105  106 1    
   208  105  107 1    
   209  105  226 1    
   210  106  227 1    
   211  106  228 1    
   212  106  229 1    
   213  107  108 2    
   214  107  109 am   BACKBONE|DICT|INTERRES
   215  109  110 1    
   216  109  230 1    
   217  110  111 1    
   218  110  112 1    
   219  110  231 1    
   220  111  232 1    
   221  111  233 1    
   222  111  234 1    
   223  112  113 2    
   224  112  114 am   BACKBONE|DICT|INTERRES
   225  114  115 1    
   226  114  235 1    
   227  115  116 1    
   228  115  117 1    
   229  115  236 1    
   230  116  237 1    
   231  116  238 1    
   232  116  239 1    
   233  117  118 2    
   234  117  119 am   BACKBONE|DICT|INTERRES
   235  119  120 1    
   236  119  240 1    
   237  120  121 1    
   238  120  124 1    
   239  120  241 1    
   240  121  122 am   BACKBONE|DICT|INTERRES
   241  121  123 2    
   242  122  242 1    
   243  122  243 1    
   244  124  125 1    
   245  124  244 1    
   246  124  245 1    
   247  125  126 1    
   248  126  246 1    
   249  126  247 1    
@<TRIPOS>SUBSTRUCTURE
     1 UNK         1 GROUP             0       ****    0 ROOT    
