@<TRIPOS>MOLECULE
3R540
247   249    1
SMALL
USER_CHARGES


@<TRIPOS>ATOM
      1 CA         -3.9551  -16.7199  -45.7350 C.3       0 UNK        -0.1800 
      2 C          -3.3040  -15.7952  -46.7532 C.2       0 UNK         0.5000 
      3 O          -3.9859  -15.2894  -47.6448 O.2       0 UNK        -0.5000 
      4 N          -1.9902  -15.5791  -46.6248 N.am      1 UNK        -0.5000 
      5 CA         -1.2015  -14.6775  -47.4710 C.3       1 UNK         0.1400 
      6 C6          0.2889  -15.1003  -47.5055 C.3       23 UNK        -0.0398 
      7 S7          0.4890  -16.7965  -48.1368 S.3       23 UNK        -0.2404 
      8 C8          1.8127  -16.6064  -49.3622 C.3       23 UNK        -0.0205 
      9 C9          2.0138  -17.9087  -50.1176 C.ar      23 UNK        -0.0193 
     10 C10         1.5100  -18.0587  -51.4118 C.ar      23 UNK        -0.1150 
     11 C11         1.6697  -19.2654  -52.0983 C.ar      23 UNK        -0.0193 
     12 C12         2.3357  -20.3279  -51.4815 C.ar      23 UNK        -0.1150 
     13 C13         2.8323  -20.1928  -50.1821 C.ar      23 UNK        -0.0193 
     14 C14         2.6785  -18.9772  -49.5101 C.ar      23 UNK        -0.1150 
     15 C15         3.5119  -21.3666  -49.4972 C.3       23 UNK        -0.0205 
     16 S16         2.2792  -22.5479  -48.8739 S.3       23 UNK        -0.2404 
     17 C17         3.3504  -23.7353  -47.9870 C.3       23 UNK        -0.0398 
     18 CA          2.6163  -24.5556  -46.8960 C.3       11 UNK         0.1400 
     19 N           2.0027  -23.6931  -45.8794 N.am      11 UNK        -0.5000 
     20 C           1.3670  -24.1148  -44.7757 C.2       10 UNK         0.5000 
     21 O           1.4282  -25.2761  -44.3689 O.2       10 UNK        -0.5000 
     22 CA          0.4843  -23.1011  -44.0122 C.3       10 UNK         0.1400 
     23 CB          0.9764  -22.9338  -42.5654 C.3       10 UNK        -0.1800 
     24 N           0.3677  -21.7735  -44.6223 N.am      10 UNK        -0.5000 
     25 C          -0.1200  -21.4714  -45.8342 C.2       9 UNK         0.5000 
     26 O          -0.5565  -22.3056  -46.6272 O.2       9 UNK        -0.5000 
     27 CA         -0.0762  -19.9884  -46.2474 C.3       9 UNK         0.1400 
     28 CB         -1.4592  -19.3526  -46.0618 C.3       9 UNK        -0.1800 
     29 N           0.9169  -19.1903  -45.5216 N.am      9 UNK        -0.5000 
     30 C           2.2458  -19.3624  -45.5906 C.2       8 UNK         0.5000 
     31 O           2.7935  -20.2476  -46.2462 O.2       8 UNK        -0.5000 
     32 CA          3.1025  -18.4085  -44.7429 C.3       8 UNK         0.1400 
     33 CB          3.2458  -17.0400  -45.4253 C.3       8 UNK        -0.1800 
     34 N           2.5318  -18.2400  -43.4068 N.am      8 UNK        -0.5000 
     35 C           2.6594  -19.1420  -42.4225 C.2       7 UNK         0.5000 
     36 O           3.3573  -20.1519  -42.5095 O.2       7 UNK        -0.5000 
     37 CA          1.8625  -18.8891  -41.1277 C.3       7 UNK         0.1400 
     38 CB          2.7252  -18.1363  -40.1037 C.3       7 UNK        -0.1800 
     39 N           0.6214  -18.1441  -41.3456 N.am      7 UNK        -0.5000 
     40 C          -0.4376  -18.5974  -42.0321 C.2       6 UNK         0.5000 
     41 O          -0.4959  -19.7182  -42.5346 O.2       6 UNK        -0.5000 
     42 CA         -1.6068  -17.6139  -42.2301 C.3       6 UNK         0.1400 
     43 CB         -2.6553  -17.7851  -41.1222 C.3       6 UNK        -0.1800 
     44 N          -1.1736  -16.2150  -42.2737 N.am      6 UNK        -0.5000 
     45 C          -0.3901  -15.6839  -43.2198 C.2       5 UNK         0.5000 
     46 O          -0.0299  -16.2996  -44.2264 O.2       5 UNK        -0.5000 
     47 CA          0.0555  -14.2302  -42.9774 C.3       5 UNK         0.1400 
     48 CB          1.2638  -13.8110  -43.8296 C.3       5 UNK        -0.1800 
     49 N          -1.0425  -13.2997  -43.2133 N.am      5 UNK        -0.5000 
     50 C          -2.0250  -13.0260  -42.3476 C.2       4 UNK         0.5000 
     51 O          -2.1110  -13.5486  -41.2337 O.2       4 UNK        -0.5000 
     52 CA         -3.0765  -11.9991  -42.8183 C.3       4 UNK         0.1400 
     53 CB         -3.9643  -11.4722  -41.6714 C.3       4 UNK        -0.1800 
     54 N          -2.4918  -10.8883  -43.5810 N.am      4 UNK        -0.5000 
     55 C          -1.5834   -9.9915  -43.1615 C.2       3 UNK         0.5000 
     56 O          -1.1193   -9.9666  -42.0203 O.2       3 UNK        -0.5000 
     57 CA         -1.1377   -8.9330  -44.1976 C.3       3 UNK         0.1400 
     58 CB          0.2395   -8.3122  -43.8783 C.3       3 UNK        -0.1800 
     59 N          -1.2004   -9.4193  -45.5833 N.am      3 UNK        -0.5000 
     60 C          -0.4628  -10.3966  -46.1297 C.2       2 UNK         0.5000 
     61 O           0.4733  -10.9642  -45.5635 O.2       2 UNK        -0.5000 
     62 CA         -0.8652  -10.8220  -47.5570 C.3       2 UNK         0.1400 
     63 CB          0.0279  -10.1241  -48.5940 C.3       2 UNK        -0.1800 
     64 N          -0.8118  -12.2715  -47.7820 N.am      2 UNK        -0.5000 
     65 C          -1.3776  -13.2121  -47.0102 C.2       1 UNK         0.5000 
     66 O          -2.0146  -12.9556  -45.9833 O.2       1 UNK        -0.5000 
     67 C           1.6061  -25.5532  -47.5161 C.2       11 UNK         0.5000 
     68 O           1.9981  -26.6640  -47.8771 O.2       11 UNK        -0.5000 
     69 N           0.3275  -25.1568  -47.5789 N.am      12 UNK        -0.5000 
     70 CA         -0.8133  -26.0235  -47.8383 C.3       12 UNK         0.1400 
     71 CB         -1.6493  -25.4197  -48.9762 C.3       12 UNK        -0.1800 
     72 C          -1.6323  -26.0971  -46.5424 C.2       12 UNK         0.5000 
     73 O          -1.9064  -25.0564  -45.9421 O.2       12 UNK        -0.5000 
     74 N          -2.0351  -27.3085  -46.1385 N.am      13 UNK        -0.5000 
     75 CA         -2.7370  -27.5737  -44.8747 C.3       13 UNK         0.1400 
     76 CB         -2.8980  -29.0915  -44.6996 C.3       13 UNK        -0.1800 
     77 C          -4.1031  -26.8691  -44.7426 C.2       13 UNK         0.5000 
     78 O          -4.5100  -26.5350  -43.6295 O.2       13 UNK        -0.5000 
     79 N          -4.7682  -26.6435  -45.8818 N.am      14 UNK        -0.5000 
     80 CA         -6.0457  -25.9375  -45.9917 C.3       14 UNK         0.1400 
     81 CB         -6.9512  -26.7369  -46.9459 C.3       14 UNK        -0.1800 
     82 C          -5.8778  -24.4833  -46.4828 C.2       14 UNK         0.5000 
     83 O          -6.8836  -23.8437  -46.7917 O.2       14 UNK        -0.5000 
     84 N          -4.6279  -23.9983  -46.5973 N.am      15 UNK        -0.5000 
     85 CA         -4.2221  -22.7055  -47.1749 C.3       15 UNK         0.1400 
     86 CB         -4.7692  -21.5233  -46.3467 C.3       15 UNK        -0.1800 
     87 C          -4.5415  -22.5736  -48.6824 C.2       15 UNK         0.5000 
     88 O          -4.5985  -21.4608  -49.2089 O.2       15 UNK        -0.5000 
     89 N          -4.7311  -23.7187  -49.3553 N.am      16 UNK        -0.5000 
     90 CA         -5.1779  -23.8395  -50.7432 C.3       16 UNK         0.1400 
     91 CB         -5.3684  -25.3254  -51.0819 C.3       16 UNK        -0.1800 
     92 C          -4.2471  -23.1673  -51.7657 C.2       16 UNK         0.5000 
     93 O          -4.7382  -22.5761  -52.7252 O.2       16 UNK        -0.5000 
     94 N          -2.9296  -23.2395  -51.5287 N.am      17 UNK        -0.5000 
     95 CA         -1.9055  -22.6074  -52.3626 C.3       17 UNK         0.1400 
     96 CB         -0.5118  -23.0506  -51.8902 C.3       17 UNK        -0.1800 
     97 C          -2.0181  -21.0735  -52.3645 C.2       17 UNK         0.5000 
     98 O          -1.9659  -20.4588  -53.4308 O.2       17 UNK        -0.5000 
     99 N          -2.2117  -20.4961  -51.1710 N.am      18 UNK        -0.5000 
    100 CA        -2.4065  -19.0633  -50.9640 C.3       18 UNK         0.1400 
    101 CB        -2.2808  -18.7396  -49.4696 C.3       18 UNK        -0.1800 
    102 C         -3.7568  -18.5834  -51.5191 C.2       18 UNK         0.5000 
    103 O         -3.8045  -17.5396  -52.1692 O.2       18 UNK        -0.5000 
    104 N         -4.8162  -19.3776  -51.3029 N.am      19 UNK        -0.5000 
    105 CA        -6.1635  -19.1350  -51.8266 C.3       19 UNK         0.1400 
    106 CB        -7.1342  -20.1666  -51.2335 C.3       19 UNK        -0.1800 
    107 C         -6.2244  -19.1484  -53.3674 C.2       19 UNK         0.5000 
    108 O         -6.9406  -18.3382  -53.9561 O.2       19 UNK        -0.5000 
    109 N         -5.4398  -20.0376  -53.9903 N.am      20 UNK        -0.5000 
    110 CA        -5.2497  -20.1309  -55.4387 C.3       20 UNK         0.1400 
    111 CB        -4.7637  -21.5495  -55.7793 C.3       20 UNK        -0.1800 
    112 C         -4.2673  -19.0826  -56.0017 C.2       20 UNK         0.5000 
    113 O         -4.0685  -19.0497  -57.2174 O.2       20 UNK        -0.5000 
    114 N         -3.6375  -18.2794  -55.1288 N.am      21 UNK        -0.5000 
    115 CA        -2.6211  -17.2624  -55.4266 C.3       21 UNK         0.1400 
    116 CB        -3.2608  -16.0598  -56.1500 C.3       21 UNK        -0.1800 
    117 C         -1.3975  -17.8373  -56.1734 C.2       21 UNK         0.5000 
    118 O         -0.8549  -17.1891  -57.0699 O.2       21 UNK        -0.5000 
    119 N         -1.0156  -19.0652  -55.7988 N.am      22 UNK        -0.5000 
    120 CA         0.0329  -19.8966  -56.4120 C.3       22 UNK         0.1400 
    121 C         -0.3334  -20.4436  -57.8287 C.2       22 UNK         0.5000 
    122 N         -1.5637  -20.3069  -58.3117 N.am      22 UNK        -0.7600 
    123 O          0.5065  -21.0408  -58.4967 O.2       22 UNK        -0.5000 
    124 C124        1.4541  -19.2507  -56.3832 C.3       23 UNK        -0.0398 
    125 S125        2.1795  -18.7510  -54.7705 S.3       23 UNK        -0.2404 
    126 C126        1.0839  -19.4312  -53.4880 C.3       23 UNK        -0.0205 
    127 H127       -4.8495  -16.2548  -45.3205 H         1 UNK         0.0600 
    128 H128       -4.2429  -17.6582  -46.2094 H         1 UNK         0.0600 
    129 H129       -3.2801  -16.9447  -44.9110 H         1 UNK         0.0600 
    130 H130       -1.4778  -16.0012  -45.8605 H         1 UNK         0.3000 
    131 H131       -1.5867  -14.7365  -48.4914 H         1 UNK         0.0600 
    132 H132        0.7244  -15.0685  -46.5100 H         1 UNK         0.0800 
    133 H133        0.8780  -14.4193  -48.1209 H         1 UNK         0.0800 
    134 H134        2.7380  -16.3196  -48.8605 H         1 UNK         0.0800 
    135 H135        1.5625  -15.7991  -50.0522 H         1 UNK         0.0800 
    136 H136        0.9839  -17.2405  -51.8833 H         1 UNK         0.1150 
    137 H137        2.4492  -21.2687  -52.0015 H         1 UNK         0.1150 
    138 H138        3.0534  -18.8679  -48.5029 H         1 UNK         0.1150 
    139 H139        4.1808  -21.8698  -50.1968 H         1 UNK         0.0800 
    140 H140        4.1294  -21.0141  -48.6694 H         1 UNK         0.0800 
    141 H141        3.8185  -24.3980  -48.7171 H         1 UNK         0.0800 
    142 H142        4.1679  -23.1831  -47.5215 H         1 UNK         0.0800 
    143 H143        3.3674  -25.1574  -46.3805 H         1 UNK         0.0600 
    144 H144        1.9066  -22.7200  -46.1383 H         1 UNK         0.3000 
    145 H145       -0.5206  -23.5265  -43.9821 H         1 UNK         0.0600 
    146 H146        1.9781  -22.5050  -42.5321 H         1 UNK         0.0600 
    147 H147        0.3130  -22.2857  -41.9928 H         1 UNK         0.0600 
    148 H148        1.0131  -23.8930  -42.0476 H         1 UNK         0.0600 
    149 H149        0.6391  -20.9957  -44.0350 H         1 UNK         0.3000 
    150 H150        0.1838  -19.9526  -47.3076 H         1 UNK         0.0600 
    151 H151       -1.4620  -18.3151  -46.3893 H         1 UNK         0.0600 
    152 H152       -1.7824  -19.3832  -45.0216 H         1 UNK         0.0600 
    153 H153       -2.2052  -19.8810  -46.6532 H         1 UNK         0.0600 
    154 H154        0.5603  -18.4202  -44.9715 H         1 UNK         0.3000 
    155 H155        4.1008  -18.8424  -44.6525 H         1 UNK         0.0600 
    156 H156        3.6715  -17.1453  -46.4239 H         1 UNK         0.0600 
    157 H157        3.9037  -16.3826  -44.8571 H         1 UNK         0.0600 
    158 H158        2.2845  -16.5402  -45.5322 H         1 UNK         0.0600 
    159 H159        1.9181  -17.4501  -43.2701 H         1 UNK         0.3000 
    160 H160        1.6012  -19.8627  -40.7073 H         1 UNK         0.0600 
    161 H161        3.0000  -17.1430  -40.4608 H         1 UNK         0.0600 
    162 H162        3.6493  -18.6785  -39.8981 H         1 UNK         0.0600 
    163 H163        2.2009  -18.0201  -39.1550 H         1 UNK         0.0600 
    164 H164        0.5770  -17.2134  -40.9583 H         1 UNK         0.3000 
    165 H165       -2.0763  -17.8551  -43.1837 H         1 UNK         0.0600 
    166 H166       -2.2488  -17.5376  -40.1408 H         1 UNK         0.0600 
    167 H167       -3.5214  -17.1467  -41.2979 H         1 UNK         0.0600 
    168 H168       -3.0141  -18.8145  -41.0800 H         1 UNK         0.0600 
    169 H169       -1.4829  -15.6124  -41.5196 H         1 UNK         0.3000 
    170 H170        0.3652  -14.1603  -41.9324 H         1 UNK         0.0600 
    171 H171        2.0569  -14.5588  -43.7980 H         1 UNK         0.0600 
    172 H172        0.9898  -13.6514  -44.8700 H         1 UNK         0.0600 
    173 H173        1.6862  -12.8749  -43.4638 H         1 UNK         0.0600 
    174 H174       -1.0977  -12.8864  -44.1382 H         1 UNK         0.3000 
    175 H175       -3.7244  -12.5349  -43.5137 H         1 UNK         0.0600 
    176 H176       -4.7069  -10.7649  -42.0407 H         1 UNK         0.0600 
    177 H177       -4.5059  -12.2877  -41.1907 H         1 UNK         0.0600 
    178 H178       -3.3776  -10.9716  -40.9007 H         1 UNK         0.0600 
    179 H179       -2.7689  -10.8472  -44.5518 H         1 UNK         0.3000 
    180 H180       -1.8736   -8.1305  -44.1311 H         1 UNK         0.0600 
    181 H181        0.5285   -7.5821  -44.6341 H         1 UNK         0.0600 
    182 H182        0.2198   -7.7936  -42.9191 H         1 UNK         0.0600 
    183 H183        1.0242   -9.0669  -43.8216 H         1 UNK         0.0600 
    184 H184       -1.9342   -9.0086  -46.1445 H         1 UNK         0.3000 
    185 H185       -1.8981  -10.5138  -47.7304 H         1 UNK         0.0600 
    186 H186       -0.2963  -10.3466  -49.6108 H         1 UNK         0.0600 
    187 H187       -0.0056   -9.0403  -48.4742 H         1 UNK         0.0600 
    188 H188        1.0698  -10.4323  -48.4973 H         1 UNK         0.0600 
    189 H189       -0.3023  -12.5619  -48.6031 H         1 UNK         0.3000 
    190 H190        0.0904  -24.2359  -47.2196 H         1 UNK         0.3000 
    191 H191       -0.4934  -27.0274  -48.1246 H         1 UNK         0.0600 
    192 H192       -2.5519  -26.0049  -49.1552 H         1 UNK         0.0600 
    193 H193       -1.0810  -25.4031  -49.9060 H         1 UNK         0.0600 
    194 H194       -1.9489  -24.3964  -48.7485 H         1 UNK         0.0600 
    195 H195       -1.7849  -28.1182  -46.6881 H         1 UNK         0.3000 
    196 H196       -2.1043  -27.2034  -44.0652 H         1 UNK         0.0600 
    197 H197       -3.3938  -29.3261  -43.7566 H         1 UNK         0.0600 
    198 H198       -1.9301  -29.5930  -44.6885 H         1 UNK         0.0600 
    199 H199       -3.4947  -29.5280  -45.5015 H         1 UNK         0.0600 
    200 H200       -4.3543  -26.9679  -46.7434 H         1 UNK         0.3000 
    201 H201       -6.5385  -25.8914  -45.0185 H         1 UNK         0.0600 
    202 H202       -7.0849  -27.7605  -46.5954 H         1 UNK         0.0600 
    203 H203       -6.5376  -26.7792  -47.9542 H         1 UNK         0.0600 
    204 H204       -7.9440  -26.2905  -47.0162 H         1 UNK         0.0600 
    205 H205       -3.8568  -24.5742  -46.2741 H         1 UNK         0.3000 
    206 H206       -3.1350  -22.6747  -47.1038 H         1 UNK         0.0600 
    207 H207       -4.4570  -21.5968  -45.3051 H         1 UNK         0.0600 
    208 H208       -4.4038  -20.5698  -46.7273 H         1 UNK         0.0600 
    209 H209       -5.8576  -21.4758  -46.3701 H         1 UNK         0.0600 
    210 H210       -4.6690  -24.5772  -48.8315 H         1 UNK         0.3000 
    211 H211       -6.1506  -23.3496  -50.8139 H         1 UNK         0.0600 
    212 H212       -5.7260  -25.4494  -52.1050 H         1 UNK         0.0600 
    213 H213       -6.1044  -25.7890  -50.4248 H         1 UNK         0.0600 
    214 H214       -4.4360  -25.8837  -50.9906 H         1 UNK         0.0600 
    215 H215       -2.6139  -23.7417  -50.7138 H         1 UNK         0.3000 
    216 H216       -2.0451  -22.9518  -53.3895 H         1 UNK         0.0600 
    217 H217        0.2699  -22.5980  -52.5009 H         1 UNK         0.0600 
    218 H218       -0.3942  -24.1313  -51.9680 H         1 UNK         0.0600 
    219 H219       -0.3231  -22.7658  -50.8540 H         1 UNK         0.0600 
    220 H220       -2.2999  -21.0853  -50.3567 H         1 UNK         0.3000 
    221 H221       -1.6135  -18.5320  -51.4948 H         1 UNK         0.0600 
    222 H222       -3.0563  -19.2294  -48.8804 H         1 UNK         0.0600 
    223 H223       -1.3124  -19.0571  -49.0841 H         1 UNK         0.0600 
    224 H224       -2.3645  -17.6663  -49.2941 H         1 UNK         0.0600 
    225 H225       -4.6942  -20.2008  -50.7198 H         1 UNK         0.3000 
    226 H226       -6.4736  -18.1434  -51.4909 H         1 UNK         0.0600 
    227 H227       -8.1577  -19.9673  -51.5530 H         1 UNK         0.0600 
    228 H228       -6.8841  -21.1793  -51.5485 H         1 UNK         0.0600 
    229 H229       -7.1213  -20.1417  -50.1436 H         1 UNK         0.0600 
    230 H230       -4.9374  -20.7199  -53.4305 H         1 UNK         0.3000 
    231 H231       -6.2113  -19.9729  -55.9310 H         1 UNK         0.0600 
    232 H232       -4.6517  -21.6824  -56.8560 H         1 UNK         0.0600 
    233 H233       -5.4723  -22.3023  -55.4336 H         1 UNK         0.0600 
    234 H234       -3.7977  -21.7624  -55.3195 H         1 UNK         0.0600 
    235 H235       -3.8551  -18.3883  -54.1459 H         1 UNK         0.3000 
    236 H236       -2.2491  -16.9101  -54.4635 H         1 UNK         0.0600 
    237 H237       -3.6145  -16.3280  -57.1460 H         1 UNK         0.0600 
    238 H238       -4.1082  -15.6684  -55.5871 H         1 UNK         0.0600 
    239 H239       -2.5447  -15.2453  -56.2646 H         1 UNK         0.0600 
    240 H240       -1.5273  -19.5134  -55.0425 H         1 UNK         0.3000 
    241 H241        0.0742  -20.7962  -55.7990 H         1 UNK         0.0600 
    242 H242       -1.7754  -20.6802  -59.2232 H         1 UNK         0.3800 
    243 H243       -2.2844  -19.8110  -57.7992 H         1 UNK         0.3800 
    244 H244        1.4781  -18.3775  -57.0359 H         1 UNK         0.0800 
    245 H245        2.1741  -19.9459  -56.8177 H         1 UNK         0.0800 
    246 H246        0.1291  -18.9094  -53.5124 H         1 UNK         0.0800 
    247 H247        0.8859  -20.4848  -53.6840 H         1 UNK         0.0800 
@<TRIPOS>BOND
     1    1    2 1    
     2    1  127 1    
     3    1  128 1    
     4    1  129 1    
     5    2    3 2    
     6    2    4 am   BACKBONE|DICT|INTERRES
     7    4    5 1    
     8    4  130 1    
     9    5    6 1    
    10    5   65 1    
    11    5  131 1    
    12    6    7 1    
    13    6  132 1    
    14    6  133 1    
    15    7    8 1    
    16    8    9 1    
    17    8  134 1    
    18    8  135 1    
    19    9   10 ar   
    20    9   14 ar   
    21   10   11 ar   
    22   10  136 1    
    23   11   12 ar   
    24   11  126 1    
    25   12   13 ar   
    26   12  137 1    
    27   13   14 ar   
    28   13   15 1    
    29   14  138 1    
    30   15   16 1    
    31   15  139 1    
    32   15  140 1    
    33   16   17 1    
    34   17   18 1    
    35   17  141 1    
    36   17  142 1    
    37   18   19 1    
    38   18   67 1    
    39   18  143 1    
    40   19   20 am   BACKBONE|DICT|INTERRES
    41   19  144 1    
    42   20   21 2    
    43   20   22 1    
    44   22   23 1    
    45   22   24 1    
    46   22  145 1    
    47   23  146 1    
    48   23  147 1    
    49   23  148 1    
    50   24   25 am   BACKBONE|DICT|INTERRES
    51   24  149 1    
    52   25   26 2    
    53   25   27 1    
    54   27   28 1    
    55   27   29 1    
    56   27  150 1    
    57   28  151 1    
    58   28  152 1    
    59   28  153 1    
    60   29   30 am   BACKBONE|DICT|INTERRES
    61   29  154 1    
    62   30   31 2    
    63   30   32 1    
    64   32   33 1    
    65   32   34 1    
    66   32  155 1    
    67   33  156 1    
    68   33  157 1    
    69   33  158 1    
    70   34   35 am   BACKBONE|DICT|INTERRES
    71   34  159 1    
    72   35   36 2    
    73   35   37 1    
    74   37   38 1    
    75   37   39 1    
    76   37  160 1    
    77   38  161 1    
    78   38  162 1    
    79   38  163 1    
    80   39   40 am   BACKBONE|DICT|INTERRES
    81   39  164 1    
    82   40   41 2    
    83   40   42 1    
    84   42   43 1    
    85   42   44 1    
    86   42  165 1    
    87   43  166 1    
    88   43  167 1    
    89   43  168 1    
    90   44   45 am   BACKBONE|DICT|INTERRES
    91   44  169 1    
    92   45   46 2    
    93   45   47 1    
    94   47   48 1    
    95   47   49 1    
    96   47  170 1    
    97   48  171 1    
    98   48  172 1    
    99   48  173 1    
   100   49   50 am   BACKBONE|DICT|INTERRES
   101   49  174 1    
   102   50   51 2    
   103   50   52 1    
   104   52   53 1    
   105   52   54 1    
   106   52  175 1    
   107   53  176 1    
   108   53  177 1    
   109   53  178 1    
   110   54   55 am   BACKBONE|DICT|INTERRES
   111   54  179 1    
   112   55   56 2    
   113   55   57 1    
   114   57   58 1    
   115   57   59 1    
   116   57  180 1    
   117   58  181 1    
   118   58  182 1    
   119   58  183 1    
   120   59   60 am   BACKBONE|DICT|INTERRES
   121   59  184 1    
   122   60   61 2    
   123   60   62 1    
   124   62   63 1    
   125   62   64 1    
   126   62  185 1    
   127   63  186 1    
   128   63  187 1    
   129   63  188 1    
   130   64   65 am   BACKBONE|DICT|INTERRES
   131   64  189 1    
   132   65   66 2    
   133   67   68 2    
   134   67   69 am   BACKBONE|DICT|INTERRES
   135   69   70 1    
   136   69  190 1    
   137   70   71 1    
   138   70   72 1    
   139   70  191 1    
   140   71  192 1    
   141   71  193 1    
   142   71  194 1    
   143   72   73 2    
   144   72   74 am   BACKBONE|DICT|INTERRES
   145   74   75 1    
   146   74  195 1    
   147   75   76 1    
   148   75   77 1    
   149   75  196 1    
   150   76  197 1    
   151   76  198 1    
   152   76  199 1    
   153   77   78 2    
   154   77   79 am   BACKBONE|DICT|INTERRES
   155   79   80 1    
   156   79  200 1    
   157   80   81 1    
   158   80   82 1    
   159   80  201 1    
   160   81  202 1    
   161   81  203 1    
   162   81  204 1    
   163   82   83 2    
   164   82   84 am   BACKBONE|DICT|INTERRES
   165   84   85 1    
   166   84  205 1    
   167   85   86 1    
   168   85   87 1    
   169   85  206 1    
   170   86  207 1    
   171   86  208 1    
   172   86  209 1    
   173   87   88 2    
   174   87   89 am   BACKBONE|DICT|INTERRES
   175   89   90 1    
   176   89  210 1    
   177   90   91 1    
   178   90   92 1    
   179   90  211 1    
   180   91  212 1    
   181   91  213 1    
   182   91  214 1    
   183   92   93 2    
   184   92   94 am   BACKBONE|DICT|INTERRES
   185   94   95 1    
   186   94  215 1    
   187   95   96 1    
   188   95   97 1    
   189   95  216 1    
   190   96  217 1    
   191   96  218 1    
   192   96  219 1    
   193   97   98 2    
   194   97   99 am   BACKBONE|DICT|INTERRES
   195   99  100 1    
   196   99  220 1    
   197  100  101 1    
   198  100  102 1    
   199  100  221 1    
   200  101  222 1    
   201  101  223 1    
   202  101  224 1    
   203  102  103 2    
   204  102  104 am   BACKBONE|DICT|INTERRES
   205  104  105 1    
   206  104  225 1    
   207  105  106 1    
   208  105  107 1    
   209  105  226 1    
   210  106  227 1    
   211  106  228 1    
   212  106  229 1    
   213  107  108 2    
   214  107  109 am   BACKBONE|DICT|INTERRES
   215  109  110 1    
   216  109  230 1    
   217  110  111 1    
   218  110  112 1    
   219  110  231 1    
   220  111  232 1    
   221  111  233 1    
   222  111  234 1    
   223  112  113 2    
   224  112  114 am   BACKBONE|DICT|INTERRES
   225  114  115 1    
   226  114  235 1    
   227  115  116 1    
   228  115  117 1    
   229  115  236 1    
   230  116  237 1    
   231  116  238 1    
   232  116  239 1    
   233  117  118 2    
   234  117  119 am   BACKBONE|DICT|INTERRES
   235  119  120 1    
   236  119  240 1    
   237  120  121 1    
   238  120  124 1    
   239  120  241 1    
   240  121  122 am   BACKBONE|DICT|INTERRES
   241  121  123 2    
   242  122  242 1    
   243  122  243 1    
   244  124  125 1    
   245  124  244 1    
   246  124  245 1    
   247  125  126 1    
   248  126  246 1    
   249  126  247 1    
@<TRIPOS>SUBSTRUCTURE
     1 UNK         1 GROUP             0       ****    0 ROOT    
