@<TRIPOS>MOLECULE
3R540
247   249    1
SMALL
USER_CHARGES


@<TRIPOS>ATOM
      1 CA          5.7045  -11.8096  -46.0529 C.3       0 UNK        -0.1800 
      2 C           4.4922  -12.6648  -45.7176 C.2       0 UNK         0.5000 
      3 O           4.2996  -13.0373  -44.5584 O.2       0 UNK        -0.5000 
      4 N           3.6782  -12.9946  -46.7268 N.am      1 UNK        -0.5000 
      5 CA          2.4908  -13.8466  -46.5992 C.3       1 UNK         0.1400 
      6 C6          1.9385  -14.3110  -47.9683 C.3       23 UNK        -0.0398 
      7 S7          3.1967  -15.1421  -48.9915 S.3       23 UNK        -0.2404 
      8 C8          2.3155  -15.2826  -50.5777 C.3       23 UNK        -0.0205 
      9 C9          1.2252  -16.3419  -50.5271 C.ar      23 UNK        -0.0193 
     10 C10        -0.1215  -15.9772  -50.4327 C.ar      23 UNK        -0.1150 
     11 C11        -1.1195  -16.9564  -50.4062 C.ar      23 UNK        -0.0193 
     12 C12        -0.7613  -18.3069  -50.4503 C.ar      23 UNK        -0.1150 
     13 C13         0.5821  -18.6830  -50.5397 C.ar      23 UNK        -0.0193 
     14 C14         1.5686  -17.6947  -50.5895 C.ar      23 UNK        -0.1150 
     15 C15         0.9681  -20.1554  -50.5831 C.3       23 UNK        -0.0205 
     16 S16         2.0124  -20.6542  -49.1726 S.3       23 UNK        -0.2404 
     17 C17         0.9541  -20.2477  -47.7417 C.3       23 UNK        -0.0398 
     18 CA          0.1915  -21.4662  -47.1725 C.3       11 UNK         0.1400 
     19 N          -0.2991  -21.1967  -45.8224 N.am      11 UNK        -0.5000 
     20 C          -0.8932  -22.0852  -45.0155 C.2       10 UNK         0.5000 
     21 O          -1.0493  -23.2741  -45.2927 O.2       10 UNK        -0.5000 
     22 CA         -1.4534  -21.5318  -43.6955 C.3       10 UNK         0.1400 
     23 CB         -0.3438  -21.4008  -42.6422 C.3       10 UNK        -0.1800 
     24 N          -2.1093  -20.2372  -43.8864 N.am      10 UNK        -0.5000 
     25 C          -3.2651  -20.0705  -44.5440 C.2       9 UNK         0.5000 
     26 O          -3.9100  -20.9944  -45.0389 O.2       9 UNK        -0.5000 
     27 CA         -3.7688  -18.6254  -44.7024 C.3       9 UNK         0.1400 
     28 CB         -4.4803  -18.1551  -43.4249 C.3       9 UNK        -0.1800 
     29 N          -2.7035  -17.6810  -45.0418 N.am      9 UNK        -0.5000 
     30 C          -2.0292  -17.6891  -46.1999 C.2       8 UNK         0.5000 
     31 O          -2.2068  -18.5155  -47.0931 O.2       8 UNK        -0.5000 
     32 CA         -0.9559  -16.6003  -46.3784 C.3       8 UNK         0.1400 
     33 CB         -1.6391  -15.2463  -46.6427 C.3       8 UNK        -0.1800 
     34 N          -0.0292  -16.4553  -45.2483 N.am      8 UNK        -0.5000 
     35 C           0.6024  -17.4398  -44.5923 C.2       7 UNK         0.5000 
     36 O           0.4641  -18.6371  -44.8444 O.2       7 UNK        -0.5000 
     37 CA          1.5166  -16.9929  -43.4365 C.3       7 UNK         0.1400 
     38 CB          1.5751  -18.0304  -42.2983 C.3       7 UNK        -0.1800 
     39 N           2.8722  -16.6280  -43.8633 N.am      7 UNK        -0.5000 
     40 C           3.7820  -17.3936  -44.4907 C.2       6 UNK         0.5000 
     41 O           3.5694  -18.5352  -44.8965 O.2       6 UNK        -0.5000 
     42 CA          5.1962  -16.7997  -44.6579 C.3       6 UNK         0.1400 
     43 CB          5.4785  -16.4118  -46.1174 C.3       6 UNK        -0.1800 
     44 N           5.4147  -15.6372  -43.7912 N.am      6 UNK        -0.5000 
     45 C           5.9780  -15.6944  -42.5758 C.2       5 UNK         0.5000 
     46 O           6.4583  -16.7159  -42.0839 O.2       5 UNK        -0.5000 
     47 CA          5.9532  -14.3946  -41.7558 C.3       5 UNK         0.1400 
     48 CB          6.9565  -13.3665  -42.3024 C.3       5 UNK        -0.1800 
     49 N           4.6086  -13.8218  -41.7606 N.am      5 UNK        -0.5000 
     50 C           3.6204  -14.2009  -40.9381 C.2       4 UNK         0.5000 
     51 O           3.7714  -15.0198  -40.0306 O.2       4 UNK        -0.5000 
     52 CA          2.2228  -13.5985  -41.1947 C.3       4 UNK         0.1400 
     53 CB          1.3932  -13.4235  -39.9055 C.3       4 UNK        -0.1800 
     54 N           2.2477  -12.3711  -41.9949 N.am      4 UNK        -0.5000 
     55 C           2.7127  -11.1642  -41.6359 C.2       3 UNK         0.5000 
     56 O           3.1814  -10.9102  -40.5261 O.2       3 UNK        -0.5000 
     57 CA          2.6744  -10.0525  -42.7054 C.3       3 UNK         0.1400 
     58 CB          4.1023   -9.6193  -43.0746 C.3       3 UNK        -0.1800 
     59 N           1.9744  -10.4556  -43.9282 N.am      3 UNK        -0.5000 
     60 C           0.6427  -10.5041  -44.0761 C.2       2 UNK         0.5000 
     61 O          -0.1537  -10.1528  -43.2057 O.2       2 UNK        -0.5000 
     62 CA          0.1118  -11.0603  -45.4119 C.3       2 UNK         0.1400 
     63 CB         -0.3106   -9.9136  -46.3427 C.3       2 UNK        -0.1800 
     64 N           1.0868  -11.9036  -46.1094 N.am      2 UNK        -0.5000 
     65 C           1.3996  -13.1587  -45.7588 C.2       1 UNK         0.5000 
     66 O           0.9035  -13.7523  -44.7991 O.2       1 UNK        -0.5000 
     67 C          -0.9505  -21.9256  -48.1017 C.2       11 UNK         0.5000 
     68 O          -0.8133  -22.9545  -48.7621 O.2       11 UNK        -0.5000 
     69 N          -2.0720  -21.1895  -48.0970 N.am      12 UNK        -0.5000 
     70 CA         -3.2873  -21.5263  -48.8365 C.3       12 UNK         0.1400 
     71 CB         -4.3123  -20.3929  -48.6981 C.3       12 UNK        -0.1800 
     72 C          -3.8954  -22.8692  -48.3987 C.2       12 UNK         0.5000 
     73 O          -4.2416  -23.6780  -49.2578 O.2       12 UNK        -0.5000 
     74 N          -3.9828  -23.1056  -47.0814 N.am      13 UNK        -0.5000 
     75 CA         -4.4621  -24.3611  -46.4996 C.3       13 UNK         0.1400 
     76 CB         -4.5327  -24.2405  -44.9702 C.3       13 UNK        -0.1800 
     77 C          -3.6134  -25.5746  -46.9208 C.2       13 UNK         0.5000 
     78 O          -4.1753  -26.5826  -47.3538 O.2       13 UNK        -0.5000 
     79 N          -2.2823  -25.4318  -46.8323 N.am      14 UNK        -0.5000 
     80 CA         -1.3005  -26.4270  -47.2671 C.3       14 UNK         0.1400 
     81 CB          0.1080  -25.9732  -46.8553 C.3       14 UNK        -0.1800 
     82 C          -1.3617  -26.7098  -48.7794 C.2       14 UNK         0.5000 
     83 O          -1.2605  -27.8682  -49.1865 O.2       14 UNK        -0.5000 
     84 N          -1.5823  -25.6617  -49.5828 N.am      15 UNK        -0.5000 
     85 CA         -1.7982  -25.7134  -51.0293 C.3       15 UNK         0.1400 
     86 CB         -1.4632  -24.3372  -51.6246 C.3       15 UNK        -0.1800 
     87 C          -3.2212  -26.1908  -51.3972 C.2       15 UNK         0.5000 
     88 O          -3.9352  -25.5088  -52.1354 O.2       15 UNK        -0.5000 
     89 N          -3.5958  -27.3653  -50.8696 N.am      16 UNK        -0.5000 
     90 CA         -4.8195  -28.1301  -51.1277 C.3       16 UNK         0.1400 
     91 CB         -4.7164  -28.8272  -52.4991 C.3       16 UNK        -0.1800 
     92 C          -6.1209  -27.3176  -50.9575 C.2       16 UNK         0.5000 
     93 O          -7.0220  -27.4190  -51.7919 O.2       16 UNK        -0.5000 
     94 N          -6.1866  -26.5308  -49.8727 N.am      17 UNK        -0.5000 
     95 CA         -7.2897  -25.6372  -49.5049 C.3       17 UNK         0.1400 
     96 CB         -8.5538  -26.4428  -49.1377 C.3       17 UNK        -0.1800 
     97 C          -7.5446  -24.5483  -50.5689 C.2       17 UNK         0.5000 
     98 O          -8.6438  -24.4498  -51.1182 O.2       17 UNK        -0.5000 
     99 N          -6.5026  -23.7457  -50.8160 N.am      18 UNK        -0.5000 
    100 CA        -6.4474  -22.5809  -51.6995 C.3       18 UNK         0.1400 
    101 CB        -7.4203  -21.4835  -51.2187 C.3       18 UNK        -0.1800 
    102 C         -6.6192  -22.9351  -53.1893 C.2       18 UNK         0.5000 
    103 O         -7.2752  -22.1963  -53.9272 O.2       18 UNK        -0.5000 
    104 N         -6.0111  -24.0492  -53.6214 N.am      19 UNK        -0.5000 
    105 CA        -5.9607  -24.4728  -55.0200 C.3       19 UNK         0.1400 
    106 CB        -5.5809  -25.9602  -55.0904 C.3       19 UNK        -0.1800 
    107 C         -4.9599  -23.5857  -55.7800 C.2       19 UNK         0.5000 
    108 O         -3.7524  -23.8123  -55.6935 O.2       19 UNK        -0.5000 
    109 N         -5.4775  -22.5267  -56.4182 N.am      20 UNK        -0.5000 
    110 CA        -4.7789  -21.4159  -57.0868 C.3       20 UNK         0.1400 
    111 CB        -3.8467  -21.9171  -58.2066 C.3       20 UNK        -0.1800 
    112 C         -4.0403  -20.4557  -56.1279 C.2       20 UNK         0.5000 
    113 O         -3.8898  -19.2772  -56.4533 O.2       20 UNK        -0.5000 
    114 N         -3.6255  -20.9507  -54.9563 N.am      21 UNK        -0.5000 
    115 CA        -3.0091  -20.2151  -53.8558 C.3       21 UNK         0.1400 
    116 CB        -2.3388  -21.2318  -52.9194 C.3       21 UNK        -0.1800 
    117 C         -4.0379  -19.3362  -53.1178 C.2       21 UNK         0.5000 
    118 O         -4.4681  -19.6768  -52.0156 O.2       21 UNK        -0.5000 
    119 N         -4.4236  -18.2314  -53.7642 N.am      22 UNK        -0.5000 
    120 CA        -5.3582  -17.1999  -53.2771 C.3       22 UNK         0.1400 
    121 C         -6.8584  -17.6245  -53.2721 C.2       22 UNK         0.5000 
    122 N         -7.2343  -18.7481  -53.8700 N.am      22 UNK        -0.7600 
    123 O         -7.7061  -16.9058  -52.7492 O.2       22 UNK        -0.5000 
    124 C124       -4.9282  -16.5419  -51.9326 C.3       23 UNK        -0.0398 
    125 S125       -3.1926  -15.9635  -51.9419 S.3       23 UNK        -0.2404 
    126 C126       -2.5855  -16.5615  -50.3326 C.3       23 UNK        -0.0205 
    127 H127        5.8026  -11.6537  -47.1274 H         1 UNK         0.0600 
    128 H128        6.6139  -12.2939  -45.6981 H         1 UNK         0.0600 
    129 H129        5.6257  -10.8344  -45.5745 H         1 UNK         0.0600 
    130 H130        3.9001  -12.6886  -47.6638 H         1 UNK         0.3000 
    131 H131        2.7828  -14.7419  -46.0491 H         1 UNK         0.0600 
    132 H132        1.1226  -15.0182  -47.8272 H         1 UNK         0.0800 
    133 H133        1.5316  -13.4689  -48.5310 H         1 UNK         0.0800 
    134 H134        1.9044  -14.3123  -50.8606 H         1 UNK         0.0800 
    135 H135        3.0340  -15.5453  -51.3556 H         1 UNK         0.0800 
    136 H136       -0.3970  -14.9326  -50.3947 H         1 UNK         0.1150 
    137 H137       -1.5321  -19.0638  -50.4122 H         1 UNK         0.1150 
    138 H138        2.6090  -17.9804  -50.6599 H         1 UNK         0.1150 
    139 H139        0.0827  -20.7911  -50.6134 H         1 UNK         0.0800 
    140 H140        1.5120  -20.3496  -51.5083 H         1 UNK         0.0800 
    141 H141        0.2736  -19.4284  -47.9741 H         1 UNK         0.0800 
    142 H142        1.6252  -19.8533  -46.9769 H         1 UNK         0.0800 
    143 H143        0.8958  -22.2963  -47.0850 H         1 UNK         0.0600 
    144 H144       -0.1775  -20.2441  -45.4839 H         1 UNK         0.3000 
    145 H145       -2.1960  -22.2393  -43.3207 H         1 UNK         0.0600 
    146 H146       -0.7356  -21.0221  -41.6981 H         1 UNK         0.0600 
    147 H147        0.1149  -22.3694  -42.4399 H         1 UNK         0.0600 
    148 H148        0.4473  -20.7284  -42.9734 H         1 UNK         0.0600 
    149 H149       -1.6083  -19.4205  -43.5695 H         1 UNK         0.3000 
    150 H150       -4.4959  -18.6179  -45.5174 H         1 UNK         0.0600 
    151 H151       -5.2907  -18.8346  -43.1574 H         1 UNK         0.0600 
    152 H152       -4.9186  -17.1661  -43.5594 H         1 UNK         0.0600 
    153 H153       -3.7977  -18.1076  -42.5756 H         1 UNK         0.0600 
    154 H154       -2.4853  -16.9706  -44.3590 H         1 UNK         0.3000 
    155 H155       -0.3662  -16.8718  -47.2562 H         1 UNK         0.0600 
    156 H156       -2.4335  -15.3394  -47.3824 H         1 UNK         0.0600 
    157 H157       -0.9409  -14.5020  -47.0194 H         1 UNK         0.0600 
    158 H158       -2.0926  -14.8427  -45.7367 H         1 UNK         0.0600 
    159 H159        0.1642  -15.4996  -44.9619 H         1 UNK         0.3000 
    160 H160        1.0653  -16.0934  -43.0198 H         1 UNK         0.0600 
    161 H161        2.0625  -18.9534  -42.6133 H         1 UNK         0.0600 
    162 H162        0.5739  -18.2893  -41.9520 H         1 UNK         0.0600 
    163 H163        2.1248  -17.6405  -41.4414 H         1 UNK         0.0600 
    164 H164        3.1719  -15.7025  -43.5989 H         1 UNK         0.3000 
    165 H165        5.9005  -17.5916  -44.3944 H         1 UNK         0.0600 
    166 H166        6.5174  -16.1084  -46.2466 H         1 UNK         0.0600 
    167 H167        5.3003  -17.2525  -46.7892 H         1 UNK         0.0600 
    168 H168        4.8518  -15.5895  -46.4519 H         1 UNK         0.0600 
    169 H169        5.0595  -14.7430  -44.1167 H         1 UNK         0.3000 
    170 H170        6.2430  -14.6318  -40.7298 H         1 UNK         0.0600 
    171 H171        6.7319  -13.0801  -43.3294 H         1 UNK         0.0600 
    172 H172        6.9571  -12.4599  -41.6971 H         1 UNK         0.0600 
    173 H173        7.9705  -13.7679  -42.2886 H         1 UNK         0.0600 
    174 H174        4.3921  -13.1884  -42.5222 H         1 UNK         0.3000 
    175 H175        1.6975  -14.3263  -41.8094 H         1 UNK         0.0600 
    176 H176        0.4173  -12.9881  -40.1202 H         1 UNK         0.0600 
    177 H177        1.8959  -12.7831  -39.1806 H         1 UNK         0.0600 
    178 H178        1.2181  -14.3847  -39.4209 H         1 UNK         0.0600 
    179 H179        1.9012  -12.4687  -42.9398 H         1 UNK         0.3000 
    180 H180        2.1572   -9.1942  -42.2717 H         1 UNK         0.0600 
    181 H181        4.1000   -8.8622  -43.8590 H         1 UNK         0.0600 
    182 H182        4.7013  -10.4628  -43.4171 H         1 UNK         0.0600 
    183 H183        4.6133   -9.1897  -42.2121 H         1 UNK         0.0600 
    184 H184        2.5510  -10.7714  -44.6933 H         1 UNK         0.3000 
    185 H185       -0.7717  -11.6629  -45.1894 H         1 UNK         0.0600 
    186 H186       -1.0603   -9.2798  -45.8670 H         1 UNK         0.0600 
    187 H187        0.5350   -9.2782  -46.6092 H         1 UNK         0.0600 
    188 H188       -0.7485  -10.2955  -47.2651 H         1 UNK         0.0600 
    189 H189        1.5610  -11.4853  -46.8968 H         1 UNK         0.3000 
    190 H190       -2.1007  -20.3287  -47.5554 H         1 UNK         0.3000 
    191 H191       -3.0205  -21.6105  -49.8916 H         1 UNK         0.0600 
    192 H192       -5.2198  -20.6179  -49.2575 H         1 UNK         0.0600 
    193 H193       -4.5951  -20.2251  -47.6587 H         1 UNK         0.0600 
    194 H194       -3.9171  -19.4583  -49.0935 H         1 UNK         0.0600 
    195 H195       -3.7195  -22.3731  -46.4287 H         1 UNK         0.3000 
    196 H196       -5.4766  -24.5246  -46.8659 H         1 UNK         0.0600 
    197 H197       -4.8986  -25.1651  -44.5220 H         1 UNK         0.0600 
    198 H198       -5.2124  -23.4432  -44.6695 H         1 UNK         0.0600 
    199 H199       -3.5563  -24.0287  -44.5351 H         1 UNK         0.0600 
    200 H200       -1.9081  -24.5711  -46.4408 H         1 UNK         0.3000 
    201 H201       -1.5231  -27.3608  -46.7470 H         1 UNK         0.0600 
    202 H202        0.1824  -25.8532  -45.7743 H         1 UNK         0.0600 
    203 H203        0.3746  -25.0211  -47.3154 H         1 UNK         0.0600 
    204 H204        0.8587  -26.7057  -47.1543 H         1 UNK         0.0600 
    205 H205       -1.6227  -24.7368  -49.1654 H         1 UNK         0.3000 
    206 H206       -1.1012  -26.4351  -51.4597 H         1 UNK         0.0600 
    207 H207       -0.4270  -24.0621  -51.4275 H         1 UNK         0.0600 
    208 H208       -1.6043  -24.3260  -52.7062 H         1 UNK         0.0600 
    209 H209       -2.0993  -23.5642  -51.1952 H         1 UNK         0.0600 
    210 H210       -2.9274  -27.8081  -50.2465 H         1 UNK         0.3000 
    211 H211       -4.8555  -28.9108  -50.3668 H         1 UNK         0.0600 
    212 H212       -4.6674  -28.1061  -53.3137 H         1 UNK         0.0600 
    213 H213       -5.5768  -29.4724  -52.6807 H         1 UNK         0.0600 
    214 H214       -3.8265  -29.4540  -52.5554 H         1 UNK         0.0600 
    215 H215       -5.3810  -26.5072  -49.2578 H         1 UNK         0.3000 
    216 H216       -6.9705  -25.1132  -48.6039 H         1 UNK         0.0600 
    217 H217       -9.3393  -25.7835  -48.7666 H         1 UNK         0.0600 
    218 H218       -8.3430  -27.1696  -48.3533 H         1 UNK         0.0600 
    219 H219       -8.9599  -26.9818  -49.9939 H         1 UNK         0.0600 
    220 H220       -5.6349  -23.9270  -50.3108 H         1 UNK         0.3000 
    221 H221       -5.4358  -22.1865  -51.5983 H         1 UNK         0.0600 
    222 H222       -8.4598  -21.7479  -51.4146 H         1 UNK         0.0600 
    223 H223       -7.3184  -21.3006  -50.1496 H         1 UNK         0.0600 
    224 H224       -7.2203  -20.5406  -51.7269 H         1 UNK         0.0600 
    225 H225       -5.4355  -24.5816  -52.9728 H         1 UNK         0.3000 
    226 H226       -6.9519  -24.3595  -55.4643 H         1 UNK         0.0600 
    227 H227       -6.2905  -26.5737  -54.5348 H         1 UNK         0.0600 
    228 H228       -5.5803  -26.3127  -56.1222 H         1 UNK         0.0600 
    229 H229       -4.5871  -26.1440  -54.6814 H         1 UNK         0.0600 
    230 H230       -6.4782  -22.3988  -56.3399 H         1 UNK         0.3000 
    231 H231       -5.5641  -20.8244  -57.5603 H         1 UNK         0.0600 
    232 H232       -2.9926  -22.4689  -57.8137 H         1 UNK         0.0600 
    233 H233       -3.4512  -21.0801  -58.7833 H         1 UNK         0.0600 
    234 H234       -4.3778  -22.5678  -58.9012 H         1 UNK         0.0600 
    235 H235       -3.7442  -21.9467  -54.8177 H         1 UNK         0.3000 
    236 H236       -2.2323  -19.5607  -54.2567 H         1 UNK         0.0600 
    237 H237       -1.5566  -21.7887  -53.4354 H         1 UNK         0.0600 
    238 H238       -1.8771  -20.7365  -52.0662 H         1 UNK         0.0600 
    239 H239       -3.0638  -21.9489  -52.5336 H         1 UNK         0.0600 
    240 H240       -4.0735  -18.0958  -54.7055 H         1 UNK         0.3000 
    241 H241       -5.3107  -16.4153  -54.0328 H         1 UNK         0.0600 
    242 H242       -6.5529  -19.3609  -54.2857 H         1 UNK         0.3800 
    243 H243       -8.2071  -19.0099  -53.8688 H         1 UNK         0.3800 
    244 H244       -5.5572  -15.6767  -51.7178 H         1 UNK         0.0800 
    245 H245       -5.0920  -17.2387  -51.1101 H         1 UNK         0.0800 
    246 H246       -2.7235  -15.7736  -49.5938 H         1 UNK         0.0800 
    247 H247       -3.1751  -17.4115  -49.9894 H         1 UNK         0.0800 
@<TRIPOS>BOND
     1    1    2 1    
     2    1  127 1    
     3    1  128 1    
     4    1  129 1    
     5    2    3 2    
     6    2    4 am   BACKBONE|DICT|INTERRES
     7    4    5 1    
     8    4  130 1    
     9    5    6 1    
    10    5   65 1    
    11    5  131 1    
    12    6    7 1    
    13    6  132 1    
    14    6  133 1    
    15    7    8 1    
    16    8    9 1    
    17    8  134 1    
    18    8  135 1    
    19    9   10 ar   
    20    9   14 ar   
    21   10   11 ar   
    22   10  136 1    
    23   11   12 ar   
    24   11  126 1    
    25   12   13 ar   
    26   12  137 1    
    27   13   14 ar   
    28   13   15 1    
    29   14  138 1    
    30   15   16 1    
    31   15  139 1    
    32   15  140 1    
    33   16   17 1    
    34   17   18 1    
    35   17  141 1    
    36   17  142 1    
    37   18   19 1    
    38   18   67 1    
    39   18  143 1    
    40   19   20 am   BACKBONE|DICT|INTERRES
    41   19  144 1    
    42   20   21 2    
    43   20   22 1    
    44   22   23 1    
    45   22   24 1    
    46   22  145 1    
    47   23  146 1    
    48   23  147 1    
    49   23  148 1    
    50   24   25 am   BACKBONE|DICT|INTERRES
    51   24  149 1    
    52   25   26 2    
    53   25   27 1    
    54   27   28 1    
    55   27   29 1    
    56   27  150 1    
    57   28  151 1    
    58   28  152 1    
    59   28  153 1    
    60   29   30 am   BACKBONE|DICT|INTERRES
    61   29  154 1    
    62   30   31 2    
    63   30   32 1    
    64   32   33 1    
    65   32   34 1    
    66   32  155 1    
    67   33  156 1    
    68   33  157 1    
    69   33  158 1    
    70   34   35 am   BACKBONE|DICT|INTERRES
    71   34  159 1    
    72   35   36 2    
    73   35   37 1    
    74   37   38 1    
    75   37   39 1    
    76   37  160 1    
    77   38  161 1    
    78   38  162 1    
    79   38  163 1    
    80   39   40 am   BACKBONE|DICT|INTERRES
    81   39  164 1    
    82   40   41 2    
    83   40   42 1    
    84   42   43 1    
    85   42   44 1    
    86   42  165 1    
    87   43  166 1    
    88   43  167 1    
    89   43  168 1    
    90   44   45 am   BACKBONE|DICT|INTERRES
    91   44  169 1    
    92   45   46 2    
    93   45   47 1    
    94   47   48 1    
    95   47   49 1    
    96   47  170 1    
    97   48  171 1    
    98   48  172 1    
    99   48  173 1    
   100   49   50 am   BACKBONE|DICT|INTERRES
   101   49  174 1    
   102   50   51 2    
   103   50   52 1    
   104   52   53 1    
   105   52   54 1    
   106   52  175 1    
   107   53  176 1    
   108   53  177 1    
   109   53  178 1    
   110   54   55 am   BACKBONE|DICT|INTERRES
   111   54  179 1    
   112   55   56 2    
   113   55   57 1    
   114   57   58 1    
   115   57   59 1    
   116   57  180 1    
   117   58  181 1    
   118   58  182 1    
   119   58  183 1    
   120   59   60 am   BACKBONE|DICT|INTERRES
   121   59  184 1    
   122   60   61 2    
   123   60   62 1    
   124   62   63 1    
   125   62   64 1    
   126   62  185 1    
   127   63  186 1    
   128   63  187 1    
   129   63  188 1    
   130   64   65 am   BACKBONE|DICT|INTERRES
   131   64  189 1    
   132   65   66 2    
   133   67   68 2    
   134   67   69 am   BACKBONE|DICT|INTERRES
   135   69   70 1    
   136   69  190 1    
   137   70   71 1    
   138   70   72 1    
   139   70  191 1    
   140   71  192 1    
   141   71  193 1    
   142   71  194 1    
   143   72   73 2    
   144   72   74 am   BACKBONE|DICT|INTERRES
   145   74   75 1    
   146   74  195 1    
   147   75   76 1    
   148   75   77 1    
   149   75  196 1    
   150   76  197 1    
   151   76  198 1    
   152   76  199 1    
   153   77   78 2    
   154   77   79 am   BACKBONE|DICT|INTERRES
   155   79   80 1    
   156   79  200 1    
   157   80   81 1    
   158   80   82 1    
   159   80  201 1    
   160   81  202 1    
   161   81  203 1    
   162   81  204 1    
   163   82   83 2    
   164   82   84 am   BACKBONE|DICT|INTERRES
   165   84   85 1    
   166   84  205 1    
   167   85   86 1    
   168   85   87 1    
   169   85  206 1    
   170   86  207 1    
   171   86  208 1    
   172   86  209 1    
   173   87   88 2    
   174   87   89 am   BACKBONE|DICT|INTERRES
   175   89   90 1    
   176   89  210 1    
   177   90   91 1    
   178   90   92 1    
   179   90  211 1    
   180   91  212 1    
   181   91  213 1    
   182   91  214 1    
   183   92   93 2    
   184   92   94 am   BACKBONE|DICT|INTERRES
   185   94   95 1    
   186   94  215 1    
   187   95   96 1    
   188   95   97 1    
   189   95  216 1    
   190   96  217 1    
   191   96  218 1    
   192   96  219 1    
   193   97   98 2    
   194   97   99 am   BACKBONE|DICT|INTERRES
   195   99  100 1    
   196   99  220 1    
   197  100  101 1    
   198  100  102 1    
   199  100  221 1    
   200  101  222 1    
   201  101  223 1    
   202  101  224 1    
   203  102  103 2    
   204  102  104 am   BACKBONE|DICT|INTERRES
   205  104  105 1    
   206  104  225 1    
   207  105  106 1    
   208  105  107 1    
   209  105  226 1    
   210  106  227 1    
   211  106  228 1    
   212  106  229 1    
   213  107  108 2    
   214  107  109 am   BACKBONE|DICT|INTERRES
   215  109  110 1    
   216  109  230 1    
   217  110  111 1    
   218  110  112 1    
   219  110  231 1    
   220  111  232 1    
   221  111  233 1    
   222  111  234 1    
   223  112  113 2    
   224  112  114 am   BACKBONE|DICT|INTERRES
   225  114  115 1    
   226  114  235 1    
   227  115  116 1    
   228  115  117 1    
   229  115  236 1    
   230  116  237 1    
   231  116  238 1    
   232  116  239 1    
   233  117  118 2    
   234  117  119 am   BACKBONE|DICT|INTERRES
   235  119  120 1    
   236  119  240 1    
   237  120  121 1    
   238  120  124 1    
   239  120  241 1    
   240  121  122 am   BACKBONE|DICT|INTERRES
   241  121  123 2    
   242  122  242 1    
   243  122  243 1    
   244  124  125 1    
   245  124  244 1    
   246  124  245 1    
   247  125  126 1    
   248  126  246 1    
   249  126  247 1    
@<TRIPOS>SUBSTRUCTURE
     1 UNK         1 GROUP             0       ****    0 ROOT    
