@<TRIPOS>MOLECULE
3R540
247   249    1
SMALL
USER_CHARGES


@<TRIPOS>ATOM
      1 CA          0.4130  -12.7766  -47.0791 C.3       0 UNK        -0.1800 
      2 C          -0.4072  -14.0266  -46.8011 C.2       0 UNK         0.5000 
      3 O          -0.4178  -14.5042  -45.6670 O.2       0 UNK        -0.5000 
      4 N          -1.1090  -14.5401  -47.8204 N.am      1 UNK        -0.5000 
      5 CA         -1.8999  -15.7844  -47.8556 C.3       1 UNK         0.1400 
      6 C6         -2.2428  -16.1716  -49.3222 C.3       23 UNK        -0.0398 
      7 S7         -0.7727  -16.6553  -50.2936 S.3       23 UNK        -0.2404 
      8 C8         -1.1212  -18.4310  -50.4751 C.3       23 UNK        -0.0205 
      9 C9         -0.0034  -19.2048  -51.1468 C.ar      23 UNK        -0.0193 
     10 C10        -0.1531  -19.6788  -52.4517 C.ar      23 UNK        -0.1150 
     11 C11         0.8408  -20.4662  -53.0392 C.ar      23 UNK        -0.0193 
     12 C12         1.9851  -20.7894  -52.3039 C.ar      23 UNK        -0.1150 
     13 C13         2.1466  -20.3179  -50.9969 C.ar      23 UNK        -0.0193 
     14 C14         1.1540  -19.5135  -50.4302 C.ar      23 UNK        -0.1150 
     15 C15         3.3927  -20.6810  -50.2041 C.3       23 UNK        -0.0205 
     16 S16         3.1180  -22.1328  -49.1377 S.3       23 UNK        -0.2404 
     17 C17         2.4791  -21.3501  -47.6195 C.3       23 UNK        -0.0398 
     18 CA          1.3764  -22.1661  -46.9070 C.3       11 UNK         0.1400 
     19 N           1.2557  -21.7631  -45.5066 N.am      11 UNK        -0.5000 
     20 C           0.5149  -22.3800  -44.5773 C.2       10 UNK         0.5000 
     21 O          -0.0886  -23.4347  -44.7714 O.2       10 UNK        -0.5000 
     22 CA          0.3703  -21.6459  -43.2321 C.3       10 UNK         0.1400 
     23 CB          1.5628  -21.9283  -42.3062 C.3       10 UNK        -0.1800 
     24 N           0.2264  -20.2018  -43.4365 N.am      10 UNK        -0.5000 
     25 C          -0.8850  -19.6278  -43.9198 C.2       9 UNK         0.5000 
     26 O          -1.9257  -20.2491  -44.1332 O.2       9 UNK        -0.5000 
     27 CA         -0.8099  -18.1295  -44.2696 C.3       9 UNK         0.1400 
     28 CB         -1.2613  -17.2659  -43.0849 C.3       9 UNK        -0.1800 
     29 N           0.5335  -17.7256  -44.6895 N.am      9 UNK        -0.5000 
     30 C           1.0404  -17.9734  -45.9053 C.2       8 UNK         0.5000 
     31 O           0.4144  -18.5534  -46.7898 O.2       8 UNK        -0.5000 
     32 CA          2.5001  -17.5602  -46.1776 C.3       8 UNK         0.1400 
     33 CB          2.5617  -16.1436  -46.7638 C.3       8 UNK        -0.1800 
     34 N           3.3670  -17.6382  -45.0016 N.am      8 UNK        -0.5000 
     35 C           3.6283  -18.7569  -44.3123 C.2       7 UNK         0.5000 
     36 O           3.1763  -19.8602  -44.6181 O.2       7 UNK        -0.5000 
     37 CA          4.4803  -18.6249  -43.0321 C.3       7 UNK         0.1400 
     38 CB          5.2668  -17.2977  -42.9425 C.3       7 UNK        -0.1800 
     39 N           3.6784  -18.8142  -41.8161 N.am      7 UNK        -0.5000 
     40 C           2.5629  -18.1468  -41.4852 C.2       6 UNK         0.5000 
     41 O           2.0203  -17.3254  -42.2256 O.2       6 UNK        -0.5000 
     42 CA          1.9174  -18.4308  -40.1129 C.3       6 UNK         0.1400 
     43 CB          2.7630  -19.3144  -39.1680 C.3       6 UNK        -0.1800 
     44 N           1.5274  -17.1679  -39.4771 N.am      6 UNK        -0.5000 
     45 C           2.3490  -16.1801  -39.0943 C.2       5 UNK         0.5000 
     46 O           3.5777  -16.2722  -39.0528 O.2       5 UNK        -0.5000 
     47 CA          1.6776  -14.8292  -38.7937 C.3       5 UNK         0.1400 
     48 CB          2.4439  -14.0171  -37.7349 C.3       5 UNK        -0.1800 
     49 N           1.6129  -14.0561  -40.0324 N.am      5 UNK        -0.5000 
     50 C           0.6831  -14.2147  -40.9821 C.2       4 UNK         0.5000 
     51 O          -0.2952  -14.9556  -40.8615 O.2       4 UNK        -0.5000 
     52 CA          0.9132  -13.4333  -42.2908 C.3       4 UNK         0.1400 
     53 CB          1.7654  -14.2510  -43.2722 C.3       4 UNK        -0.1800 
     54 N          -0.3383  -13.0571  -42.9479 N.am      4 UNK        -0.5000 
     55 C          -1.1845  -12.1326  -42.4731 C.2       3 UNK         0.5000 
     56 O          -0.9785  -11.4876  -41.4434 O.2       3 UNK        -0.5000 
     57 CA         -2.4601  -11.8449  -43.2861 C.3       3 UNK         0.1400 
     58 CB         -2.2505  -10.6221  -44.1931 C.3       3 UNK        -0.1800 
     59 N          -2.9134  -12.9664  -44.1085 N.am      3 UNK        -0.5000 
     60 C          -3.5514  -14.0491  -43.6411 C.2       2 UNK         0.5000 
     61 O          -3.7667  -14.2600  -42.4480 O.2       2 UNK        -0.5000 
     62 CA         -4.0537  -15.0494  -44.6939 C.3       2 UNK         0.1400 
     63 CB         -5.4392  -14.5906  -45.1987 C.3       2 UNK        -0.1800 
     64 N          -3.0677  -15.1568  -45.7720 N.am      2 UNK        -0.5000 
     65 C          -3.1598  -15.7936  -46.9426 C.2       1 UNK         0.5000 
     66 O          -4.1734  -16.3911  -47.3044 O.2       1 UNK        -0.5000 
     67 C           0.0120  -22.1108  -47.6333 C.2       11 UNK         0.5000 
     68 O          -0.3094  -23.0421  -48.3680 O.2       11 UNK        -0.5000 
     69 N          -0.8034  -21.0793  -47.3526 N.am      12 UNK        -0.5000 
     70 CA         -2.1880  -20.9574  -47.8210 C.3       12 UNK         0.1400 
     71 CB         -2.8044  -19.6216  -47.3677 C.3       12 UNK        -0.1800 
     72 C          -3.0755  -22.1168  -47.3467 C.2       12 UNK         0.5000 
     73 O          -3.8129  -22.6770  -48.1553 O.2       12 UNK        -0.5000 
     74 N          -2.9730  -22.4719  -46.0583 N.am      13 UNK        -0.5000 
     75 CA         -3.6891  -23.5977  -45.4577 C.3       13 UNK         0.1400 
     76 CB         -3.4943  -23.5880  -43.9341 C.3       13 UNK        -0.1800 
     77 C          -3.2757  -24.9493  -46.0689 C.2       13 UNK         0.5000 
     78 O          -4.1467  -25.7584  -46.3898 O.2       13 UNK        -0.5000 
     79 N          -1.9655  -25.1438  -46.2782 N.am      14 UNK        -0.5000 
     80 CA         -1.3921  -26.3113  -46.9546 C.3       14 UNK         0.1400 
     81 CB          0.1385  -26.2726  -46.8315 C.3       14 UNK        -0.1800 
     82 C          -1.8218  -26.4264  -48.4318 C.2       14 UNK         0.5000 
     83 O          -2.0664  -27.5341  -48.9103 O.2       14 UNK        -0.5000 
     84 N          -1.9475  -25.2792  -49.1116 N.am      15 UNK        -0.5000 
     85 CA         -2.4392  -25.1458  -50.4847 C.3       15 UNK         0.1400 
     86 CB         -1.8966  -23.8344  -51.0773 C.3       15 UNK        -0.1800 
     87 C          -3.9787  -25.2122  -50.6057 C.2       15 UNK         0.5000 
     88 O          -4.4916  -25.0931  -51.7187 O.2       15 UNK        -0.5000 
     89 N          -4.6860  -25.3972  -49.4802 N.am      16 UNK        -0.5000 
     90 CA         -6.1424  -25.4968  -49.3439 C.3       16 UNK         0.1400 
     91 CB         -6.6863  -26.7392  -50.0809 C.3       16 UNK        -0.1800 
     92 C          -6.8726  -24.1901  -49.7189 C.2       16 UNK         0.5000 
     93 O          -7.8802  -24.2215  -50.4278 O.2       16 UNK        -0.5000 
     94 N          -6.3468  -23.0670  -49.2097 N.am      17 UNK        -0.5000 
     95 CA         -6.8362  -21.6939  -49.3608 C.3       17 UNK         0.1400 
     96 CB         -8.2368  -21.5261  -48.7343 C.3       17 UNK        -0.1800 
     97 C          -6.7457  -21.1904  -50.8142 C.2       17 UNK         0.5000 
     98 O          -7.6899  -20.5844  -51.3255 O.2       17 UNK        -0.5000 
     99 N          -5.5990  -21.4557  -51.4541 N.am      18 UNK        -0.5000 
    100 CA        -5.2681  -20.9892  -52.7995 C.3       18 UNK         0.1400 
    101 CB        -3.9599  -21.6488  -53.2529 C.3       18 UNK        -0.1800 
    102 C         -5.1345  -19.4571  -52.8625 C.2       18 UNK         0.5000 
    103 O         -4.5527  -18.8518  -51.9585 O.2       18 UNK        -0.5000 
    104 N         -5.6369  -18.8606  -53.9495 N.am      19 UNK        -0.5000 
    105 CA        -5.6495  -17.4176  -54.1987 C.3       19 UNK         0.1400 
    106 CB        -6.8017  -17.0979  -55.1686 C.3       19 UNK        -0.1800 
    107 C         -4.2865  -16.8965  -54.7023 C.2       19 UNK         0.5000 
    108 O         -4.2076  -16.3191  -55.7878 O.2       19 UNK        -0.5000 
    109 N         -3.2320  -17.1402  -53.9125 N.am      20 UNK        -0.5000 
    110 CA        -1.8312  -16.7131  -54.0578 C.3       20 UNK         0.1400 
    111 CB        -1.7214  -15.1777  -54.0154 C.3       20 UNK        -0.1800 
    112 C         -1.0608  -17.2844  -55.2681 C.2       20 UNK         0.5000 
    113 O          0.1483  -17.4872  -55.1615 O.2       20 UNK        -0.5000 
    114 N         -1.7446  -17.5242  -56.3912 N.am      21 UNK        -0.5000 
    115 CA        -1.1556  -18.0046  -57.6407 C.3       21 UNK         0.1400 
    116 CB        -2.0344  -17.5365  -58.8112 C.3       21 UNK        -0.1800 
    117 C         -0.9797  -19.5333  -57.6859 C.2       21 UNK         0.5000 
    118 O         -0.0638  -20.0083  -58.3579 O.2       21 UNK        -0.5000 
    119 N         -1.8669  -20.2715  -57.0009 N.am      22 UNK        -0.5000 
    120 CA        -1.9714  -21.7471  -57.0286 C.3       22 UNK         0.1400 
    121 C         -2.3526  -22.3438  -58.4225 C.2       22 UNK         0.5000 
    122 N         -2.9321  -21.5730  -59.3352 N.am      22 UNK        -0.7600 
    123 O         -2.1567  -23.5293  -58.6770 O.2       22 UNK        -0.5000 
    124 C124       -0.7519  -22.4656  -56.3780 C.3       23 UNK        -0.0398 
    125 S125       -0.6616  -22.1937  -54.5780 S.3       23 UNK        -0.2404 
    126 C126        0.6703  -20.9644  -54.4656 C.3       23 UNK        -0.0205 
    127 H127        0.1419  -11.9860  -46.3802 H         1 UNK         0.0600 
    128 H128        0.2578  -12.4055  -48.0922 H         1 UNK         0.0600 
    129 H129        1.4738  -12.9928  -46.9529 H         1 UNK         0.0600 
    130 H130       -1.0544  -14.0666  -48.7107 H         1 UNK         0.3000 
    131 H131       -1.2579  -16.5679  -47.4520 H         1 UNK         0.0600 
    132 H132       -2.9543  -16.9979  -49.3629 H         1 UNK         0.0800 
    133 H133       -2.7364  -15.3406  -49.8283 H         1 UNK         0.0800 
    134 H134       -1.2634  -18.8542  -49.4863 H         1 UNK         0.0800 
    135 H135       -2.0601  -18.5688  -51.0124 H         1 UNK         0.0800 
    136 H136       -1.0525  -19.4593  -53.0084 H         1 UNK         0.1150 
    137 H137        2.7506  -21.4102  -52.7477 H         1 UNK         0.1150 
    138 H138        1.2620  -19.1374  -49.4238 H         1 UNK         0.1150 
    139 H139        4.2125  -20.9050  -50.8884 H         1 UNK         0.0800 
    140 H140        3.7258  -19.8301  -49.6078 H         1 UNK         0.0800 
    141 H141        2.1352  -20.3388  -47.8211 H         1 UNK         0.0800 
    142 H142        3.3384  -21.2384  -46.9568 H         1 UNK         0.0800 
    143 H143        1.6918  -23.2115  -46.8955 H         1 UNK         0.0600 
    144 H144        1.7861  -20.9419  -45.2279 H         1 UNK         0.3000 
    145 H145       -0.5311  -22.0211  -42.7425 H         1 UNK         0.0600 
    146 H146        1.4270  -21.4519  -41.3358 H         1 UNK         0.0600 
    147 H147        1.6696  -22.9992  -42.1288 H         1 UNK         0.0600 
    148 H148        2.5029  -21.5729  -42.7274 H         1 UNK         0.0600 
    149 H149        1.0593  -19.6382  -43.3481 H         1 UNK         0.3000 
    150 H150       -1.5012  -17.9444  -45.0941 H         1 UNK         0.0600 
    151 H151       -2.2947  -17.4841  -42.8139 H         1 UNK         0.0600 
    152 H152       -1.2056  -16.2044  -43.3271 H         1 UNK         0.0600 
    153 H153       -0.6482  -17.4374  -42.2002 H         1 UNK         0.0600 
    154 H154        1.1227  -17.3005  -43.9792 H         1 UNK         0.3000 
    155 H155        2.8988  -18.2482  -46.9250 H         1 UNK         0.0600 
    156 H156        3.5736  -15.8905  -47.0800 H         1 UNK         0.0600 
    157 H157        1.9158  -16.0538  -47.6387 H         1 UNK         0.0600 
    158 H158        2.2402  -15.3966  -46.0383 H         1 UNK         0.0600 
    159 H159        3.7417  -16.7669  -44.6566 H         1 UNK         0.3000 
    160 H160        5.2051  -19.4396  -43.0630 H         1 UNK         0.0600 
    161 H161        4.6108  -16.4322  -42.8425 H         1 UNK         0.0600 
    162 H162        5.8903  -17.1469  -43.8247 H         1 UNK         0.0600 
    163 H163        5.9318  -17.3015  -42.0787 H         1 UNK         0.0600 
    164 H164        4.0403  -19.4888  -41.1575 H         1 UNK         0.3000 
    165 H165        0.9897  -18.9655  -40.3217 H         1 UNK         0.0600 
    166 H166        2.2656  -19.4406  -38.2063 H         1 UNK         0.0600 
    167 H167        2.9061  -20.3121  -39.5841 H         1 UNK         0.0600 
    168 H168        3.7495  -18.8919  -38.9757 H         1 UNK         0.0600 
    169 H169        0.5462  -16.9366  -39.5608 H         1 UNK         0.3000 
    170 H170        0.6694  -15.0098  -38.4141 H         1 UNK         0.0600 
    171 H171        3.4525  -13.7643  -38.0645 H         1 UNK         0.0600 
    172 H172        1.9257  -13.0862  -37.5039 H         1 UNK         0.0600 
    173 H173        2.5333  -14.5789  -36.8043 H         1 UNK         0.0600 
    174 H174        2.4037  -13.4567  -40.2193 H         1 UNK         0.3000 
    175 H175        1.4571  -12.5168  -42.0524 H         1 UNK         0.0600 
    176 H176        2.0085  -13.6701  -44.1619 H         1 UNK         0.0600 
    177 H177        1.2432  -15.1515  -43.5941 H         1 UNK         0.0600 
    178 H178        2.7060  -14.5621  -42.8164 H         1 UNK         0.0600 
    179 H179       -0.5717  -13.5612  -43.7948 H         1 UNK         0.3000 
    180 H180       -3.2514  -11.6025  -42.5733 H         1 UNK         0.0600 
    181 H181       -1.4802  -10.8037  -44.9430 H         1 UNK         0.0600 
    182 H182       -1.9427   -9.7520  -43.6115 H         1 UNK         0.0600 
    183 H183       -3.1702  -10.3536  -44.7132 H         1 UNK         0.0600 
    184 H184       -2.8132  -12.8609  -45.1069 H         1 UNK         0.3000 
    185 H185       -4.1476  -16.0268  -44.2173 H         1 UNK         0.0600 
    186 H186       -6.1013  -14.3509  -44.3653 H         1 UNK         0.0600 
    187 H187       -5.3653  -13.7008  -45.8246 H         1 UNK         0.0600 
    188 H188       -5.9388  -15.3682  -45.7752 H         1 UNK         0.0600 
    189 H189       -2.1430  -14.7889  -45.5502 H         1 UNK         0.3000 
    190 H190       -0.4369  -20.3020  -46.8135 H         1 UNK         0.3000 
    191 H191       -2.1616  -20.9765  -48.9121 H         1 UNK         0.0600 
    192 H192       -2.1112  -18.7911  -47.4681 H         1 UNK         0.0600 
    193 H193       -3.6855  -19.3847  -47.9652 H         1 UNK         0.0600 
    194 H194       -3.1251  -19.6442  -46.3270 H         1 UNK         0.0600 
    195 H195       -2.3687  -21.9329  -45.4493 H         1 UNK         0.3000 
    196 H196       -4.7529  -23.4559  -45.6600 H         1 UNK         0.0600 
    197 H197       -4.0726  -24.3842  -43.4638 H         1 UNK         0.0600 
    198 H198       -3.8263  -22.6443  -43.5008 H         1 UNK         0.0600 
    199 H199       -2.4513  -23.7339  -43.6552 H         1 UNK         0.0600 
    200 H200       -1.3120  -24.4393  -45.9479 H         1 UNK         0.3000 
    201 H201       -1.7511  -27.2026  -46.4360 H         1 UNK         0.0600 
    202 H202        0.4500  -26.2386  -45.7873 H         1 UNK         0.0600 
    203 H203        0.5614  -25.4033  -47.3348 H         1 UNK         0.0600 
    204 H204        0.5880  -27.1604  -47.2778 H         1 UNK         0.0600 
    205 H205       -1.6469  -24.4179  -48.6635 H         1 UNK         0.3000 
    206 H206       -2.0368  -25.9709  -51.0755 H         1 UNK         0.0600 
    207 H207       -0.8096  -23.7869  -51.0080 H         1 UNK         0.0600 
    208 H208       -2.1507  -23.7469  -52.1336 H         1 UNK         0.0600 
    209 H209       -2.3020  -22.9620  -50.5640 H         1 UNK         0.0600 
    210 H210       -4.1707  -25.4527  -48.6106 H         1 UNK         0.3000 
    211 H211       -6.3310  -25.6472  -48.2800 H         1 UNK         0.0600 
    212 H212       -6.5906  -26.6468  -51.1629 H         1 UNK         0.0600 
    213 H213       -7.7434  -26.8908  -49.8599 H         1 UNK         0.0600 
    214 H214       -6.1587  -27.6419  -49.7728 H         1 UNK         0.0600 
    215 H215       -5.4623  -23.1415  -48.7089 H         1 UNK         0.3000 
    216 H216       -6.1512  -21.0681  -48.7867 H         1 UNK         0.0600 
    217 H217       -8.5353  -20.4772  -48.7250 H         1 UNK         0.0600 
    218 H218       -8.2509  -21.8756  -47.7020 H         1 UNK         0.0600 
    219 H219       -8.9997  -22.0760  -49.2859 H         1 UNK         0.0600 
    220 H220       -4.8800  -21.9627  -50.9602 H         1 UNK         0.3000 
    221 H221       -6.0684  -21.3050  -53.4720 H         1 UNK         0.0600 
    222 H222       -3.1319  -21.4034  -52.5862 H         1 UNK         0.0600 
    223 H223       -4.0566  -22.7339  -53.2888 H         1 UNK         0.0600 
    224 H224       -3.6821  -21.3153  -54.2527 H         1 UNK         0.0600 
    225 H225       -6.0670  -19.4326  -54.6620 H         1 UNK         0.3000 
    226 H226       -5.8595  -16.9014  -53.2594 H         1 UNK         0.0600 
    227 H227       -7.7600  -17.4230  -54.7629 H         1 UNK         0.0600 
    228 H228       -6.8762  -16.0246  -55.3489 H         1 UNK         0.0600 
    229 H229       -6.6635  -17.5853  -56.1346 H         1 UNK         0.0600 
    230 H230       -3.4340  -17.6694  -53.0690 H         1 UNK         0.3000 
    231 H231       -1.3201  -17.0911  -53.1736 H         1 UNK         0.0600 
    232 H232       -2.2073  -14.7103  -54.8723 H         1 UNK         0.0600 
    233 H233       -0.6773  -14.8623  -54.0206 H         1 UNK         0.0600 
    234 H234       -2.1755  -14.7764  -53.1093 H         1 UNK         0.0600 
    235 H235       -2.7231  -17.2486  -56.4068 H         1 UNK         0.3000 
    236 H236       -0.1677  -17.5551  -57.7632 H         1 UNK         0.0600 
    237 H237       -2.0964  -16.4486  -58.8447 H         1 UNK         0.0600 
    238 H238       -1.6246  -17.8673  -59.7665 H         1 UNK         0.0600 
    239 H239       -3.0502  -17.9263  -58.7346 H         1 UNK         0.0600 
    240 H240       -2.5770  -19.7878  -56.4725 H         1 UNK         0.3000 
    241 H241       -2.8401  -21.9840  -56.4142 H         1 UNK         0.0600 
    242 H242       -3.1219  -20.6025  -59.1467 H         1 UNK         0.3800 
    243 H243       -3.1851  -21.9688  -60.2272 H         1 UNK         0.3800 
    244 H244       -0.8232  -23.5462  -56.5094 H         1 UNK         0.0800 
    245 H245        0.1832  -22.1722  -56.8557 H         1 UNK         0.0800 
    246 H246        1.5975  -21.4031  -54.8370 H         1 UNK         0.0800 
    247 H247        0.4443  -20.1205  -55.1159 H         1 UNK         0.0800 
@<TRIPOS>BOND
     1    1    2 1    
     2    1  127 1    
     3    1  128 1    
     4    1  129 1    
     5    2    3 2    
     6    2    4 am   BACKBONE|DICT|INTERRES
     7    4    5 1    
     8    4  130 1    
     9    5    6 1    
    10    5   65 1    
    11    5  131 1    
    12    6    7 1    
    13    6  132 1    
    14    6  133 1    
    15    7    8 1    
    16    8    9 1    
    17    8  134 1    
    18    8  135 1    
    19    9   10 ar   
    20    9   14 ar   
    21   10   11 ar   
    22   10  136 1    
    23   11   12 ar   
    24   11  126 1    
    25   12   13 ar   
    26   12  137 1    
    27   13   14 ar   
    28   13   15 1    
    29   14  138 1    
    30   15   16 1    
    31   15  139 1    
    32   15  140 1    
    33   16   17 1    
    34   17   18 1    
    35   17  141 1    
    36   17  142 1    
    37   18   19 1    
    38   18   67 1    
    39   18  143 1    
    40   19   20 am   BACKBONE|DICT|INTERRES
    41   19  144 1    
    42   20   21 2    
    43   20   22 1    
    44   22   23 1    
    45   22   24 1    
    46   22  145 1    
    47   23  146 1    
    48   23  147 1    
    49   23  148 1    
    50   24   25 am   BACKBONE|DICT|INTERRES
    51   24  149 1    
    52   25   26 2    
    53   25   27 1    
    54   27   28 1    
    55   27   29 1    
    56   27  150 1    
    57   28  151 1    
    58   28  152 1    
    59   28  153 1    
    60   29   30 am   BACKBONE|DICT|INTERRES
    61   29  154 1    
    62   30   31 2    
    63   30   32 1    
    64   32   33 1    
    65   32   34 1    
    66   32  155 1    
    67   33  156 1    
    68   33  157 1    
    69   33  158 1    
    70   34   35 am   BACKBONE|DICT|INTERRES
    71   34  159 1    
    72   35   36 2    
    73   35   37 1    
    74   37   38 1    
    75   37   39 1    
    76   37  160 1    
    77   38  161 1    
    78   38  162 1    
    79   38  163 1    
    80   39   40 am   BACKBONE|DICT|INTERRES
    81   39  164 1    
    82   40   41 2    
    83   40   42 1    
    84   42   43 1    
    85   42   44 1    
    86   42  165 1    
    87   43  166 1    
    88   43  167 1    
    89   43  168 1    
    90   44   45 am   BACKBONE|DICT|INTERRES
    91   44  169 1    
    92   45   46 2    
    93   45   47 1    
    94   47   48 1    
    95   47   49 1    
    96   47  170 1    
    97   48  171 1    
    98   48  172 1    
    99   48  173 1    
   100   49   50 am   BACKBONE|DICT|INTERRES
   101   49  174 1    
   102   50   51 2    
   103   50   52 1    
   104   52   53 1    
   105   52   54 1    
   106   52  175 1    
   107   53  176 1    
   108   53  177 1    
   109   53  178 1    
   110   54   55 am   BACKBONE|DICT|INTERRES
   111   54  179 1    
   112   55   56 2    
   113   55   57 1    
   114   57   58 1    
   115   57   59 1    
   116   57  180 1    
   117   58  181 1    
   118   58  182 1    
   119   58  183 1    
   120   59   60 am   BACKBONE|DICT|INTERRES
   121   59  184 1    
   122   60   61 2    
   123   60   62 1    
   124   62   63 1    
   125   62   64 1    
   126   62  185 1    
   127   63  186 1    
   128   63  187 1    
   129   63  188 1    
   130   64   65 am   BACKBONE|DICT|INTERRES
   131   64  189 1    
   132   65   66 2    
   133   67   68 2    
   134   67   69 am   BACKBONE|DICT|INTERRES
   135   69   70 1    
   136   69  190 1    
   137   70   71 1    
   138   70   72 1    
   139   70  191 1    
   140   71  192 1    
   141   71  193 1    
   142   71  194 1    
   143   72   73 2    
   144   72   74 am   BACKBONE|DICT|INTERRES
   145   74   75 1    
   146   74  195 1    
   147   75   76 1    
   148   75   77 1    
   149   75  196 1    
   150   76  197 1    
   151   76  198 1    
   152   76  199 1    
   153   77   78 2    
   154   77   79 am   BACKBONE|DICT|INTERRES
   155   79   80 1    
   156   79  200 1    
   157   80   81 1    
   158   80   82 1    
   159   80  201 1    
   160   81  202 1    
   161   81  203 1    
   162   81  204 1    
   163   82   83 2    
   164   82   84 am   BACKBONE|DICT|INTERRES
   165   84   85 1    
   166   84  205 1    
   167   85   86 1    
   168   85   87 1    
   169   85  206 1    
   170   86  207 1    
   171   86  208 1    
   172   86  209 1    
   173   87   88 2    
   174   87   89 am   BACKBONE|DICT|INTERRES
   175   89   90 1    
   176   89  210 1    
   177   90   91 1    
   178   90   92 1    
   179   90  211 1    
   180   91  212 1    
   181   91  213 1    
   182   91  214 1    
   183   92   93 2    
   184   92   94 am   BACKBONE|DICT|INTERRES
   185   94   95 1    
   186   94  215 1    
   187   95   96 1    
   188   95   97 1    
   189   95  216 1    
   190   96  217 1    
   191   96  218 1    
   192   96  219 1    
   193   97   98 2    
   194   97   99 am   BACKBONE|DICT|INTERRES
   195   99  100 1    
   196   99  220 1    
   197  100  101 1    
   198  100  102 1    
   199  100  221 1    
   200  101  222 1    
   201  101  223 1    
   202  101  224 1    
   203  102  103 2    
   204  102  104 am   BACKBONE|DICT|INTERRES
   205  104  105 1    
   206  104  225 1    
   207  105  106 1    
   208  105  107 1    
   209  105  226 1    
   210  106  227 1    
   211  106  228 1    
   212  106  229 1    
   213  107  108 2    
   214  107  109 am   BACKBONE|DICT|INTERRES
   215  109  110 1    
   216  109  230 1    
   217  110  111 1    
   218  110  112 1    
   219  110  231 1    
   220  111  232 1    
   221  111  233 1    
   222  111  234 1    
   223  112  113 2    
   224  112  114 am   BACKBONE|DICT|INTERRES
   225  114  115 1    
   226  114  235 1    
   227  115  116 1    
   228  115  117 1    
   229  115  236 1    
   230  116  237 1    
   231  116  238 1    
   232  116  239 1    
   233  117  118 2    
   234  117  119 am   BACKBONE|DICT|INTERRES
   235  119  120 1    
   236  119  240 1    
   237  120  121 1    
   238  120  124 1    
   239  120  241 1    
   240  121  122 am   BACKBONE|DICT|INTERRES
   241  121  123 2    
   242  122  242 1    
   243  122  243 1    
   244  124  125 1    
   245  124  244 1    
   246  124  245 1    
   247  125  126 1    
   248  126  246 1    
   249  126  247 1    
@<TRIPOS>SUBSTRUCTURE
     1 UNK         1 GROUP             0       ****    0 ROOT    
