@<TRIPOS>MOLECULE
3R540
247   249    1
SMALL
USER_CHARGES


@<TRIPOS>ATOM
      1 CA          2.9887  -14.6430  -57.6670 C.3       0 UNK        -0.1800 
      2 C           3.2859  -14.9154  -56.1990 C.2       0 UNK         0.5000 
      3 O           4.3203  -15.5028  -55.8807 O.2       0 UNK        -0.5000 
      4 N           2.3885  -14.4900  -55.3069 N.am      1 UNK        -0.5000 
      5 CA          2.4838  -14.6544  -53.8583 C.3       1 UNK         0.1400 
      6 C6          2.1496  -16.0963  -53.3868 C.3       23 UNK        -0.0398 
      7 S7          0.5063  -16.7020  -53.9165 S.3       23 UNK        -0.2404 
      8 C8          0.4733  -18.3654  -53.1691 C.3       23 UNK        -0.0205 
      9 C9          0.5708  -18.3684  -51.6456 C.ar      23 UNK        -0.0193 
     10 C10        -0.1080  -17.4246  -50.8678 C.ar      23 UNK        -0.1150 
     11 C11        -0.0138  -17.4456  -49.4749 C.ar      23 UNK        -0.0193 
     12 C12         0.7745  -18.4184  -48.8544 C.ar      23 UNK        -0.1150 
     13 C13         1.4549  -19.3786  -49.6160 C.ar      23 UNK        -0.0193 
     14 C14         1.3431  -19.3432  -51.0090 C.ar      23 UNK        -0.1150 
     15 C15         2.3532  -20.4415  -48.9834 C.3       23 UNK        -0.0205 
     16 S16         1.9057  -20.9179  -47.2823 S.3       23 UNK        -0.2404 
     17 C17         0.2855  -21.7172  -47.5351 C.3       23 UNK        -0.0398 
     18 CA          0.1694  -23.0323  -46.7334 C.3       11 UNK         0.1400 
     19 N           0.2626  -22.8208  -45.2859 N.am      11 UNK        -0.5000 
     20 C           0.3472  -23.7973  -44.3729 C.2       10 UNK         0.5000 
     21 O           0.3759  -24.9947  -44.6549 O.2       10 UNK        -0.5000 
     22 CA          0.3567  -23.3662  -42.8974 C.3       10 UNK         0.1400 
     23 CB          1.7641  -22.9365  -42.4568 C.3       10 UNK        -0.1800 
     24 N          -0.5923  -22.2823  -42.6467 N.am      10 UNK        -0.5000 
     25 C          -1.9217  -22.4433  -42.5957 C.2       9 UNK         0.5000 
     26 O          -2.4828  -23.5335  -42.7140 O.2       9 UNK        -0.5000 
     27 CA         -2.7669  -21.1657  -42.4211 C.3       9 UNK         0.1400 
     28 CB         -2.8093  -20.7385  -40.9464 C.3       9 UNK        -0.1800 
     29 N          -2.2906  -20.0429  -43.2297 N.am      9 UNK        -0.5000 
     30 C          -2.2137  -20.0452  -44.5676 C.2       8 UNK         0.5000 
     31 O          -2.5687  -20.9853  -45.2738 O.2       8 UNK        -0.5000 
     32 CA         -1.6001  -18.8027  -45.2308 C.3       8 UNK         0.1400 
     33 CB         -2.6794  -17.7267  -45.3830 C.3       8 UNK        -0.1800 
     34 N          -0.4478  -18.2487  -44.5147 N.am      8 UNK        -0.5000 
     35 C           0.6436  -18.9292  -44.1309 C.2       7 UNK         0.5000 
     36 O           0.7911  -20.1402  -44.2850 O.2       7 UNK        -0.5000 
     37 CA          1.7316  -18.1257  -43.4045 C.3       7 UNK         0.1400 
     38 CB          2.5912  -17.3399  -44.4064 C.3       7 UNK        -0.1800 
     39 N           1.1369  -17.2119  -42.4311 N.am      7 UNK        -0.5000 
     40 C           0.6700  -17.5940  -41.2335 C.2       6 UNK         0.5000 
     41 O           0.7889  -18.7341  -40.7837 O.2       6 UNK        -0.5000 
     42 CA         -0.0844  -16.5309  -40.4120 C.3       6 UNK         0.1400 
     43 CB          0.8958  -15.7097  -39.5607 C.3       6 UNK        -0.1800 
     44 N          -0.8742  -15.6233  -41.2459 N.am      6 UNK        -0.5000 
     45 C          -1.9386  -15.9879  -41.9753 C.2       5 UNK         0.5000 
     46 O          -2.4055  -17.1277  -41.9785 O.2       5 UNK        -0.5000 
     47 CA         -2.5589  -14.9038  -42.8824 C.3       5 UNK         0.1400 
     48 CB         -3.6892  -14.1714  -42.1450 C.3       5 UNK        -0.1800 
     49 N          -1.5927  -13.9187  -43.3821 N.am      5 UNK        -0.5000 
     50 C          -0.5202  -14.1977  -44.1355 C.2       4 UNK         0.5000 
     51 O          -0.2135  -15.3387  -44.4889 O.2       4 UNK        -0.5000 
     52 CA          0.3923  -13.0038  -44.4733 C.3       4 UNK         0.1400 
     53 CB          1.2070  -12.5975  -43.2338 C.3       4 UNK        -0.1800 
     54 N           1.3281  -13.2865  -45.5617 N.am      4 UNK        -0.5000 
     55 C           0.9999  -13.4020  -46.8532 C.2       3 UNK         0.5000 
     56 O          -0.1521  -13.2855  -47.2826 O.2       3 UNK        -0.5000 
     57 CA          2.1716  -13.6836  -47.8175 C.3       3 UNK         0.1400 
     58 CB          2.6744  -15.1305  -47.6894 C.3       3 UNK        -0.1800 
     59 N           1.8200  -13.4203  -49.2147 N.am      3 UNK        -0.5000 
     60 C           1.6792  -12.1928  -49.7347 C.2       2 UNK         0.5000 
     61 O           1.8893  -11.1597  -49.0958 O.2       2 UNK        -0.5000 
     62 CA          1.2771  -12.1143  -51.2194 C.3       2 UNK         0.1400 
     63 CB          1.5247  -10.7179  -51.8314 C.3       2 UNK        -0.1800 
     64 N           1.9752  -13.1443  -51.9931 N.am      2 UNK        -0.5000 
     65 C           1.5931  -13.5860  -53.1971 C.2       1 UNK         0.5000 
     66 O           0.5921  -13.1746  -53.7916 O.2       1 UNK        -0.5000 
     67 C          -1.1069  -23.8048  -47.1172 C.2       11 UNK         0.5000 
     68 O          -1.0263  -24.7337  -47.9177 O.2       11 UNK        -0.5000 
     69 N          -2.2477  -23.4587  -46.5057 N.am      12 UNK        -0.5000 
     70 CA         -3.5226  -24.1526  -46.6785 C.3       12 UNK         0.1400 
     71 CB         -4.6479  -23.3540  -46.0055 C.3       12 UNK        -0.1800 
     72 C          -3.4926  -25.6022  -46.1657 C.2       12 UNK         0.5000 
     73 O          -4.0308  -26.4845  -46.8341 O.2       12 UNK        -0.5000 
     74 N          -2.8255  -25.8347  -45.0257 N.am      13 UNK        -0.5000 
     75 CA         -2.6023  -27.1682  -44.4593 C.3       13 UNK         0.1400 
     76 CB         -2.0401  -27.0364  -43.0359 C.3       13 UNK        -0.1800 
     77 C          -1.6847  -28.0422  -45.3382 C.2       13 UNK         0.5000 
     78 O          -1.9223  -29.2442  -45.4605 O.2       13 UNK        -0.5000 
     79 N          -0.6795  -27.4153  -45.9637 N.am      14 UNK        -0.5000 
     80 CA          0.2294  -28.0309  -46.9335 C.3       14 UNK         0.1400 
     81 CB          1.5007  -27.1709  -47.0236 C.3       14 UNK        -0.1800 
     82 C          -0.3915  -28.2174  -48.3357 C.2       14 UNK         0.5000 
     83 O           0.2180  -28.8841  -49.1729 O.2       14 UNK        -0.5000 
     84 N          -1.5662  -27.6136  -48.5733 N.am      15 UNK        -0.5000 
     85 CA         -2.2967  -27.5264  -49.8433 C.3       15 UNK         0.1400 
     86 CB         -2.7537  -28.9195  -50.3228 C.3       15 UNK        -0.1800 
     87 C          -1.5385  -26.7276  -50.9276 C.2       15 UNK         0.5000 
     88 O          -1.6988  -26.9902  -52.1213 O.2       15 UNK        -0.5000 
     89 N          -0.7385  -25.7463  -50.4943 N.am      16 UNK        -0.5000 
     90 CA         -0.0068  -24.8063  -51.3340 C.3       16 UNK         0.1400 
     91 CB          1.2659  -24.3610  -50.5917 C.3       16 UNK        -0.1800 
     92 C          -0.9305  -23.6262  -51.6754 C.2       16 UNK         0.5000 
     93 O          -0.9425  -22.6234  -50.9591 O.2       16 UNK        -0.5000 
     94 N          -1.7350  -23.8044  -52.7320 N.am      17 UNK        -0.5000 
     95 CA         -2.7447  -22.8942  -53.2926 C.3       17 UNK         0.1400 
     96 CB         -2.1258  -21.5474  -53.7142 C.3       17 UNK        -0.1800 
     97 C          -3.9835  -22.6859  -52.3984 C.2       17 UNK         0.5000 
     98 O          -5.1051  -22.7917  -52.8967 O.2       17 UNK        -0.5000 
     99 N          -3.7612  -22.4192  -51.1047 N.am      18 UNK        -0.5000 
    100 CA        -4.7288  -22.1882  -50.0276 C.3       18 UNK         0.1400 
    101 CB        -5.6138  -23.4309  -49.7942 C.3       18 UNK        -0.1800 
    102 C         -5.5675  -20.9113  -50.2295 C.2       18 UNK         0.5000 
    103 O         -5.3730  -19.9319  -49.5097 O.2       18 UNK        -0.5000 
    104 N         -6.4674  -20.9271  -51.2192 N.am      19 UNK        -0.5000 
    105 CA        -7.3693  -19.8344  -51.5876 C.3       19 UNK         0.1400 
    106 CB        -8.6401  -20.4378  -52.2123 C.3       19 UNK        -0.1800 
    107 C         -6.6714  -18.8186  -52.5162 C.2       19 UNK         0.5000 
    108 O         -7.1731  -18.5109  -53.5988 O.2       19 UNK        -0.5000 
    109 N         -5.5041  -18.3335  -52.0807 N.am      20 UNK        -0.5000 
    110 CA        -4.6137  -17.4585  -52.8446 C.3       20 UNK         0.1400 
    111 CB        -3.1683  -17.8347  -52.4928 C.3       20 UNK        -0.1800 
    112 C         -4.8665  -15.9554  -52.6072 C.2       20 UNK         0.5000 
    113 O         -4.1578  -15.1359  -53.1922 O.2       20 UNK        -0.5000 
    114 N         -5.8530  -15.6180  -51.7602 N.am      21 UNK        -0.5000 
    115 CA        -6.2187  -14.2635  -51.3207 C.3       21 UNK         0.1400 
    116 CB        -6.7426  -13.4129  -52.4976 C.3       21 UNK        -0.1800 
    117 C         -5.0770  -13.5875  -50.5312 C.2       21 UNK         0.5000 
    118 O         -4.6783  -12.4606  -50.8327 O.2       21 UNK        -0.5000 
    119 N         -4.5605  -14.3302  -49.5461 N.am      22 UNK        -0.5000 
    120 CA        -3.4674  -13.9526  -48.6383 C.3       22 UNK         0.1400 
    121 C         -3.7589  -12.7034  -47.7568 C.2       22 UNK         0.5000 
    122 N         -2.7254  -12.0932  -47.1928 N.am      22 UNK        -0.7600 
    123 O         -4.9028  -12.3071  -47.5420 O.2       22 UNK        -0.5000 
    124 C124       -3.0657  -15.1531  -47.7481 C.3       23 UNK        -0.0398 
    125 S125       -2.5416  -16.6071  -48.7185 S.3       23 UNK        -0.2404 
    126 C126       -0.7400  -16.3955  -48.6497 C.3       23 UNK        -0.0205 
    127 H127        3.7795  -14.0331  -58.1036 H         1 UNK         0.0600 
    128 H128        2.0422  -14.1175  -57.7977 H         1 UNK         0.0600 
    129 H129        2.9353  -15.5812  -58.2192 H         1 UNK         0.0600 
    130 H130        1.5563  -13.9931  -55.6010 H         1 UNK         0.3000 
    131 H131        3.5128  -14.4318  -53.5675 H         1 UNK         0.0600 
    132 H132        2.9018  -16.7870  -53.7696 H         1 UNK         0.0800 
    133 H133        2.2198  -16.1599  -52.3000 H         1 UNK         0.0800 
    134 H134        1.2828  -18.9527  -53.6053 H         1 UNK         0.0800 
    135 H135       -0.4542  -18.8598  -53.4580 H         1 UNK         0.0800 
    136 H136       -0.7136  -16.6666  -51.3435 H         1 UNK         0.1150 
    137 H137        0.8617  -18.4168  -47.7775 H         1 UNK         0.1150 
    138 H138        1.8681  -20.0782  -51.6030 H         1 UNK         0.1150 
    139 H139        2.3630  -21.3413  -49.6008 H         1 UNK         0.0800 
    140 H140        3.3753  -20.0616  -48.9753 H         1 UNK         0.0800 
    141 H141        0.1471  -21.9051  -48.6009 H         1 UNK         0.0800 
    142 H142       -0.4995  -21.0178  -47.2490 H         1 UNK         0.0800 
    143 H143        1.0129  -23.6660  -47.0156 H         1 UNK         0.0600 
    144 H144        0.3043  -21.8550  -44.9700 H         1 UNK         0.3000 
    145 H145        0.0644  -24.2288  -42.2946 H         1 UNK         0.0600 
    146 H146        1.7810  -22.6662  -41.4009 H         1 UNK         0.0600 
    147 H147        2.4789  -23.7483  -42.5968 H         1 UNK         0.0600 
    148 H148        2.1262  -22.0807  -43.0271 H         1 UNK         0.0600 
    149 H149       -0.2138  -21.3445  -42.6278 H         1 UNK         0.3000 
    150 H150       -3.7850  -21.3966  -42.7412 H         1 UNK         0.0600 
    151 H151       -3.1755  -21.5485  -40.3143 H         1 UNK         0.0600 
    152 H152       -3.4743  -19.8865  -40.8025 H         1 UNK         0.0600 
    153 H153       -1.8210  -20.4552  -40.5812 H         1 UNK         0.0600 
    154 H154       -2.0150  -19.2026  -42.7353 H         1 UNK         0.3000 
    155 H155       -1.2506  -19.0768  -46.2269 H         1 UNK         0.0600 
    156 H156       -3.2348  -17.5731  -44.4587 H         1 UNK         0.0600 
    157 H157       -3.4034  -18.0139  -46.1462 H         1 UNK         0.0600 
    158 H158       -2.2440  -16.7744  -45.6762 H         1 UNK         0.0600 
    159 H159       -0.4521  -17.2431  -44.3712 H         1 UNK         0.3000 
    160 H160        2.3820  -18.8302  -42.8813 H         1 UNK         0.0600 
    161 H161        3.3817  -16.7861  -43.9000 H         1 UNK         0.0600 
    162 H162        1.9976  -16.6292  -44.9802 H         1 UNK         0.0600 
    163 H163        3.0689  -18.0137  -45.1190 H         1 UNK         0.0600 
    164 H164        0.9423  -16.2747  -42.7546 H         1 UNK         0.3000 
    165 H165       -0.7680  -17.0541  -39.7399 H         1 UNK         0.0600 
    166 H166        0.3663  -15.0063  -38.9178 H         1 UNK         0.0600 
    167 H167        1.4877  -16.3579  -38.9131 H         1 UNK         0.0600 
    168 H168        1.5907  -15.1416  -40.1805 H         1 UNK         0.0600 
    169 H169       -0.5659  -14.6639  -41.2945 H         1 UNK         0.3000 
    170 H170       -2.9938  -15.4006  -43.7493 H         1 UNK         0.0600 
    171 H171       -4.4402  -14.8755  -41.7839 H         1 UNK         0.0600 
    172 H172       -3.3158  -13.6184  -41.2823 H         1 UNK         0.0600 
    173 H173       -4.1978  -13.4663  -42.8029 H         1 UNK         0.0600 
    174 H174       -1.7665  -12.9584  -43.1224 H         1 UNK         0.3000 
    175 H175       -0.2391  -12.1645  -44.7725 H         1 UNK         0.0600 
    176 H176        1.8486  -13.4099  -42.8894 H         1 UNK         0.0600 
    177 H177        1.8420  -11.7367  -43.4450 H         1 UNK         0.0600 
    178 H178        0.5572  -12.3181  -42.4037 H         1 UNK         0.0600 
    179 H179        2.2897  -13.4282  -45.2913 H         1 UNK         0.3000 
    180 H180        2.9940  -13.0182  -47.5456 H         1 UNK         0.0600 
    181 H181        1.8862  -15.8563  -47.8765 H         1 UNK         0.0600 
    182 H182        3.0637  -15.3214  -46.6895 H         1 UNK         0.0600 
    183 H183        3.4851  -15.3310  -48.3900 H         1 UNK         0.0600 
    184 H184        1.5877  -14.2211  -49.7820 H         1 UNK         0.3000 
    185 H185        0.2050  -12.3193  -51.2544 H         1 UNK         0.0600 
    186 H186        0.9933   -9.9444  -51.2756 H         1 UNK         0.0600 
    187 H187        2.5846  -10.4616  -51.8236 H         1 UNK         0.0600 
    188 H188        1.1752  -10.6621  -52.8621 H         1 UNK         0.0600 
    189 H189        2.8194  -13.5076  -51.5711 H         1 UNK         0.3000 
    190 H190       -2.2572  -22.6417  -45.8968 H         1 UNK         0.3000 
    191 H191       -3.7259  -24.1928  -47.7484 H         1 UNK         0.0600 
    192 H192       -4.4692  -23.2321  -44.9363 H         1 UNK         0.0600 
    193 H193       -5.6098  -23.8539  -46.1258 H         1 UNK         0.0600 
    194 H194       -4.7413  -22.3604  -46.4443 H         1 UNK         0.0600 
    195 H195       -2.4227  -25.0527  -44.5251 H         1 UNK         0.3000 
    196 H196       -3.5704  -27.6691  -44.3934 H         1 UNK         0.0600 
    197 H197       -1.9091  -28.0169  -42.5766 H         1 UNK         0.0600 
    198 H198       -2.7141  -26.4651  -42.3973 H         1 UNK         0.0600 
    199 H199       -1.0705  -26.5388  -43.0270 H         1 UNK         0.0600 
    200 H200       -0.5110  -26.4379  -45.7463 H         1 UNK         0.3000 
    201 H201        0.5119  -29.0197  -46.5667 H         1 UNK         0.0600 
    202 H202        1.9738  -27.0617  -46.0475 H         1 UNK         0.0600 
    203 H203        1.2837  -26.1721  -47.4034 H         1 UNK         0.0600 
    204 H204        2.2348  -27.6229  -47.6917 H         1 UNK         0.0600 
    205 H205       -1.9628  -27.0733  -47.8159 H         1 UNK         0.3000 
    206 H206       -3.1954  -26.9474  -49.6259 H         1 UNK         0.0600 
    207 H207       -3.2858  -29.4521  -49.5345 H         1 UNK         0.0600 
    208 H208       -3.4329  -28.8364  -51.1720 H         1 UNK         0.0600 
    209 H209       -1.9130  -29.5376  -50.6385 H         1 UNK         0.0600 
    210 H210       -0.7447  -25.5316  -49.4982 H         1 UNK         0.3000 
    211 H211        0.2995  -25.2935  -52.2622 H         1 UNK         0.0600 
    212 H212        1.0387  -23.9086  -49.6271 H         1 UNK         0.0600 
    213 H213        1.8221  -23.6274  -51.1762 H         1 UNK         0.0600 
    214 H214        1.9295  -25.2068  -50.4113 H         1 UNK         0.0600 
    215 H215       -1.6903  -24.7078  -53.1857 H         1 UNK         0.3000 
    216 H216       -3.1002  -23.3820  -54.2016 H         1 UNK         0.0600 
    217 H217       -2.8647  -20.9210  -54.2154 H         1 UNK         0.0600 
    218 H218       -1.2992  -21.6937  -54.4093 H         1 UNK         0.0600 
    219 H219       -1.7479  -20.9851  -52.8601 H         1 UNK         0.0600 
    220 H220       -2.7824  -22.3454  -50.8347 H         1 UNK         0.3000 
    221 H221       -4.1340  -22.0368  -49.1252 H         1 UNK         0.0600 
    222 H222       -6.2949  -23.6192  -50.6243 H         1 UNK         0.0600 
    223 H223       -5.0102  -24.3284  -49.6627 H         1 UNK         0.0600 
    224 H224       -6.2216  -23.3098  -48.8968 H         1 UNK         0.0600 
    225 H225       -6.4491  -21.7282  -51.8421 H         1 UNK         0.3000 
    226 H226       -7.6665  -19.2963  -50.6851 H         1 UNK         0.0600 
    227 H227       -9.3621  -19.6598  -52.4636 H         1 UNK         0.0600 
    228 H228       -8.4160  -20.9891  -53.1265 H         1 UNK         0.0600 
    229 H229       -9.1313  -21.1226  -51.5207 H         1 UNK         0.0600 
    230 H230       -5.1747  -18.6401  -51.1718 H         1 UNK         0.3000 
    231 H231       -4.7535  -17.6396  -53.9123 H         1 UNK         0.0600 
    232 H232       -2.9654  -18.8783  -52.7276 H         1 UNK         0.0600 
    233 H233       -2.9656  -17.6883  -51.4327 H         1 UNK         0.0600 
    234 H234       -2.4554  -17.2310  -53.0549 H         1 UNK         0.0600 
    235 H235       -6.3730  -16.3735  -51.3382 H         1 UNK         0.3000 
    236 H236       -7.0446  -14.3821  -50.6176 H         1 UNK         0.0600 
    237 H237       -7.5560  -13.9187  -53.0177 H         1 UNK         0.0600 
    238 H238       -7.1292  -12.4569  -52.1426 H         1 UNK         0.0600 
    239 H239       -5.9618  -13.1959  -53.2268 H         1 UNK         0.0600 
    240 H240       -4.9428  -15.2514  -49.3962 H         1 UNK         0.3000 
    241 H241       -2.6144  -13.6954  -49.2694 H         1 UNK         0.0600 
    242 H242       -2.8885  -11.2847  -46.6148 H         1 UNK         0.3800 
    243 H243       -1.7763  -12.4462  -47.3098 H         1 UNK         0.3800 
    244 H244       -3.9055  -15.4511  -47.1180 H         1 UNK         0.0800 
    245 H245       -2.2630  -14.8772  -47.0627 H         1 UNK         0.0800 
    246 H246       -0.4818  -15.4050  -49.0254 H         1 UNK         0.0800 
    247 H247       -0.4198  -16.4306  -47.6068 H         1 UNK         0.0800 
@<TRIPOS>BOND
     1    1    2 1    
     2    1  127 1    
     3    1  128 1    
     4    1  129 1    
     5    2    3 2    
     6    2    4 am   BACKBONE|DICT|INTERRES
     7    4    5 1    
     8    4  130 1    
     9    5    6 1    
    10    5   65 1    
    11    5  131 1    
    12    6    7 1    
    13    6  132 1    
    14    6  133 1    
    15    7    8 1    
    16    8    9 1    
    17    8  134 1    
    18    8  135 1    
    19    9   10 ar   
    20    9   14 ar   
    21   10   11 ar   
    22   10  136 1    
    23   11   12 ar   
    24   11  126 1    
    25   12   13 ar   
    26   12  137 1    
    27   13   14 ar   
    28   13   15 1    
    29   14  138 1    
    30   15   16 1    
    31   15  139 1    
    32   15  140 1    
    33   16   17 1    
    34   17   18 1    
    35   17  141 1    
    36   17  142 1    
    37   18   19 1    
    38   18   67 1    
    39   18  143 1    
    40   19   20 am   BACKBONE|DICT|INTERRES
    41   19  144 1    
    42   20   21 2    
    43   20   22 1    
    44   22   23 1    
    45   22   24 1    
    46   22  145 1    
    47   23  146 1    
    48   23  147 1    
    49   23  148 1    
    50   24   25 am   BACKBONE|DICT|INTERRES
    51   24  149 1    
    52   25   26 2    
    53   25   27 1    
    54   27   28 1    
    55   27   29 1    
    56   27  150 1    
    57   28  151 1    
    58   28  152 1    
    59   28  153 1    
    60   29   30 am   BACKBONE|DICT|INTERRES
    61   29  154 1    
    62   30   31 2    
    63   30   32 1    
    64   32   33 1    
    65   32   34 1    
    66   32  155 1    
    67   33  156 1    
    68   33  157 1    
    69   33  158 1    
    70   34   35 am   BACKBONE|DICT|INTERRES
    71   34  159 1    
    72   35   36 2    
    73   35   37 1    
    74   37   38 1    
    75   37   39 1    
    76   37  160 1    
    77   38  161 1    
    78   38  162 1    
    79   38  163 1    
    80   39   40 am   BACKBONE|DICT|INTERRES
    81   39  164 1    
    82   40   41 2    
    83   40   42 1    
    84   42   43 1    
    85   42   44 1    
    86   42  165 1    
    87   43  166 1    
    88   43  167 1    
    89   43  168 1    
    90   44   45 am   BACKBONE|DICT|INTERRES
    91   44  169 1    
    92   45   46 2    
    93   45   47 1    
    94   47   48 1    
    95   47   49 1    
    96   47  170 1    
    97   48  171 1    
    98   48  172 1    
    99   48  173 1    
   100   49   50 am   BACKBONE|DICT|INTERRES
   101   49  174 1    
   102   50   51 2    
   103   50   52 1    
   104   52   53 1    
   105   52   54 1    
   106   52  175 1    
   107   53  176 1    
   108   53  177 1    
   109   53  178 1    
   110   54   55 am   BACKBONE|DICT|INTERRES
   111   54  179 1    
   112   55   56 2    
   113   55   57 1    
   114   57   58 1    
   115   57   59 1    
   116   57  180 1    
   117   58  181 1    
   118   58  182 1    
   119   58  183 1    
   120   59   60 am   BACKBONE|DICT|INTERRES
   121   59  184 1    
   122   60   61 2    
   123   60   62 1    
   124   62   63 1    
   125   62   64 1    
   126   62  185 1    
   127   63  186 1    
   128   63  187 1    
   129   63  188 1    
   130   64   65 am   BACKBONE|DICT|INTERRES
   131   64  189 1    
   132   65   66 2    
   133   67   68 2    
   134   67   69 am   BACKBONE|DICT|INTERRES
   135   69   70 1    
   136   69  190 1    
   137   70   71 1    
   138   70   72 1    
   139   70  191 1    
   140   71  192 1    
   141   71  193 1    
   142   71  194 1    
   143   72   73 2    
   144   72   74 am   BACKBONE|DICT|INTERRES
   145   74   75 1    
   146   74  195 1    
   147   75   76 1    
   148   75   77 1    
   149   75  196 1    
   150   76  197 1    
   151   76  198 1    
   152   76  199 1    
   153   77   78 2    
   154   77   79 am   BACKBONE|DICT|INTERRES
   155   79   80 1    
   156   79  200 1    
   157   80   81 1    
   158   80   82 1    
   159   80  201 1    
   160   81  202 1    
   161   81  203 1    
   162   81  204 1    
   163   82   83 2    
   164   82   84 am   BACKBONE|DICT|INTERRES
   165   84   85 1    
   166   84  205 1    
   167   85   86 1    
   168   85   87 1    
   169   85  206 1    
   170   86  207 1    
   171   86  208 1    
   172   86  209 1    
   173   87   88 2    
   174   87   89 am   BACKBONE|DICT|INTERRES
   175   89   90 1    
   176   89  210 1    
   177   90   91 1    
   178   90   92 1    
   179   90  211 1    
   180   91  212 1    
   181   91  213 1    
   182   91  214 1    
   183   92   93 2    
   184   92   94 am   BACKBONE|DICT|INTERRES
   185   94   95 1    
   186   94  215 1    
   187   95   96 1    
   188   95   97 1    
   189   95  216 1    
   190   96  217 1    
   191   96  218 1    
   192   96  219 1    
   193   97   98 2    
   194   97   99 am   BACKBONE|DICT|INTERRES
   195   99  100 1    
   196   99  220 1    
   197  100  101 1    
   198  100  102 1    
   199  100  221 1    
   200  101  222 1    
   201  101  223 1    
   202  101  224 1    
   203  102  103 2    
   204  102  104 am   BACKBONE|DICT|INTERRES
   205  104  105 1    
   206  104  225 1    
   207  105  106 1    
   208  105  107 1    
   209  105  226 1    
   210  106  227 1    
   211  106  228 1    
   212  106  229 1    
   213  107  108 2    
   214  107  109 am   BACKBONE|DICT|INTERRES
   215  109  110 1    
   216  109  230 1    
   217  110  111 1    
   218  110  112 1    
   219  110  231 1    
   220  111  232 1    
   221  111  233 1    
   222  111  234 1    
   223  112  113 2    
   224  112  114 am   BACKBONE|DICT|INTERRES
   225  114  115 1    
   226  114  235 1    
   227  115  116 1    
   228  115  117 1    
   229  115  236 1    
   230  116  237 1    
   231  116  238 1    
   232  116  239 1    
   233  117  118 2    
   234  117  119 am   BACKBONE|DICT|INTERRES
   235  119  120 1    
   236  119  240 1    
   237  120  121 1    
   238  120  124 1    
   239  120  241 1    
   240  121  122 am   BACKBONE|DICT|INTERRES
   241  121  123 2    
   242  122  242 1    
   243  122  243 1    
   244  124  125 1    
   245  124  244 1    
   246  124  245 1    
   247  125  126 1    
   248  126  246 1    
   249  126  247 1    
@<TRIPOS>SUBSTRUCTURE
     1 UNK         1 GROUP             0       ****    0 ROOT    
