@<TRIPOS>MOLECULE
3R540
247   249    1
SMALL
USER_CHARGES


@<TRIPOS>ATOM
      1 CA          3.5903  -13.0774  -51.1727 C.3       0 UNK        -0.1800 
      2 C           3.2182  -14.2915  -50.3331 C.2       0 UNK         0.5000 
      3 O           3.4665  -15.4230  -50.7499 O.2       0 UNK        -0.5000 
      4 N           2.6187  -14.0589  -49.1596 N.am      1 UNK        -0.5000 
      5 CA          2.2123  -15.0874  -48.1973 C.3       1 UNK         0.1400 
      6 C6          1.3186  -14.5076  -47.0743 C.3       23 UNK        -0.0398 
      7 S7         -0.1018  -13.5073  -47.6400 S.3       23 UNK        -0.2404 
      8 C8         -1.4916  -14.6693  -47.4686 C.3       23 UNK        -0.0205 
      9 C9         -1.6148  -15.5720  -48.6830 C.ar      23 UNK        -0.0193 
     10 C10        -2.3394  -15.1468  -49.7995 C.ar      23 UNK        -0.1150 
     11 C11        -2.4602  -15.9706  -50.9213 C.ar      23 UNK        -0.0193 
     12 C12        -1.8307  -17.2180  -50.9263 C.ar      23 UNK        -0.1150 
     13 C13        -1.1098  -17.6615  -49.8139 C.ar      23 UNK        -0.0193 
     14 C14        -1.0194  -16.8350  -48.6874 C.ar      23 UNK        -0.1150 
     15 C15        -0.4950  -19.0557  -49.8506 C.3       23 UNK        -0.0205 
     16 S16         0.9905  -19.2687  -48.8104 S.3       23 UNK        -0.2404 
     17 C17         1.2670  -21.0628  -49.0272 C.3       23 UNK        -0.0398 
     18 CA          0.7732  -21.9363  -47.8478 C.3       11 UNK         0.1400 
     19 N           1.4420  -21.6026  -46.5912 N.am      11 UNK        -0.5000 
     20 C           1.4631  -22.3946  -45.5117 C.2       10 UNK         0.5000 
     21 O           0.9304  -23.5033  -45.4619 O.2       10 UNK        -0.5000 
     22 CA          2.1447  -21.8135  -44.2620 C.3       10 UNK         0.1400 
     23 CB          3.6674  -22.0000  -44.3345 C.3       10 UNK        -0.1800 
     24 N           1.8338  -20.3965  -44.0647 N.am      10 UNK        -0.5000 
     25 C           0.6075  -19.9167  -43.8322 C.2       9 UNK         0.5000 
     26 O          -0.4062  -20.6180  -43.8039 O.2       9 UNK        -0.5000 
     27 CA          0.4910  -18.3927  -43.6657 C.3       9 UNK         0.1400 
     28 CB          0.1863  -17.7459  -45.0237 C.3       9 UNK        -0.1800 
     29 N          -0.5526  -18.0158  -42.7125 N.am      9 UNK        -0.5000 
     30 C          -0.5769  -18.3671  -41.4168 C.2       8 UNK         0.5000 
     31 O           0.3223  -19.0060  -40.8679 O.2       8 UNK        -0.5000 
     32 CA         -1.7911  -17.9298  -40.5727 C.3       8 UNK         0.1400 
     33 CB         -1.3779  -16.8875  -39.5207 C.3       8 UNK        -0.1800 
     34 N          -2.8861  -17.3873  -41.3758 N.am      8 UNK        -0.5000 
     35 C          -3.7639  -18.1267  -42.0683 C.2       7 UNK         0.5000 
     36 O          -3.7847  -19.3572  -42.0453 O.2       7 UNK        -0.5000 
     37 CA         -4.7925  -17.3729  -42.9369 C.3       7 UNK         0.1400 
     38 CB         -6.1839  -17.4200  -42.2865 C.3       7 UNK        -0.1800 
     39 N          -4.4446  -15.9736  -43.2030 N.am      7 UNK        -0.5000 
     40 C          -3.4051  -15.5650  -43.9427 C.2       6 UNK         0.5000 
     41 O          -2.6192  -16.3446  -44.4806 O.2       6 UNK        -0.5000 
     42 CA         -3.2120  -14.0410  -44.1138 C.3       6 UNK         0.1400 
     43 CB         -3.9958  -13.1936  -43.0857 C.3       6 UNK        -0.1800 
     44 N          -1.8027  -13.6312  -44.1242 N.am      6 UNK        -0.5000 
     45 C          -0.8901  -13.8453  -43.1658 C.2       5 UNK         0.5000 
     46 O          -1.1032  -14.4860  -42.1336 O.2       5 UNK        -0.5000 
     47 CA          0.4676  -13.1511  -43.3777 C.3       5 UNK         0.1400 
     48 CB          0.3830  -11.6777  -42.9480 C.3       5 UNK        -0.1800 
     49 N           1.5354  -13.7951  -42.6139 N.am      5 UNK        -0.5000 
     50 C           2.2460  -14.8402  -43.0481 C.2       4 UNK         0.5000 
     51 O           2.1057  -15.3462  -44.1615 O.2       4 UNK        -0.5000 
     52 CA          3.3021  -15.4044  -42.0879 C.3       4 UNK         0.1400 
     53 CB          2.6569  -16.0778  -40.8631 C.3       4 UNK        -0.1800 
     54 N           4.1198  -16.3720  -42.8120 N.am      4 UNK        -0.5000 
     55 C           5.3691  -16.7338  -42.5167 C.2       3 UNK         0.5000 
     56 O           5.9932  -16.2822  -41.5554 O.2       3 UNK        -0.5000 
     57 CA          6.0585  -17.7626  -43.4381 C.3       3 UNK         0.1400 
     58 CB          5.8425  -19.1930  -42.9072 C.3       3 UNK        -0.1800 
     59 N           5.7275  -17.6706  -44.8703 N.am      3 UNK        -0.5000 
     60 C           4.5740  -17.9565  -45.4879 C.2       2 UNK         0.5000 
     61 O           3.5477  -18.3040  -44.9026 O.2       2 UNK        -0.5000 
     62 CA          4.5835  -17.9003  -47.0249 C.3       2 UNK         0.1400 
     63 CB          4.5134  -19.3205  -47.6063 C.3       2 UNK        -0.1800 
     64 N           3.4657  -17.1118  -47.5442 N.am      2 UNK        -0.5000 
     65 C           3.4547  -15.7733  -47.5826 C.2       1 UNK         0.5000 
     66 O           4.3833  -15.0754  -47.1651 O.2       1 UNK        -0.5000 
     67 C          -0.7641  -21.9234  -47.7122 C.2       11 UNK         0.5000 
     68 O          -1.4267  -22.7134  -48.3787 O.2       11 UNK        -0.5000 
     69 N          -1.3064  -21.0506  -46.8489 N.am      12 UNK        -0.5000 
     70 CA         -2.7394  -20.9708  -46.5631 C.3       12 UNK         0.1400 
     71 CB         -3.0817  -19.6213  -45.9138 C.3       12 UNK        -0.1800 
     72 C          -3.2044  -22.1440  -45.6857 C.2       12 UNK         0.5000 
     73 O          -4.2600  -22.7169  -45.9535 O.2       12 UNK        -0.5000 
     74 N          -2.3873  -22.5058  -44.6863 N.am      13 UNK        -0.5000 
     75 CA         -2.5995  -23.6497  -43.7999 C.3       13 UNK         0.1400 
     76 CB         -1.5708  -23.6068  -42.6596 C.3       13 UNK        -0.1800 
     77 C          -2.5402  -24.9969  -44.5441 C.2       13 UNK         0.5000 
     78 O          -3.3810  -25.8630  -44.2997 O.2       13 UNK        -0.5000 
     79 N          -1.5685  -25.1397  -45.4568 N.am      14 UNK        -0.5000 
     80 CA         -1.4208  -26.3072  -46.3300 C.3       14 UNK         0.1400 
     81 CB          0.0054  -26.3206  -46.9018 C.3       14 UNK        -0.1800 
     82 C          -2.4456  -26.3426  -47.4815 C.2       14 UNK         0.5000 
     83 O          -2.6791  -27.4112  -48.0485 O.2       14 UNK        -0.5000 
     84 N          -3.0001  -25.1732  -47.8301 N.am      15 UNK        -0.5000 
     85 CA         -3.8424  -24.8456  -48.9843 C.3       15 UNK         0.1400 
     86 CB         -5.1482  -25.6620  -49.0126 C.3       15 UNK        -0.1800 
     87 C          -3.0672  -24.9332  -50.3106 C.2       15 UNK         0.5000 
     88 O          -2.9309  -23.9209  -50.9996 O.2       15 UNK        -0.5000 
     89 N          -2.5642  -26.1365  -50.6284 N.am      16 UNK        -0.5000 
     90 CA         -1.5852  -26.4848  -51.6703 C.3       16 UNK         0.1400 
     91 CB         -0.2054  -25.9289  -51.2598 C.3       16 UNK        -0.1800 
     92 C          -1.9492  -26.0742  -53.1163 C.2       16 UNK         0.5000 
     93 O          -1.0687  -26.0562  -53.9770 O.2       16 UNK        -0.5000 
     94 N          -3.2169  -25.6988  -53.3454 N.am      17 UNK        -0.5000 
     95 CA         -3.7507  -24.9827  -54.5147 C.3       17 UNK         0.1400 
     96 CB         -3.5973  -25.8091  -55.8073 C.3       17 UNK        -0.1800 
     97 C          -3.2010  -23.5433  -54.6731 C.2       17 UNK         0.5000 
     98 O          -3.5498  -22.8649  -55.6386 O.2       17 UNK        -0.5000 
     99 N          -2.3956  -23.0794  -53.7086 N.am      18 UNK        -0.5000 
    100 CA        -1.8445  -21.7306  -53.6256 C.3       18 UNK         0.1400 
    101 CB        -0.5719  -21.7615  -52.7663 C.3       18 UNK        -0.1800 
    102 C         -2.8776  -20.7616  -53.0343 C.2       18 UNK         0.5000 
    103 O         -3.0018  -19.6373  -53.5150 O.2       18 UNK        -0.5000 
    104 N         -3.6518  -21.2396  -52.0492 N.am      19 UNK        -0.5000 
    105 CA        -4.7831  -20.5224  -51.4551 C.3       19 UNK         0.1400 
    106 CB        -5.2530  -21.2912  -50.2119 C.3       19 UNK        -0.1800 
    107 C         -5.9542  -20.3161  -52.4401 C.2       19 UNK         0.5000 
    108 O         -6.7456  -19.3906  -52.2642 O.2       19 UNK        -0.5000 
    109 N         -6.0375  -21.1740  -53.4661 N.am      20 UNK        -0.5000 
    110 CA        -6.9993  -21.0737  -54.5637 C.3       20 UNK         0.1400 
    111 CB        -7.2394  -22.4794  -55.1368 C.3       20 UNK        -0.1800 
    112 C         -6.5346  -20.1121  -55.6766 C.2       20 UNK         0.5000 
    113 O         -7.3630  -19.6718  -56.4742 O.2       20 UNK        -0.5000 
    114 N         -5.2306  -19.8039  -55.7249 N.am      21 UNK        -0.5000 
    115 CA        -4.6010  -18.9831  -56.7619 C.3       21 UNK         0.1400 
    116 CB        -3.1406  -19.4336  -56.9357 C.3       21 UNK        -0.1800 
    117 C         -4.6806  -17.4687  -56.4829 C.2       21 UNK         0.5000 
    118 O         -4.2175  -16.6856  -57.3137 O.2       21 UNK        -0.5000 
    119 N         -5.2501  -17.0730  -55.3361 N.am      22 UNK        -0.5000 
    120 CA        -5.3991  -15.6710  -54.9062 C.3       22 UNK         0.1400 
    121 C         -6.3571  -14.8060  -55.7801 C.2       22 UNK         0.5000 
    122 N         -7.2162  -15.3898  -56.6073 N.am      22 UNK        -0.7600 
    123 O         -6.3187  -13.5809  -55.7042 O.2       22 UNK        -0.5000 
    124 C124       -5.8033  -15.5490  -53.4137 C.3       23 UNK        -0.0398 
    125 S125       -4.7908  -16.5400  -52.2665 S.3       23 UNK        -0.2404 
    126 C126       -3.2884  -15.5267  -52.1171 C.3       23 UNK        -0.0205 
    127 H127        4.6668  -13.0542  -51.3423 H         1 UNK         0.0600 
    128 H128        3.3024  -12.1445  -50.6871 H         1 UNK         0.0600 
    129 H129        3.0922  -13.1239  -52.1411 H         1 UNK         0.0600 
    130 H130        2.4442  -13.1071  -48.8715 H         1 UNK         0.3000 
    131 H131        1.6352  -15.8359  -48.7436 H         1 UNK         0.0600 
    132 H132        0.9496  -15.3175  -46.4488 H         1 UNK         0.0800 
    133 H133        1.9126  -13.8674  -46.4198 H         1 UNK         0.0800 
    134 H134       -1.3817  -15.2615  -46.5600 H         1 UNK         0.0800 
    135 H135       -2.4129  -14.0982  -47.3481 H         1 UNK         0.0800 
    136 H136       -2.8152  -14.1762  -49.7896 H         1 UNK         0.1150 
    137 H137       -1.9305  -17.8560  -51.7936 H         1 UNK         0.1150 
    138 H138       -0.4864  -17.1666  -47.8093 H         1 UNK         0.1150 
    139 H139       -1.2639  -19.7680  -49.5513 H         1 UNK         0.0800 
    140 H140       -0.2231  -19.3027  -50.8771 H         1 UNK         0.0800 
    141 H141        2.3387  -21.2154  -49.1609 H         1 UNK         0.0800 
    142 H142        0.8141  -21.3974  -49.9616 H         1 UNK         0.0800 
    143 H143        1.0462  -22.9665  -48.0881 H         1 UNK         0.0600 
    144 H144        1.8759  -20.6935  -46.5361 H         1 UNK         0.3000 
    145 H145        1.7717  -22.3647  -43.3963 H         1 UNK         0.0600 
    146 H146        4.1402  -21.7266  -43.3917 H         1 UNK         0.0600 
    147 H147        3.9259  -23.0409  -44.5335 H         1 UNK         0.0600 
    148 H148        4.1135  -21.3926  -45.1230 H         1 UNK         0.0600 
    149 H149        2.5975  -19.7323  -44.1715 H         1 UNK         0.3000 
    150 H150        1.4365  -17.9998  -43.2892 H         1 UNK         0.0600 
    151 H151        1.0218  -17.8631  -45.7139 H         1 UNK         0.0600 
    152 H152       -0.0001  -16.6798  -44.9104 H         1 UNK         0.0600 
    153 H153       -0.6932  -18.1801  -45.4946 H         1 UNK         0.0600 
    154 H154       -1.3327  -17.4926  -43.0906 H         1 UNK         0.3000 
    155 H155       -2.1519  -18.8144  -40.0436 H         1 UNK         0.0600 
    156 H156       -0.9711  -15.9875  -39.9813 H         1 UNK         0.0600 
    157 H157       -0.6108  -17.2870  -38.8561 H         1 UNK         0.0600 
    158 H158       -2.2243  -16.5950  -38.8992 H         1 UNK         0.0600 
    159 H159       -2.9141  -16.3821  -41.4757 H         1 UNK         0.3000 
    160 H160       -4.8462  -17.8925  -43.8956 H         1 UNK         0.0600 
    161 H161       -6.1974  -16.8986  -41.3286 H         1 UNK         0.0600 
    162 H162       -6.4965  -18.4491  -42.1044 H         1 UNK         0.0600 
    163 H163       -6.9366  -16.9635  -42.9296 H         1 UNK         0.0600 
    164 H164       -5.0430  -15.2756  -42.7858 H         1 UNK         0.3000 
    165 H165       -3.6043  -13.8018  -45.1028 H         1 UNK         0.0600 
    166 H166       -3.8102  -12.1299  -43.2360 H         1 UNK         0.0600 
    167 H167       -5.0722  -13.3403  -43.1819 H         1 UNK         0.0600 
    168 H168       -3.7135  -13.4342  -42.0598 H         1 UNK         0.0600 
    169 H169       -1.5176  -13.1054  -44.9378 H         1 UNK         0.3000 
    170 H170        0.7114  -13.1830  -44.4409 H         1 UNK         0.0600 
    171 H171       -0.3790  -11.1443  -43.5178 H         1 UNK         0.0600 
    172 H172        0.1299  -11.5803  -41.8914 H         1 UNK         0.0600 
    173 H173        1.3296  -11.1635  -43.1154 H         1 UNK         0.0600 
    174 H174        1.6694  -13.4647  -41.6697 H         1 UNK         0.3000 
    175 H175        3.9310  -14.5740  -41.7606 H         1 UNK         0.0600 
    176 H176        2.0509  -16.9340  -41.1552 H         1 UNK         0.0600 
    177 H177        3.4128  -16.4306  -40.1616 H         1 UNK         0.0600 
    178 H178        2.0103  -15.3876  -40.3204 H         1 UNK         0.0600 
    179 H179        3.6790  -16.7623  -43.6412 H         1 UNK         0.3000 
    180 H180        7.1283  -17.5557  -43.3794 H         1 UNK         0.0600 
    181 H181        6.3369  -19.9314  -43.5385 H         1 UNK         0.0600 
    182 H182        4.7843  -19.4486  -42.8523 H         1 UNK         0.0600 
    183 H183        6.2509  -19.2984  -41.9015 H         1 UNK         0.0600 
    184 H184        6.4961  -17.3638  -45.4504 H         1 UNK         0.3000 
    185 H185        5.5181  -17.4471  -47.3625 H         1 UNK         0.0600 
    186 H186        4.5171  -19.3032  -48.6963 H         1 UNK         0.0600 
    187 H187        5.3702  -19.9151  -47.2869 H         1 UNK         0.0600 
    188 H188        3.6153  -19.8445  -47.2821 H         1 UNK         0.0600 
    189 H189        2.6707  -17.6312  -47.8896 H         1 UNK         0.3000 
    190 H190       -0.6972  -20.4618  -46.3018 H         1 UNK         0.3000 
    191 H191       -3.2795  -21.0265  -47.5095 H         1 UNK         0.0600 
    192 H192       -4.1568  -19.5319  -45.7553 H         1 UNK         0.0600 
    193 H193       -2.7797  -18.7875  -46.5482 H         1 UNK         0.0600 
    194 H194       -2.6017  -19.5012  -44.9422 H         1 UNK         0.0600 
    195 H195       -1.5718  -21.9294  -44.4924 H         1 UNK         0.3000 
    196 H196       -3.5956  -23.5528  -43.3633 H         1 UNK         0.0600 
    197 H197       -0.5492  -23.6686  -43.0360 H         1 UNK         0.0600 
    198 H198       -1.6585  -22.6834  -42.0862 H         1 UNK         0.0600 
    199 H199       -1.7185  -24.4365  -41.9674 H         1 UNK         0.0600 
    200 H200       -0.8676  -24.4106  -45.5487 H         1 UNK         0.3000 
    201 H201       -1.5595  -27.2112  -45.7334 H         1 UNK         0.0600 
    202 H202        0.2010  -25.4368  -47.5108 H         1 UNK         0.0600 
    203 H203        0.1680  -27.1961  -47.5316 H         1 UNK         0.0600 
    204 H204        0.7496  -26.3498  -46.1057 H         1 UNK         0.0600 
    205 H205       -2.6782  -24.3594  -47.3236 H         1 UNK         0.3000 
    206 H206       -4.1182  -23.7989  -48.8505 H         1 UNK         0.0600 
    207 H207       -5.7033  -25.5411  -48.0823 H         1 UNK         0.0600 
    208 H208       -5.7958  -25.3253  -49.8230 H         1 UNK         0.0600 
    209 H209       -4.9717  -26.7274  -49.1597 H         1 UNK         0.0600 
    210 H210       -2.7438  -26.8739  -49.9529 H         1 UNK         0.3000 
    211 H211       -1.5194  -27.5735  -51.6742 H         1 UNK         0.0600 
    212 H212        0.5808  -26.2788  -51.9298 H         1 UNK         0.0600 
    213 H213        0.0649  -26.2500  -50.2537 H         1 UNK         0.0600 
    214 H214       -0.1907  -24.8382  -51.2764 H         1 UNK         0.0600 
    215 H215       -3.8456  -25.7554  -52.5566 H         1 UNK         0.3000 
    216 H216       -4.8195  -24.8708  -54.3270 H         1 UNK         0.0600 
    217 H217       -2.5569  -25.8847  -56.1236 H         1 UNK         0.0600 
    218 H218       -4.1509  -25.3520  -56.6283 H         1 UNK         0.0600 
    219 H219       -3.9850  -26.8196  -55.6787 H         1 UNK         0.0600 
    220 H220       -2.2441  -23.6689  -52.8984 H         1 UNK         0.3000 
    221 H221       -1.5805  -21.3877  -54.6283 H         1 UNK         0.0600 
    222 H222        0.1585  -22.4627  -53.1704 H         1 UNK         0.0600 
    223 H223       -0.7861  -22.0582  -51.7385 H         1 UNK         0.0600 
    224 H224       -0.0979  -20.7801  -52.7395 H         1 UNK         0.0600 
    225 H225       -3.4617  -22.1722  -51.6924 H         1 UNK         0.3000 
    226 H226       -4.4335  -19.5362  -51.1420 H         1 UNK         0.0600 
    227 H227       -5.6205  -22.2855  -50.4689 H         1 UNK         0.0600 
    228 H228       -4.4405  -21.4102  -49.4964 H         1 UNK         0.0600 
    229 H229       -6.0600  -20.7609  -49.7048 H         1 UNK         0.0600 
    230 H230       -5.3481  -21.9070  -53.5312 H         1 UNK         0.3000 
    231 H231       -7.9492  -20.6986  -54.1766 H         1 UNK         0.0600 
    232 H232       -6.3306  -22.9013  -55.5671 H         1 UNK         0.0600 
    233 H233       -7.9929  -22.4553  -55.9252 H         1 UNK         0.0600 
    234 H234       -7.5975  -23.1643  -54.3679 H         1 UNK         0.0600 
    235 H235       -4.6138  -20.1558  -55.0052 H         1 UNK         0.3000 
    236 H236       -5.1147  -19.1604  -57.7090 H         1 UNK         0.0600 
    237 H237       -2.5392  -19.2074  -56.0556 H         1 UNK         0.0600 
    238 H238       -3.0759  -20.5059  -57.1216 H         1 UNK         0.0600 
    239 H239       -2.6753  -18.9305  -57.7841 H         1 UNK         0.0600 
    240 H240       -5.5775  -17.7767  -54.6907 H         1 UNK         0.3000 
    241 H241       -4.4136  -15.2133  -55.0093 H         1 UNK         0.0600 
    242 H242       -7.8293  -14.8211  -57.1703 H         1 UNK         0.3800 
    243 H243       -7.2575  -16.3944  -56.6788 H         1 UNK         0.3800 
    244 H244       -5.7719  -14.5069  -53.0908 H         1 UNK         0.0800 
    245 H245       -6.8380  -15.8709  -53.2830 H         1 UNK         0.0800 
    246 H246       -2.6964  -15.6185  -53.0287 H         1 UNK         0.0800 
    247 H247       -3.5617  -14.4747  -52.0232 H         1 UNK         0.0800 
@<TRIPOS>BOND
     1    1    2 1    
     2    1  127 1    
     3    1  128 1    
     4    1  129 1    
     5    2    3 2    
     6    2    4 am   BACKBONE|DICT|INTERRES
     7    4    5 1    
     8    4  130 1    
     9    5    6 1    
    10    5   65 1    
    11    5  131 1    
    12    6    7 1    
    13    6  132 1    
    14    6  133 1    
    15    7    8 1    
    16    8    9 1    
    17    8  134 1    
    18    8  135 1    
    19    9   10 ar   
    20    9   14 ar   
    21   10   11 ar   
    22   10  136 1    
    23   11   12 ar   
    24   11  126 1    
    25   12   13 ar   
    26   12  137 1    
    27   13   14 ar   
    28   13   15 1    
    29   14  138 1    
    30   15   16 1    
    31   15  139 1    
    32   15  140 1    
    33   16   17 1    
    34   17   18 1    
    35   17  141 1    
    36   17  142 1    
    37   18   19 1    
    38   18   67 1    
    39   18  143 1    
    40   19   20 am   BACKBONE|DICT|INTERRES
    41   19  144 1    
    42   20   21 2    
    43   20   22 1    
    44   22   23 1    
    45   22   24 1    
    46   22  145 1    
    47   23  146 1    
    48   23  147 1    
    49   23  148 1    
    50   24   25 am   BACKBONE|DICT|INTERRES
    51   24  149 1    
    52   25   26 2    
    53   25   27 1    
    54   27   28 1    
    55   27   29 1    
    56   27  150 1    
    57   28  151 1    
    58   28  152 1    
    59   28  153 1    
    60   29   30 am   BACKBONE|DICT|INTERRES
    61   29  154 1    
    62   30   31 2    
    63   30   32 1    
    64   32   33 1    
    65   32   34 1    
    66   32  155 1    
    67   33  156 1    
    68   33  157 1    
    69   33  158 1    
    70   34   35 am   BACKBONE|DICT|INTERRES
    71   34  159 1    
    72   35   36 2    
    73   35   37 1    
    74   37   38 1    
    75   37   39 1    
    76   37  160 1    
    77   38  161 1    
    78   38  162 1    
    79   38  163 1    
    80   39   40 am   BACKBONE|DICT|INTERRES
    81   39  164 1    
    82   40   41 2    
    83   40   42 1    
    84   42   43 1    
    85   42   44 1    
    86   42  165 1    
    87   43  166 1    
    88   43  167 1    
    89   43  168 1    
    90   44   45 am   BACKBONE|DICT|INTERRES
    91   44  169 1    
    92   45   46 2    
    93   45   47 1    
    94   47   48 1    
    95   47   49 1    
    96   47  170 1    
    97   48  171 1    
    98   48  172 1    
    99   48  173 1    
   100   49   50 am   BACKBONE|DICT|INTERRES
   101   49  174 1    
   102   50   51 2    
   103   50   52 1    
   104   52   53 1    
   105   52   54 1    
   106   52  175 1    
   107   53  176 1    
   108   53  177 1    
   109   53  178 1    
   110   54   55 am   BACKBONE|DICT|INTERRES
   111   54  179 1    
   112   55   56 2    
   113   55   57 1    
   114   57   58 1    
   115   57   59 1    
   116   57  180 1    
   117   58  181 1    
   118   58  182 1    
   119   58  183 1    
   120   59   60 am   BACKBONE|DICT|INTERRES
   121   59  184 1    
   122   60   61 2    
   123   60   62 1    
   124   62   63 1    
   125   62   64 1    
   126   62  185 1    
   127   63  186 1    
   128   63  187 1    
   129   63  188 1    
   130   64   65 am   BACKBONE|DICT|INTERRES
   131   64  189 1    
   132   65   66 2    
   133   67   68 2    
   134   67   69 am   BACKBONE|DICT|INTERRES
   135   69   70 1    
   136   69  190 1    
   137   70   71 1    
   138   70   72 1    
   139   70  191 1    
   140   71  192 1    
   141   71  193 1    
   142   71  194 1    
   143   72   73 2    
   144   72   74 am   BACKBONE|DICT|INTERRES
   145   74   75 1    
   146   74  195 1    
   147   75   76 1    
   148   75   77 1    
   149   75  196 1    
   150   76  197 1    
   151   76  198 1    
   152   76  199 1    
   153   77   78 2    
   154   77   79 am   BACKBONE|DICT|INTERRES
   155   79   80 1    
   156   79  200 1    
   157   80   81 1    
   158   80   82 1    
   159   80  201 1    
   160   81  202 1    
   161   81  203 1    
   162   81  204 1    
   163   82   83 2    
   164   82   84 am   BACKBONE|DICT|INTERRES
   165   84   85 1    
   166   84  205 1    
   167   85   86 1    
   168   85   87 1    
   169   85  206 1    
   170   86  207 1    
   171   86  208 1    
   172   86  209 1    
   173   87   88 2    
   174   87   89 am   BACKBONE|DICT|INTERRES
   175   89   90 1    
   176   89  210 1    
   177   90   91 1    
   178   90   92 1    
   179   90  211 1    
   180   91  212 1    
   181   91  213 1    
   182   91  214 1    
   183   92   93 2    
   184   92   94 am   BACKBONE|DICT|INTERRES
   185   94   95 1    
   186   94  215 1    
   187   95   96 1    
   188   95   97 1    
   189   95  216 1    
   190   96  217 1    
   191   96  218 1    
   192   96  219 1    
   193   97   98 2    
   194   97   99 am   BACKBONE|DICT|INTERRES
   195   99  100 1    
   196   99  220 1    
   197  100  101 1    
   198  100  102 1    
   199  100  221 1    
   200  101  222 1    
   201  101  223 1    
   202  101  224 1    
   203  102  103 2    
   204  102  104 am   BACKBONE|DICT|INTERRES
   205  104  105 1    
   206  104  225 1    
   207  105  106 1    
   208  105  107 1    
   209  105  226 1    
   210  106  227 1    
   211  106  228 1    
   212  106  229 1    
   213  107  108 2    
   214  107  109 am   BACKBONE|DICT|INTERRES
   215  109  110 1    
   216  109  230 1    
   217  110  111 1    
   218  110  112 1    
   219  110  231 1    
   220  111  232 1    
   221  111  233 1    
   222  111  234 1    
   223  112  113 2    
   224  112  114 am   BACKBONE|DICT|INTERRES
   225  114  115 1    
   226  114  235 1    
   227  115  116 1    
   228  115  117 1    
   229  115  236 1    
   230  116  237 1    
   231  116  238 1    
   232  116  239 1    
   233  117  118 2    
   234  117  119 am   BACKBONE|DICT|INTERRES
   235  119  120 1    
   236  119  240 1    
   237  120  121 1    
   238  120  124 1    
   239  120  241 1    
   240  121  122 am   BACKBONE|DICT|INTERRES
   241  121  123 2    
   242  122  242 1    
   243  122  243 1    
   244  124  125 1    
   245  124  244 1    
   246  124  245 1    
   247  125  126 1    
   248  126  246 1    
   249  126  247 1    
@<TRIPOS>SUBSTRUCTURE
     1 UNK         1 GROUP             0       ****    0 ROOT    
