@<TRIPOS>MOLECULE
3R540
247   249    1
SMALL
USER_CHARGES


@<TRIPOS>ATOM
      1 CA         -2.6015  -10.9542  -44.4414 C.3       0 UNK        -0.1800 
      2 C          -1.2938  -10.4492  -45.0349 C.2       0 UNK         0.5000 
      3 O          -0.7446   -9.4603  -44.5489 O.2       0 UNK        -0.5000 
      4 N          -0.8002  -11.1172  -46.0844 N.am      1 UNK        -0.5000 
      5 CA          0.4699  -10.8188  -46.7541 C.3       1 UNK         0.1400 
      6 C6          0.5104  -11.3812  -48.2000 C.3       23 UNK        -0.0398 
      7 S7          0.1114  -13.1596  -48.3592 S.3       23 UNK        -0.2404 
      8 C8         -1.3464  -13.0594  -49.4484 C.3       23 UNK        -0.0205 
      9 C9         -1.8345  -14.4327  -49.8822 C.ar      23 UNK        -0.0193 
     10 C10        -1.6617  -14.8696  -51.1977 C.ar      23 UNK        -0.1150 
     11 C11        -2.1341  -16.1204  -51.6097 C.ar      23 UNK        -0.0193 
     12 C12        -2.7708  -16.9472  -50.6707 C.ar      23 UNK        -0.1150 
     13 C13        -2.9557  -16.5183  -49.3499 C.ar      23 UNK        -0.0193 
     14 C14        -2.4888  -15.2583  -48.9698 C.ar      23 UNK        -0.1150 
     15 C15        -3.5929  -17.4090  -48.2904 C.3       23 UNK        -0.0205 
     16 S16        -5.0249  -18.3834  -48.8541 S.3       23 UNK        -0.2404 
     17 C17        -5.2958  -19.3526  -47.3286 C.3       23 UNK        -0.0398 
     18 CA         -4.7346  -20.7968  -47.3891 C.3       11 UNK         0.1400 
     19 N          -3.4018  -20.8749  -48.0027 N.am      11 UNK        -0.5000 
     20 C          -2.7097  -21.9983  -48.2254 C.2       10 UNK         0.5000 
     21 O          -3.1209  -23.1232  -47.9415 O.2       10 UNK        -0.5000 
     22 CA         -1.3151  -21.8503  -48.8550 C.3       10 UNK         0.1400 
     23 CB         -1.4423  -21.9499  -50.3787 C.3       10 UNK        -0.1800 
     24 N          -0.5799  -20.6253  -48.5202 N.am      10 UNK        -0.5000 
     25 C          -0.3265  -20.1529  -47.2921 C.2       9 UNK         0.5000 
     26 O          -0.8398  -20.5983  -46.2608 O.2       9 UNK        -0.5000 
     27 CA          0.6640  -18.9768  -47.2243 C.3       9 UNK         0.1400 
     28 CB         -0.0198  -17.6504  -47.5830 C.3       9 UNK        -0.1800 
     29 N           1.2516  -18.8730  -45.8921 N.am      9 UNK        -0.5000 
     30 C           2.3005  -19.5920  -45.4686 C.2       8 UNK         0.5000 
     31 O           2.9448  -20.3450  -46.1999 O.2       8 UNK        -0.5000 
     32 CA          2.7084  -19.4564  -43.9884 C.3       8 UNK         0.1400 
     33 CB          4.1267  -18.8774  -43.8578 C.3       8 UNK        -0.1800 
     34 N           1.7733  -18.6171  -43.2365 N.am      8 UNK        -0.5000 
     35 C           0.7533  -19.0898  -42.5064 C.2       7 UNK         0.5000 
     36 O           0.5414  -20.2892  -42.3277 O.2       7 UNK        -0.5000 
     37 CA         -0.2007  -18.0583  -41.8738 C.3       7 UNK         0.1400 
     38 CB          0.1883  -17.7985  -40.4119 C.3       7 UNK        -0.1800 
     39 N          -0.2519  -16.7925  -42.6127 N.am      7 UNK        -0.5000 
     40 C          -0.8718  -16.6474  -43.7941 C.2       6 UNK         0.5000 
     41 O          -1.4609  -17.5757  -44.3480 O.2       6 UNK        -0.5000 
     42 CA         -0.7949  -15.2827  -44.5166 C.3       6 UNK         0.1400 
     43 CB         -2.1515  -14.8607  -45.1144 C.3       6 UNK        -0.1800 
     44 N          -0.1976  -14.1950  -43.7381 N.am      6 UNK        -0.5000 
     45 C          -0.6623  -13.6017  -42.6303 C.2       5 UNK         0.5000 
     46 O          -1.7484  -13.8566  -42.1087 O.2       5 UNK        -0.5000 
     47 CA          0.2999  -12.5783  -41.9881 C.3       5 UNK         0.1400 
     48 CB         -0.1369  -12.1294  -40.5778 C.3       5 UNK        -0.1800 
     49 N           1.6877  -13.0674  -41.9881 N.am      5 UNK        -0.5000 
     50 C           2.1363  -14.1777  -41.3818 C.2       4 UNK         0.5000 
     51 O           1.4309  -14.8915  -40.6703 O.2       4 UNK        -0.5000 
     52 CA          3.6005  -14.5776  -41.6604 C.3       4 UNK         0.1400 
     53 CB          3.9556  -15.9746  -41.1081 C.3       4 UNK        -0.1800 
     54 N           3.9574  -14.4903  -43.0801 N.am      4 UNK        -0.5000 
     55 C           3.3925  -15.1308  -44.1130 C.2       3 UNK         0.5000 
     56 O           2.4306  -15.8934  -43.9997 O.2       3 UNK        -0.5000 
     57 CA          4.0051  -14.8531  -45.5058 C.3       3 UNK         0.1400 
     58 CB          3.3311  -15.6773  -46.6161 C.3       3 UNK        -0.1800 
     59 N           3.9151  -13.4397  -45.8722 N.am      3 UNK        -0.5000 
     60 C           4.6093  -12.4304  -45.3321 C.2       2 UNK         0.5000 
     61 O           5.5309  -12.5992  -44.5317 O.2       2 UNK        -0.5000 
     62 CA          4.1924  -10.9908  -45.7036 C.3       2 UNK         0.1400 
     63 CB          5.2674  -10.3369  -46.5861 C.3       2 UNK        -0.1800 
     64 N           2.8888  -10.8347  -46.3642 N.am      2 UNK        -0.5000 
     65 C           1.6944  -11.2458  -45.9117 C.2       1 UNK         0.5000 
     66 O           1.5499  -11.9332  -44.8974 O.2       1 UNK        -0.5000 
     67 C          -4.7712  -21.4321  -45.9820 C.2       11 UNK         0.5000 
     68 O          -5.7735  -22.0463  -45.6164 O.2       11 UNK        -0.5000 
     69 N          -3.6647  -21.2860  -45.2415 N.am      12 UNK        -0.5000 
     70 CA         -3.4592  -21.8686  -43.9217 C.3       12 UNK         0.1400 
     71 CB         -2.8891  -20.7902  -42.9878 C.3       12 UNK        -0.1800 
     72 C          -2.5128  -23.0759  -44.0026 C.2       12 UNK         0.5000 
     73 O          -2.8389  -24.1361  -43.4689 O.2       12 UNK        -0.5000 
     74 N          -1.3633  -22.9035  -44.6711 N.am      13 UNK        -0.5000 
     75 CA         -0.2588  -23.8661  -44.6836 C.3       13 UNK         0.1400 
     76 CB          1.0010  -23.1761  -45.2251 C.3       13 UNK        -0.1800 
     77 C          -0.5426  -25.1577  -45.4712 C.2       13 UNK         0.5000 
     78 O           0.0385  -26.1945  -45.1482 O.2       13 UNK        -0.5000 
     79 N          -1.4197  -25.0782  -46.4783 N.am      14 UNK        -0.5000 
     80 CA         -1.8298  -26.1989  -47.3265 C.3       14 UNK         0.1400 
     81 CB         -1.3301  -25.9461  -48.7609 C.3       14 UNK        -0.1800 
     82 C          -3.3555  -26.3994  -47.2875 C.2       14 UNK         0.5000 
     83 O          -3.8954  -27.0717  -48.1658 O.2       14 UNK        -0.5000 
     84 N          -4.0354  -25.7829  -46.3062 N.am      15 UNK        -0.5000 
     85 CA         -5.4906  -25.7891  -46.0983 C.3       15 UNK         0.1400 
     86 CB         -5.9446  -27.1696  -45.5817 C.3       15 UNK        -0.1800 
     87 C          -6.2975  -25.3207  -47.3325 C.2       15 UNK         0.5000 
     88 O          -7.4047  -25.8067  -47.5689 O.2       15 UNK        -0.5000 
     89 N          -5.7038  -24.4017  -48.1073 N.am      16 UNK        -0.5000 
     90 CA         -6.1877  -23.8290  -49.3642 C.3       16 UNK         0.1400 
     91 CB         -7.5466  -23.1204  -49.1836 C.3       16 UNK        -0.1800 
     92 C          -6.1777  -24.7983  -50.5637 C.2       16 UNK         0.5000 
     93 O          -6.7200  -24.4470  -51.6116 O.2       16 UNK        -0.5000 
     94 N          -5.5257  -25.9655  -50.4425 N.am      17 UNK        -0.5000 
     95 CA         -5.3739  -26.9229  -51.5438 C.3       17 UNK         0.1400 
     96 CB         -4.9007  -28.2775  -50.9965 C.3       17 UNK        -0.1800 
     97 C          -4.4109  -26.4143  -52.6336 C.2       17 UNK         0.5000 
     98 O          -4.6614  -26.6299  -53.8195 O.2       17 UNK        -0.5000 
     99 N          -3.3425  -25.7251  -52.2093 N.am      18 UNK        -0.5000 
    100 CA        -2.3266  -25.1359  -53.0858 C.3       18 UNK         0.1400 
    101 CB        -0.9505  -25.2662  -52.4124 C.3       18 UNK        -0.1800 
    102 C         -2.6267  -23.6682  -53.4512 C.2       18 UNK         0.5000 
    103 O         -1.8837  -23.0818  -54.2382 O.2       18 UNK        -0.5000 
    104 N         -3.7072  -23.0894  -52.9017 N.am      19 UNK        -0.5000 
    105 CA        -4.1073  -21.6888  -53.1014 C.3       19 UNK         0.1400 
    106 CB        -5.1416  -21.2844  -52.0401 C.3       19 UNK        -0.1800 
    107 C         -4.5936  -21.3574  -54.5285 C.2       19 UNK         0.5000 
    108 O         -4.7953  -20.1863  -54.8465 O.2       19 UNK        -0.5000 
    109 N         -4.7278  -22.3785  -55.3833 N.am      20 UNK        -0.5000 
    110 CA        -4.9011  -22.2355  -56.8274 C.3       20 UNK         0.1400 
    111 CB        -5.3512  -23.5874  -57.4029 C.3       20 UNK        -0.1800 
    112 C         -3.6244  -21.7422  -57.5455 C.2       20 UNK         0.5000 
    113 O         -3.7276  -21.2670  -58.6773 O.2       20 UNK        -0.5000 
    114 N         -2.4534  -21.8700  -56.9020 N.am      21 UNK        -0.5000 
    115 CA        -1.1463  -21.5395  -57.4700 C.3       21 UNK         0.1400 
    116 CB        -0.5576  -22.7930  -58.1468 C.3       21 UNK        -0.1800 
    117 C         -0.1979  -20.9249  -56.4210 C.2       21 UNK         0.5000 
    118 O          1.0182  -21.1001  -56.5243 O.2       21 UNK        -0.5000 
    119 N         -0.7525  -20.2131  -55.4304 N.am      22 UNK        -0.5000 
    120 CA         0.0148  -19.4478  -54.4323 C.3       22 UNK         0.1400 
    121 C          0.7290  -18.1976  -55.0260 C.2       22 UNK         0.5000 
    122 N          1.7746  -17.7084  -54.3724 N.am      22 UNK        -0.7600 
    123 O          0.3339  -17.6487  -56.0528 O.2       22 UNK        -0.5000 
    124 C124       -0.8348  -19.0948  -53.1816 C.3       23 UNK        -0.0398 
    125 S125       -2.3872  -18.2071  -53.5499 S.3       23 UNK        -0.2404 
    126 C126       -1.9666  -16.4919  -53.0858 C.3       23 UNK        -0.0205 
    127 H127       -2.9613  -11.8485  -44.9495 H         1 UNK         0.0600 
    128 H128       -3.3704  -10.1861  -44.5225 H         1 UNK         0.0600 
    129 H129       -2.4692  -11.1930  -43.3863 H         1 UNK         0.0600 
    130 H130       -1.2739  -11.9424  -46.4198 H         1 UNK         0.3000 
    131 H131        0.5380   -9.7320  -46.8398 H         1 UNK         0.0600 
    132 H132        1.4807  -11.2085  -48.6677 H         1 UNK         0.0800 
    133 H133       -0.1913  -10.8066  -48.8059 H         1 UNK         0.0800 
    134 H134       -1.1000  -12.4568  -50.3242 H         1 UNK         0.0800 
    135 H135       -2.1514  -12.5362  -48.9301 H         1 UNK         0.0800 
    136 H136       -1.1707  -14.2239  -51.9125 H         1 UNK         0.1150 
    137 H137       -3.1358  -17.9215  -50.9591 H         1 UNK         0.1150 
    138 H138       -2.6209  -14.9160  -47.9548 H         1 UNK         0.1150 
    139 H139       -2.8310  -18.0869  -47.9106 H         1 UNK         0.0800 
    140 H140       -3.9161  -16.8029  -47.4426 H         1 UNK         0.0800 
    141 H141       -6.3708  -19.3856  -47.1430 H         1 UNK         0.0800 
    142 H142       -4.8716  -18.8058  -46.4838 H         1 UNK         0.0800 
    143 H143       -5.4029  -21.3770  -48.0236 H         1 UNK         0.0600 
    144 H144       -2.9932  -19.9991  -48.2894 H         1 UNK         0.3000 
    145 H145       -0.7151  -22.6921  -48.5038 H         1 UNK         0.0600 
    146 H146       -0.4670  -22.0067  -50.8624 H         1 UNK         0.0600 
    147 H147       -1.9988  -22.8432  -50.6585 H         1 UNK         0.0600 
    148 H148       -1.9783  -21.0931  -50.7870 H         1 UNK         0.0600 
    149 H149       -0.1250  -20.1720  -49.2990 H         1 UNK         0.3000 
    150 H150        1.4594  -19.1540  -47.9514 H         1 UNK         0.0600 
    151 H151       -0.4273  -17.6825  -48.5935 H         1 UNK         0.0600 
    152 H152        0.6844  -16.8211  -47.5554 H         1 UNK         0.0600 
    153 H153       -0.8359  -17.4158  -46.9016 H         1 UNK         0.0600 
    154 H154        0.7197  -18.3568  -45.2067 H         1 UNK         0.3000 
    155 H155        2.7262  -20.4633  -43.5669 H         1 UNK         0.0600 
    156 H156        4.2187  -17.9107  -44.3496 H         1 UNK         0.0600 
    157 H157        4.8609  -19.5427  -44.3134 H         1 UNK         0.0600 
    158 H158        4.4087  -18.7523  -42.8123 H         1 UNK         0.0600 
    159 H159        1.8805  -17.6120  -43.3540 H         1 UNK         0.3000 
    160 H160       -1.2037  -18.4897  -41.8758 H         1 UNK         0.0600 
    161 H161        1.2240  -17.4707  -40.3226 H         1 UNK         0.0600 
    162 H162        0.0848  -18.7068  -39.8171 H         1 UNK         0.0600 
    163 H163       -0.4481  -17.0377  -39.9594 H         1 UNK         0.0600 
    164 H164        0.2404  -16.0052  -42.2085 H         1 UNK         0.3000 
    165 H165       -0.1129  -15.4423  -45.3528 H         1 UNK         0.0600 
    166 H166       -2.8923  -14.6497  -44.3435 H         1 UNK         0.0600 
    167 H167       -2.0449  -13.9725  -45.7354 H         1 UNK         0.0600 
    168 H168       -2.5627  -15.6483  -45.7450 H         1 UNK         0.0600 
    169 H169        0.7091  -13.8853  -44.0663 H         1 UNK         0.3000 
    170 H170        0.2796  -11.6938  -42.6251 H         1 UNK         0.0600 
    171 H171       -1.1134  -11.6451  -40.6108 H         1 UNK         0.0600 
    172 H172       -0.2140  -12.9685  -39.8860 H         1 UNK         0.0600 
    173 H173        0.5669  -11.4111  -40.1576 H         1 UNK         0.0600 
    174 H174        2.3169  -12.5717  -42.6052 H         1 UNK         0.3000 
    175 H175        4.2211  -13.8479  -41.1387 H         1 UNK         0.0600 
    176 H176        3.3419  -16.7558  -41.5564 H         1 UNK         0.0600 
    177 H177        5.0002  -16.2203  -41.2985 H         1 UNK         0.0600 
    178 H178        3.8036  -16.0194  -40.0291 H         1 UNK         0.0600 
    179 H179        4.7119  -13.8481  -43.3069 H         1 UNK         0.3000 
    180 H180        5.0576  -15.1398  -45.4625 H         1 UNK         0.0600 
    181 H181        2.2834  -15.3992  -46.7306 H         1 UNK         0.0600 
    182 H182        3.3701  -16.7451  -46.3994 H         1 UNK         0.0600 
    183 H183        3.8240  -15.5243  -47.5762 H         1 UNK         0.0600 
    184 H184        3.1536  -13.1932  -46.4866 H         1 UNK         0.3000 
    185 H185        4.1403  -10.4341  -44.7660 H         1 UNK         0.0600 
    186 H186        5.3398  -10.8265  -47.5581 H         1 UNK         0.0600 
    187 H187        5.0527   -9.2816  -46.7556 H         1 UNK         0.0600 
    188 H188        6.2506  -10.3926  -46.1168 H         1 UNK         0.0600 
    189 H189        2.9098  -10.2862  -47.2116 H         1 UNK         0.3000 
    190 H190       -2.8689  -20.8063  -45.6471 H         1 UNK         0.3000 
    191 H191       -4.4057  -22.2129  -43.4995 H         1 UNK         0.0600 
    192 H192       -2.6516  -21.2009  -42.0057 H         1 UNK         0.0600 
    193 H193       -3.6038  -19.9805  -42.8407 H         1 UNK         0.0600 
    194 H194       -1.9763  -20.3537  -43.3944 H         1 UNK         0.0600 
    195 H195       -1.1765  -22.0072  -45.1150 H         1 UNK         0.3000 
    196 H196       -0.0618  -24.1557  -43.6492 H         1 UNK         0.0600 
    197 H197        0.8716  -22.8506  -46.2577 H         1 UNK         0.0600 
    198 H198        1.2535  -22.3021  -44.6255 H         1 UNK         0.0600 
    199 H199        1.8601  -23.8475  -45.1977 H         1 UNK         0.0600 
    200 H200       -1.8695  -24.1922  -46.6779 H         1 UNK         0.3000 
    201 H201       -1.3901  -27.1333  -46.9729 H         1 UNK         0.0600 
    202 H202       -1.8073  -25.0727  -49.2039 H         1 UNK         0.0600 
    203 H203       -1.5399  -26.7988  -49.4079 H         1 UNK         0.0600 
    204 H204       -0.2523  -25.7849  -48.7804 H         1 UNK         0.0600 
    205 H205       -3.5008  -25.2602  -45.6260 H         1 UNK         0.3000 
    206 H206       -5.6899  -25.0576  -45.3136 H         1 UNK         0.0600 
    207 H207       -5.3761  -27.4668  -44.7005 H         1 UNK         0.0600 
    208 H208       -6.9973  -27.1565  -45.2968 H         1 UNK         0.0600 
    209 H209       -5.8191  -27.9443  -46.3390 H         1 UNK         0.0600 
    210 H210       -4.7751  -24.0901  -47.8350 H         1 UNK         0.3000 
    211 H211       -5.4566  -23.0641  -49.6193 H         1 UNK         0.0600 
    212 H212       -7.7843  -22.5059  -50.0527 H         1 UNK         0.0600 
    213 H213       -7.5425  -22.4633  -48.3142 H         1 UNK         0.0600 
    214 H214       -8.3617  -23.8334  -49.0593 H         1 UNK         0.0600 
    215 H215       -5.0975  -26.2164  -49.5565 H         1 UNK         0.3000 
    216 H216       -6.3532  -27.0710  -52.0041 H         1 UNK         0.0600 
    217 H217       -3.8968  -28.2156  -50.5751 H         1 UNK         0.0600 
    218 H218       -4.8764  -29.0286  -51.7868 H         1 UNK         0.0600 
    219 H219       -5.5692  -28.6449  -50.2176 H         1 UNK         0.0600 
    220 H220       -3.2152  -25.6040  -51.2155 H         1 UNK         0.3000 
    221 H221       -2.2860  -25.6922  -54.0246 H         1 UNK         0.0600 
    222 H222       -0.7125  -26.3097  -52.2055 H         1 UNK         0.0600 
    223 H223       -0.9003  -24.7211  -51.4712 H         1 UNK         0.0600 
    224 H224       -0.1605  -24.8776  -53.0564 H         1 UNK         0.0600 
    225 H225       -4.3119  -23.6551  -52.3254 H         1 UNK         0.3000 
    226 H226       -3.2215  -21.0747  -52.9384 H         1 UNK         0.0600 
    227 H227       -6.0469  -21.8872  -52.1070 H         1 UNK         0.0600 
    228 H228       -4.7317  -21.3831  -51.0356 H         1 UNK         0.0600 
    229 H229       -5.4352  -20.2403  -52.1580 H         1 UNK         0.0600 
    230 H230       -4.5640  -23.3122  -55.0372 H         1 UNK         0.3000 
    231 H231       -5.6896  -21.5031  -57.0128 H         1 UNK         0.0600 
    232 H232       -4.6020  -24.3634  -57.2402 H         1 UNK         0.0600 
    233 H233       -5.5235  -23.5174  -58.4777 H         1 UNK         0.0600 
    234 H234       -6.2840  -23.9198  -56.9468 H         1 UNK         0.0600 
    235 H235       -2.4309  -22.2708  -55.9683 H         1 UNK         0.3000 
    236 H236       -1.2669  -20.7688  -58.2340 H         1 UNK         0.0600 
    237 H237       -1.2286  -23.1802  -58.9137 H         1 UNK         0.0600 
    238 H238        0.3923  -22.5715  -58.6346 H         1 UNK         0.0600 
    239 H239       -0.3811  -23.5891  -57.4224 H         1 UNK         0.0600 
    240 H240       -1.7514  -20.0672  -55.4297 H         1 UNK         0.3000 
    241 H241        0.8109  -20.1104  -54.0862 H         1 UNK         0.0600 
    242 H242        2.2418  -16.8948  -54.7418 H         1 UNK         0.3800 
    243 H243        2.1284  -18.1389  -53.5324 H         1 UNK         0.3800 
    244 H244       -0.2500  -18.5283  -52.4549 H         1 UNK         0.0800 
    245 H245       -1.1016  -20.0202  -52.6741 H         1 UNK         0.0800 
    246 H246       -0.9454  -16.2763  -53.4031 H         1 UNK         0.0800 
    247 H247       -2.6089  -15.8298  -53.6678 H         1 UNK         0.0800 
@<TRIPOS>BOND
     1    1    2 1    
     2    1  127 1    
     3    1  128 1    
     4    1  129 1    
     5    2    3 2    
     6    2    4 am   BACKBONE|DICT|INTERRES
     7    4    5 1    
     8    4  130 1    
     9    5    6 1    
    10    5   65 1    
    11    5  131 1    
    12    6    7 1    
    13    6  132 1    
    14    6  133 1    
    15    7    8 1    
    16    8    9 1    
    17    8  134 1    
    18    8  135 1    
    19    9   10 ar   
    20    9   14 ar   
    21   10   11 ar   
    22   10  136 1    
    23   11   12 ar   
    24   11  126 1    
    25   12   13 ar   
    26   12  137 1    
    27   13   14 ar   
    28   13   15 1    
    29   14  138 1    
    30   15   16 1    
    31   15  139 1    
    32   15  140 1    
    33   16   17 1    
    34   17   18 1    
    35   17  141 1    
    36   17  142 1    
    37   18   19 1    
    38   18   67 1    
    39   18  143 1    
    40   19   20 am   BACKBONE|DICT|INTERRES
    41   19  144 1    
    42   20   21 2    
    43   20   22 1    
    44   22   23 1    
    45   22   24 1    
    46   22  145 1    
    47   23  146 1    
    48   23  147 1    
    49   23  148 1    
    50   24   25 am   BACKBONE|DICT|INTERRES
    51   24  149 1    
    52   25   26 2    
    53   25   27 1    
    54   27   28 1    
    55   27   29 1    
    56   27  150 1    
    57   28  151 1    
    58   28  152 1    
    59   28  153 1    
    60   29   30 am   BACKBONE|DICT|INTERRES
    61   29  154 1    
    62   30   31 2    
    63   30   32 1    
    64   32   33 1    
    65   32   34 1    
    66   32  155 1    
    67   33  156 1    
    68   33  157 1    
    69   33  158 1    
    70   34   35 am   BACKBONE|DICT|INTERRES
    71   34  159 1    
    72   35   36 2    
    73   35   37 1    
    74   37   38 1    
    75   37   39 1    
    76   37  160 1    
    77   38  161 1    
    78   38  162 1    
    79   38  163 1    
    80   39   40 am   BACKBONE|DICT|INTERRES
    81   39  164 1    
    82   40   41 2    
    83   40   42 1    
    84   42   43 1    
    85   42   44 1    
    86   42  165 1    
    87   43  166 1    
    88   43  167 1    
    89   43  168 1    
    90   44   45 am   BACKBONE|DICT|INTERRES
    91   44  169 1    
    92   45   46 2    
    93   45   47 1    
    94   47   48 1    
    95   47   49 1    
    96   47  170 1    
    97   48  171 1    
    98   48  172 1    
    99   48  173 1    
   100   49   50 am   BACKBONE|DICT|INTERRES
   101   49  174 1    
   102   50   51 2    
   103   50   52 1    
   104   52   53 1    
   105   52   54 1    
   106   52  175 1    
   107   53  176 1    
   108   53  177 1    
   109   53  178 1    
   110   54   55 am   BACKBONE|DICT|INTERRES
   111   54  179 1    
   112   55   56 2    
   113   55   57 1    
   114   57   58 1    
   115   57   59 1    
   116   57  180 1    
   117   58  181 1    
   118   58  182 1    
   119   58  183 1    
   120   59   60 am   BACKBONE|DICT|INTERRES
   121   59  184 1    
   122   60   61 2    
   123   60   62 1    
   124   62   63 1    
   125   62   64 1    
   126   62  185 1    
   127   63  186 1    
   128   63  187 1    
   129   63  188 1    
   130   64   65 am   BACKBONE|DICT|INTERRES
   131   64  189 1    
   132   65   66 2    
   133   67   68 2    
   134   67   69 am   BACKBONE|DICT|INTERRES
   135   69   70 1    
   136   69  190 1    
   137   70   71 1    
   138   70   72 1    
   139   70  191 1    
   140   71  192 1    
   141   71  193 1    
   142   71  194 1    
   143   72   73 2    
   144   72   74 am   BACKBONE|DICT|INTERRES
   145   74   75 1    
   146   74  195 1    
   147   75   76 1    
   148   75   77 1    
   149   75  196 1    
   150   76  197 1    
   151   76  198 1    
   152   76  199 1    
   153   77   78 2    
   154   77   79 am   BACKBONE|DICT|INTERRES
   155   79   80 1    
   156   79  200 1    
   157   80   81 1    
   158   80   82 1    
   159   80  201 1    
   160   81  202 1    
   161   81  203 1    
   162   81  204 1    
   163   82   83 2    
   164   82   84 am   BACKBONE|DICT|INTERRES
   165   84   85 1    
   166   84  205 1    
   167   85   86 1    
   168   85   87 1    
   169   85  206 1    
   170   86  207 1    
   171   86  208 1    
   172   86  209 1    
   173   87   88 2    
   174   87   89 am   BACKBONE|DICT|INTERRES
   175   89   90 1    
   176   89  210 1    
   177   90   91 1    
   178   90   92 1    
   179   90  211 1    
   180   91  212 1    
   181   91  213 1    
   182   91  214 1    
   183   92   93 2    
   184   92   94 am   BACKBONE|DICT|INTERRES
   185   94   95 1    
   186   94  215 1    
   187   95   96 1    
   188   95   97 1    
   189   95  216 1    
   190   96  217 1    
   191   96  218 1    
   192   96  219 1    
   193   97   98 2    
   194   97   99 am   BACKBONE|DICT|INTERRES
   195   99  100 1    
   196   99  220 1    
   197  100  101 1    
   198  100  102 1    
   199  100  221 1    
   200  101  222 1    
   201  101  223 1    
   202  101  224 1    
   203  102  103 2    
   204  102  104 am   BACKBONE|DICT|INTERRES
   205  104  105 1    
   206  104  225 1    
   207  105  106 1    
   208  105  107 1    
   209  105  226 1    
   210  106  227 1    
   211  106  228 1    
   212  106  229 1    
   213  107  108 2    
   214  107  109 am   BACKBONE|DICT|INTERRES
   215  109  110 1    
   216  109  230 1    
   217  110  111 1    
   218  110  112 1    
   219  110  231 1    
   220  111  232 1    
   221  111  233 1    
   222  111  234 1    
   223  112  113 2    
   224  112  114 am   BACKBONE|DICT|INTERRES
   225  114  115 1    
   226  114  235 1    
   227  115  116 1    
   228  115  117 1    
   229  115  236 1    
   230  116  237 1    
   231  116  238 1    
   232  116  239 1    
   233  117  118 2    
   234  117  119 am   BACKBONE|DICT|INTERRES
   235  119  120 1    
   236  119  240 1    
   237  120  121 1    
   238  120  124 1    
   239  120  241 1    
   240  121  122 am   BACKBONE|DICT|INTERRES
   241  121  123 2    
   242  122  242 1    
   243  122  243 1    
   244  124  125 1    
   245  124  244 1    
   246  124  245 1    
   247  125  126 1    
   248  126  246 1    
   249  126  247 1    
@<TRIPOS>SUBSTRUCTURE
     1 UNK         1 GROUP             0       ****    0 ROOT    
