@<TRIPOS>MOLECULE
3R540
247   249    1
SMALL
USER_CHARGES


@<TRIPOS>ATOM
      1 CA         -5.7024  -18.7778  -47.7110 C.3       0 UNK        -0.1800 
      2 C          -4.6321  -17.7280  -47.9764 C.2       0 UNK         0.5000 
      3 O          -4.5575  -17.2040  -49.0868 O.2       0 UNK        -0.5000 
      4 N          -3.8005  -17.4299  -46.9689 N.am      1 UNK        -0.5000 
      5 CA         -2.7445  -16.4135  -47.0197 C.3       1 UNK         0.1400 
      6 C6         -1.8424  -16.4407  -45.7582 C.3       23 UNK        -0.0398 
      7 S7         -0.9838  -18.0264  -45.4645 S.3       23 UNK        -0.2404 
      8 C8          0.7419  -17.5981  -45.8610 C.3       23 UNK        -0.0205 
      9 C9          1.0205  -17.7918  -47.3430 C.ar      23 UNK        -0.0193 
     10 C10         0.7726  -16.7727  -48.2630 C.ar      23 UNK        -0.1150 
     11 C11         0.9565  -16.9955  -49.6314 C.ar      23 UNK        -0.0193 
     12 C12         1.3631  -18.2582  -50.0798 C.ar      23 UNK        -0.1150 
     13 C13         1.6409  -19.2795  -49.1651 C.ar      23 UNK        -0.0193 
     14 C14         1.5075  -19.0160  -47.7991 C.ar      23 UNK        -0.1150 
     15 C15         2.1129  -20.6526  -49.6419 C.3       23 UNK        -0.0205 
     16 S16         0.8098  -21.9381  -49.5714 S.3       23 UNK        -0.2404 
     17 C17         0.6124  -22.1170  -47.7696 C.3       23 UNK        -0.0398 
     18 CA         -0.2182  -23.3207  -47.2722 C.3       11 UNK         0.1400 
     19 N           0.1964  -23.6731  -45.9116 N.am      11 UNK        -0.5000 
     20 C          -0.2168  -24.7340  -45.2052 C.2       10 UNK         0.5000 
     21 O          -0.9809  -25.5907  -45.6453 O.2       10 UNK        -0.5000 
     22 CA          0.2645  -24.8225  -43.7413 C.3       10 UNK         0.1400 
     23 CB          1.5692  -25.6273  -43.6556 C.3       10 UNK        -0.1800 
     24 N           0.4673  -23.5124  -43.1165 N.am      10 UNK        -0.5000 
     25 C          -0.4795  -22.5747  -42.9644 C.2       9 UNK         0.5000 
     26 O          -1.6626  -22.7594  -43.2513 O.2       9 UNK        -0.5000 
     27 CA         -0.0266  -21.1830  -42.4725 C.3       9 UNK         0.1400 
     28 CB         -0.3227  -21.0215  -40.9749 C.3       9 UNK        -0.1800 
     29 N           1.3880  -20.8704  -42.7164 N.am      9 UNK        -0.5000 
     30 C           1.9971  -20.8598  -43.9087 C.2       8 UNK         0.5000 
     31 O           1.4231  -21.1544  -44.9563 O.2       8 UNK        -0.5000 
     32 CA          3.4931  -20.4820  -43.9238 C.3       8 UNK         0.1400 
     33 CB          4.1633  -20.7790  -45.2774 C.3       8 UNK        -0.1800 
     34 N           3.7340  -19.0792  -43.5857 N.am      8 UNK        -0.5000 
     35 C           3.6355  -18.5299  -42.3714 C.2       7 UNK         0.5000 
     36 O           3.2544  -19.1561  -41.3806 O.2       7 UNK        -0.5000 
     37 CA          4.0428  -17.0507  -42.2014 C.3       7 UNK         0.1400 
     38 CB          5.4642  -16.9513  -41.6167 C.3       7 UNK        -0.1800 
     39 N           3.9141  -16.1645  -43.3697 N.am      7 UNK        -0.5000 
     40 C           4.5587  -16.1938  -44.5479 C.2       6 UNK         0.5000 
     41 O           5.2592  -17.1349  -44.9197 O.2       6 UNK        -0.5000 
     42 CA          4.4286  -14.9541  -45.4620 C.3       6 UNK         0.1400 
     43 CB          3.5288  -15.2267  -46.6759 C.3       6 UNK        -0.1800 
     44 N           3.9376  -13.7626  -44.7666 N.am      6 UNK        -0.5000 
     45 C           4.6587  -13.0331  -43.9031 C.2       5 UNK         0.5000 
     46 O           5.8501  -13.2368  -43.6676 O.2       5 UNK        -0.5000 
     47 CA          3.9253  -11.8994  -43.1570 C.3       5 UNK         0.1400 
     48 CB          4.1982  -10.5483  -43.8358 C.3       5 UNK        -0.1800 
     49 N           2.4750  -12.0846  -43.0437 N.am      5 UNK        -0.5000 
     50 C           1.8548  -13.1024  -42.4280 C.2       4 UNK         0.5000 
     51 O           2.4482  -14.0376  -41.8919 O.2       4 UNK        -0.5000 
     52 CA          0.3139  -13.0914  -42.4302 C.3       4 UNK         0.1400 
     53 CB         -0.2203  -12.6404  -41.0623 C.3       4 UNK        -0.1800 
     54 N          -0.2669  -12.2397  -43.4723 N.am      4 UNK        -0.5000 
     55 C          -0.2401  -12.5151  -44.7815 C.2       3 UNK         0.5000 
     56 O           0.3046  -13.5108  -45.2660 O.2       3 UNK        -0.5000 
     57 CA         -0.9089  -11.4918  -45.7050 C.3       3 UNK         0.1400 
     58 CB          0.1295  -10.5249  -46.2973 C.3       3 UNK        -0.1800 
     59 N          -1.5763  -12.2181  -46.7759 N.am      3 UNK        -0.5000 
     60 C          -2.7286  -11.8651  -47.3567 C.2       2 UNK         0.5000 
     61 O          -3.3315  -10.8214  -47.1027 O.2       2 UNK        -0.5000 
     62 CA         -3.3166  -12.8471  -48.3885 C.3       2 UNK         0.1400 
     63 CB         -2.9284  -12.4196  -49.8115 C.3       2 UNK        -0.1800 
     64 N          -2.8951  -14.2338  -48.1620 N.am      2 UNK        -0.5000 
     65 C          -3.3605  -15.0055  -47.1710 C.2       1 UNK         0.5000 
     66 O          -4.2217  -14.6367  -46.3685 O.2       1 UNK        -0.5000 
     67 C          -1.7272  -23.0002  -47.3332 C.2       11 UNK         0.5000 
     68 O          -2.4006  -23.3931  -48.2852 O.2       11 UNK        -0.5000 
     69 N          -2.2338  -22.3040  -46.3055 N.am      12 UNK        -0.5000 
     70 CA         -3.6492  -21.9819  -46.1462 C.3       12 UNK         0.1400 
     71 CB         -3.8086  -20.8084  -45.1694 C.3       12 UNK        -0.1800 
     72 C          -4.4587  -23.2016  -45.6816 C.2       12 UNK         0.5000 
     73 O          -5.5466  -23.4334  -46.2069 O.2       12 UNK        -0.5000 
     74 N          -3.9021  -23.9801  -44.7418 N.am      13 UNK        -0.5000 
     75 CA         -4.5059  -25.2048  -44.2069 C.3       13 UNK         0.1400 
     76 CB         -3.6614  -25.7250  -43.0349 C.3       13 UNK        -0.1800 
     77 C          -4.6928  -26.3030  -45.2720 C.2       13 UNK         0.5000 
     78 O          -5.7293  -26.9674  -45.2864 O.2       13 UNK        -0.5000 
     79 N          -3.7058  -26.4444  -46.1673 N.am      14 UNK        -0.5000 
     80 CA         -3.7485  -27.3358  -47.3290 C.3       14 UNK         0.1400 
     81 CB         -2.3086  -27.5893  -47.8047 C.3       14 UNK        -0.1800 
     82 C          -4.5985  -26.7854  -48.4933 C.2       14 UNK         0.5000 
     83 O          -4.8415  -27.5180  -49.4526 O.2       14 UNK        -0.5000 
     84 N          -4.9972  -25.5064  -48.4094 N.am      15 UNK        -0.5000 
     85 CA         -5.7002  -24.7090  -49.4212 C.3       15 UNK         0.1400 
     86 CB         -7.0942  -25.2925  -49.7287 C.3       15 UNK        -0.1800 
     87 C          -4.8681  -24.4517  -50.6956 C.2       15 UNK         0.5000 
     88 O          -5.4254  -24.0597  -51.7199 O.2       15 UNK        -0.5000 
     89 N          -3.5436  -24.6261  -50.6048 N.am      16 UNK        -0.5000 
     90 CA         -2.5793  -24.3558  -51.6677 C.3       16 UNK         0.1400 
     91 CB         -1.2160  -24.9471  -51.2791 C.3       16 UNK        -0.1800 
     92 C          -2.4631  -22.8522  -51.9650 C.2       16 UNK         0.5000 
     93 O          -2.3891  -22.4740  -53.1323 O.2       16 UNK        -0.5000 
     94 N          -2.5050  -22.0259  -50.9085 N.am      17 UNK        -0.5000 
     95 CA         -2.5239  -20.5641  -50.9976 C.3       17 UNK         0.1400 
     96 CB         -2.3682  -19.9576  -49.5938 C.3       17 UNK        -0.1800 
     97 C          -3.8059  -20.0453  -51.6743 C.2       17 UNK         0.5000 
     98 O          -3.7363  -19.1487  -52.5153 O.2       17 UNK        -0.5000 
     99 N          -4.9458  -20.6557  -51.3188 N.am      18 UNK        -0.5000 
    100 CA        -6.2607  -20.3618  -51.8878 C.3       18 UNK         0.1400 
    101 CB        -7.3454  -21.0327  -51.0315 C.3       18 UNK        -0.1800 
    102 C         -6.3798  -20.7898  -53.3629 C.2       18 UNK         0.5000 
    103 O         -7.0437  -20.1040  -54.1418 O.2       18 UNK        -0.5000 
    104 N         -5.7077  -21.8881  -53.7348 N.am      19 UNK        -0.5000 
    105 CA        -5.5957  -22.4153  -55.0956 C.3       19 UNK         0.1400 
    106 CB        -5.1948  -23.8994  -55.0258 C.3       19 UNK        -0.1800 
    107 C         -4.6349  -21.5797  -55.9704 C.2       19 UNK         0.5000 
    108 O         -3.6350  -22.0947  -56.4723 O.2       19 UNK        -0.5000 
    109 N         -4.9645  -20.2922  -56.1284 N.am      20 UNK        -0.5000 
    110 CA        -4.3510  -19.2638  -56.9763 C.3       20 UNK         0.1400 
    111 CB        -4.3938  -19.6767  -58.4604 C.3       20 UNK        -0.1800 
    112 C         -2.9365  -18.7958  -56.5773 C.2       20 UNK         0.5000 
    113 O         -2.5692  -17.6817  -56.9543 O.2       20 UNK        -0.5000 
    114 N         -2.1720  -19.5976  -55.8214 N.am      21 UNK        -0.5000 
    115 CA        -0.7807  -19.3173  -55.4381 C.3       21 UNK         0.1400 
    116 CB        -0.1984  -20.5219  -54.6861 C.3       21 UNK        -0.1800 
    117 C         -0.5918  -18.0291  -54.6117 C.2       21 UNK         0.5000 
    118 O          0.4673  -17.4066  -54.6995 O.2       21 UNK        -0.5000 
    119 N         -1.6253  -17.6447  -53.8564 N.am      22 UNK        -0.5000 
    120 CA        -1.7353  -16.3770  -53.1258 C.3       22 UNK         0.1400 
    121 C         -2.9022  -15.4890  -53.6562 C.2       22 UNK         0.5000 
    122 N         -3.3842  -15.6908  -54.8780 N.am      22 UNK        -0.7600 
    123 O         -3.3744  -14.5883  -52.9694 O.2       22 UNK        -0.5000 
    124 C124       -1.7839  -16.6311  -51.5953 C.3       23 UNK        -0.0398 
    125 S125       -0.9885  -15.2953  -50.6473 S.3       23 UNK        -0.2404 
    126 C126        0.7392  -15.8587  -50.6167 C.3       23 UNK        -0.0205 
    127 H127       -5.4662  -19.7006  -48.2402 H         1 UNK         0.0600 
    128 H128       -6.6707  -18.4228  -48.0637 H         1 UNK         0.0600 
    129 H129       -5.7943  -19.0019  -46.6488 H         1 UNK         0.0600 
    130 H130       -3.9191  -17.8816  -46.0747 H         1 UNK         0.3000 
    131 H131       -2.1247  -16.6247  -47.8937 H         1 UNK         0.0600 
    132 H132       -1.1004  -15.6447  -45.8146 H         1 UNK         0.0800 
    133 H133       -2.4337  -16.2251  -44.8663 H         1 UNK         0.0800 
    134 H134        1.4025  -18.2378  -45.2756 H         1 UNK         0.0800 
    135 H135        0.9583  -16.5790  -45.5436 H         1 UNK         0.0800 
    136 H136        0.4313  -15.8076  -47.9167 H         1 UNK         0.1150 
    137 H137        1.4857  -18.4390  -51.1385 H         1 UNK         0.1150 
    138 H138        1.7521  -19.7779  -47.0780 H         1 UNK         0.1150 
    139 H139        2.9705  -20.9704  -49.0471 H         1 UNK         0.0800 
    140 H140        2.4710  -20.5848  -50.6701 H         1 UNK         0.0800 
    141 H141        0.1784  -21.2010  -47.3711 H         1 UNK         0.0800 
    142 H142        1.6239  -22.1810  -47.3657 H         1 UNK         0.0800 
    143 H143       -0.0226  -24.1838  -47.9116 H         1 UNK         0.0600 
    144 H144        0.7805  -22.9852  -45.4469 H         1 UNK         0.3000 
    145 H145       -0.4994  -25.3487  -43.1679 H         1 UNK         0.0600 
    146 H146        1.4450  -26.6192  -44.0926 H         1 UNK         0.0600 
    147 H147        1.8800  -25.7668  -42.6201 H         1 UNK         0.0600 
    148 H148        2.3831  -25.1333  -44.1880 H         1 UNK         0.0600 
    149 H149        1.4118  -23.2777  -42.8503 H         1 UNK         0.3000 
    150 H150       -0.6182  -20.4457  -43.0193 H         1 UNK         0.0600 
    151 H151        0.2689  -21.7117  -40.3723 H         1 UNK         0.0600 
    152 H152       -1.3747  -21.2150  -40.7603 H         1 UNK         0.0600 
    153 H153       -0.1044  -20.0082  -40.6371 H         1 UNK         0.0600 
    154 H154        1.9279  -20.5461  -41.9201 H         1 UNK         0.3000 
    155 H155        3.9849  -21.1047  -43.1737 H         1 UNK         0.0600 
    156 H156        5.2428  -20.6391  -45.2178 H         1 UNK         0.0600 
    157 H157        3.7899  -20.1257  -46.0656 H         1 UNK         0.0600 
    158 H158        3.9878  -21.8095  -45.5893 H         1 UNK         0.0600 
    159 H159        4.1248  -18.4942  -44.3186 H         1 UNK         0.3000 
    160 H160        3.3585  -16.6409  -41.4570 H         1 UNK         0.0600 
    161 H161        6.2136  -17.3427  -42.3055 H         1 UNK         0.0600 
    162 H162        5.5469  -17.5177  -40.6882 H         1 UNK         0.0600 
    163 H163        5.7244  -15.9172  -41.3900 H         1 UNK         0.0600 
    164 H164        3.3558  -15.3399  -43.1772 H         1 UNK         0.3000 
    165 H165        5.4321  -14.7438  -45.8383 H         1 UNK         0.0600 
    166 H166        3.6818  -14.4737  -47.4489 H         1 UNK         0.0600 
    167 H167        3.7395  -16.1984  -47.1252 H         1 UNK         0.0600 
    168 H168        2.4753  -15.2024  -46.4058 H         1 UNK         0.0600 
    169 H169        2.9648  -13.5245  -44.9040 H         1 UNK         0.3000 
    170 H170        4.3321  -11.8636  -42.1444 H         1 UNK         0.0600 
    171 H171        3.7675   -9.7251  -43.2655 H         1 UNK         0.0600 
    172 H172        3.7824  -10.5139  -44.8436 H         1 UNK         0.0600 
    173 H173        5.2697  -10.3595  -43.9159 H         1 UNK         0.0600 
    174 H174        1.8993  -11.3652  -43.4545 H         1 UNK         0.3000 
    175 H175       -0.0174  -14.1175  -42.6046 H         1 UNK         0.0600 
    176 H176        0.1680  -13.2729  -40.2627 H         1 UNK         0.0600 
    177 H177        0.0669  -11.6127  -40.8364 H         1 UNK         0.0600 
    178 H178       -1.3080  -12.7025  -41.0232 H         1 UNK         0.0600 
    179 H179       -0.7280  -11.3984  -43.1559 H         1 UNK         0.3000 
    180 H180       -1.6432  -10.9262  -45.1272 H         1 UNK         0.0600 
    181 H181        0.8862  -11.0542  -46.8782 H         1 UNK         0.0600 
    182 H182        0.6444   -9.9720  -45.5108 H         1 UNK         0.0600 
    183 H183       -0.3432   -9.7932  -46.9527 H         1 UNK         0.0600 
    184 H184       -1.1533  -13.1056  -47.0108 H         1 UNK         0.3000 
    185 H185       -4.4048  -12.8004  -48.3080 H         1 UNK         0.0600 
    186 H186       -3.3672  -13.0833  -50.5568 H         1 UNK         0.0600 
    187 H187       -3.2836  -11.4110  -50.0266 H         1 UNK         0.0600 
    188 H188       -1.8470  -12.4224  -49.9528 H         1 UNK         0.0600 
    189 H189       -2.2220  -14.6102  -48.8180 H         1 UNK         0.3000 
    190 H190       -1.6253  -22.0533  -45.5391 H         1 UNK         0.3000 
    191 H191       -4.0471  -21.6691  -47.1137 H         1 UNK         0.0600 
    192 H192       -3.2991  -19.9216  -45.5421 H         1 UNK         0.0600 
    193 H193       -4.8599  -20.5521  -45.0354 H         1 UNK         0.0600 
    194 H194       -3.4032  -21.0366  -44.1841 H         1 UNK         0.0600 
    195 H195       -3.0240  -23.6830  -44.3265 H         1 UNK         0.3000 
    196 H196       -5.4936  -24.9418  -43.8228 H         1 UNK         0.0600 
    197 H197       -4.1531  -26.5672  -42.5466 H         1 UNK         0.0600 
    198 H198       -3.5090  -24.9531  -42.2801 H         1 UNK         0.0600 
    199 H199       -2.6833  -26.0691  -43.3687 H         1 UNK         0.0600 
    200 H200       -2.8480  -25.9137  -46.0401 H         1 UNK         0.3000 
    201 H201       -4.1831  -28.2903  -47.0252 H         1 UNK         0.0600 
    202 H202       -2.2870  -28.2852  -48.6443 H         1 UNK         0.0600 
    203 H203       -1.7013  -28.0224  -47.0098 H         1 UNK         0.0600 
    204 H204       -1.8254  -26.6667  -48.1300 H         1 UNK         0.0600 
    205 H205       -4.7674  -25.0032  -47.5621 H         1 UNK         0.3000 
    206 H206       -5.8528  -23.7281  -48.9694 H         1 UNK         0.0600 
    207 H207       -7.6616  -25.4594  -48.8131 H         1 UNK         0.0600 
    208 H208       -7.6759  -24.6099  -50.3491 H         1 UNK         0.0600 
    209 H209       -7.0299  -26.2404  -50.2632 H         1 UNK         0.0600 
    210 H210       -3.1596  -24.8304  -49.6914 H         1 UNK         0.3000 
    211 H211       -2.9237  -24.8547  -52.5757 H         1 UNK         0.0600 
    212 H212       -0.8321  -24.5063  -50.3589 H         1 UNK         0.0600 
    213 H213       -0.4767  -24.7691  -52.0611 H         1 UNK         0.0600 
    214 H214       -1.2820  -26.0252  -51.1313 H         1 UNK         0.0600 
    215 H215       -2.5378  -22.4380  -49.9810 H         1 UNK         0.3000 
    216 H216       -1.6713  -20.2463  -51.6000 H         1 UNK         0.0600 
    217 H217       -2.4031  -18.8691  -49.6320 H         1 UNK         0.0600 
    218 H218       -1.4145  -20.2216  -49.1427 H         1 UNK         0.0600 
    219 H219       -3.1559  -20.2909  -48.9197 H         1 UNK         0.0600 
    220 H220       -4.8977  -21.4080  -50.6500 H         1 UNK         0.3000 
    221 H221       -6.4116  -19.2810  -51.8432 H         1 UNK         0.0600 
    222 H222       -7.2455  -22.1182  -51.0291 H         1 UNK         0.0600 
    223 H223       -7.3027  -20.6882  -49.9981 H         1 UNK         0.0600 
    224 H224       -8.3405  -20.7972  -51.4108 H         1 UNK         0.0600 
    225 H225       -5.2253  -22.4181  -53.0185 H         1 UNK         0.3000 
    226 H226       -6.5800  -22.3652  -55.5654 H         1 UNK         0.0600 
    227 H227       -5.1419  -24.3392  -56.0224 H         1 UNK         0.0600 
    228 H228       -4.2201  -24.0304  -54.5556 H         1 UNK         0.0600 
    229 H229       -5.9216  -24.4777  -54.4551 H         1 UNK         0.0600 
    230 H230       -5.7755  -19.9802  -55.6007 H         1 UNK         0.3000 
    231 H231       -4.9931  -18.3885  -56.8667 H         1 UNK         0.0600 
    232 H232       -3.7537  -20.5358  -58.6629 H         1 UNK         0.0600 
    233 H233       -4.0542  -18.8621  -59.1015 H         1 UNK         0.0600 
    234 H234       -5.4072  -19.9314  -58.7707 H         1 UNK         0.0600 
    235 H235       -2.5380  -20.5120  -55.5837 H         1 UNK         0.3000 
    236 H236       -0.2151  -19.1940  -56.3638 H         1 UNK         0.0600 
    237 H237       -0.6611  -20.6407  -53.7078 H         1 UNK         0.0600 
    238 H238       -0.3403  -21.4488  -55.2422 H         1 UNK         0.0600 
    239 H239        0.8730  -20.3981  -54.5240 H         1 UNK         0.0600 
    240 H240       -2.4483  -18.2371  -53.8067 H         1 UNK         0.3000 
    241 H241       -0.8429  -15.7860  -53.3368 H         1 UNK         0.0600 
    242 H242       -4.1317  -15.1032  -55.2113 H         1 UNK         0.3800 
    243 H243       -2.9783  -16.3842  -55.4966 H         1 UNK         0.3800 
    244 H244       -1.2751  -17.5627  -51.3466 H         1 UNK         0.0800 
    245 H245       -2.8106  -16.7578  -51.2472 H         1 UNK         0.0800 
    246 H246        1.0479  -16.1452  -51.6235 H         1 UNK         0.0800 
    247 H247        1.3752  -15.0205  -50.3289 H         1 UNK         0.0800 
@<TRIPOS>BOND
     1    1    2 1    
     2    1  127 1    
     3    1  128 1    
     4    1  129 1    
     5    2    3 2    
     6    2    4 am   BACKBONE|DICT|INTERRES
     7    4    5 1    
     8    4  130 1    
     9    5    6 1    
    10    5   65 1    
    11    5  131 1    
    12    6    7 1    
    13    6  132 1    
    14    6  133 1    
    15    7    8 1    
    16    8    9 1    
    17    8  134 1    
    18    8  135 1    
    19    9   10 ar   
    20    9   14 ar   
    21   10   11 ar   
    22   10  136 1    
    23   11   12 ar   
    24   11  126 1    
    25   12   13 ar   
    26   12  137 1    
    27   13   14 ar   
    28   13   15 1    
    29   14  138 1    
    30   15   16 1    
    31   15  139 1    
    32   15  140 1    
    33   16   17 1    
    34   17   18 1    
    35   17  141 1    
    36   17  142 1    
    37   18   19 1    
    38   18   67 1    
    39   18  143 1    
    40   19   20 am   BACKBONE|DICT|INTERRES
    41   19  144 1    
    42   20   21 2    
    43   20   22 1    
    44   22   23 1    
    45   22   24 1    
    46   22  145 1    
    47   23  146 1    
    48   23  147 1    
    49   23  148 1    
    50   24   25 am   BACKBONE|DICT|INTERRES
    51   24  149 1    
    52   25   26 2    
    53   25   27 1    
    54   27   28 1    
    55   27   29 1    
    56   27  150 1    
    57   28  151 1    
    58   28  152 1    
    59   28  153 1    
    60   29   30 am   BACKBONE|DICT|INTERRES
    61   29  154 1    
    62   30   31 2    
    63   30   32 1    
    64   32   33 1    
    65   32   34 1    
    66   32  155 1    
    67   33  156 1    
    68   33  157 1    
    69   33  158 1    
    70   34   35 am   BACKBONE|DICT|INTERRES
    71   34  159 1    
    72   35   36 2    
    73   35   37 1    
    74   37   38 1    
    75   37   39 1    
    76   37  160 1    
    77   38  161 1    
    78   38  162 1    
    79   38  163 1    
    80   39   40 am   BACKBONE|DICT|INTERRES
    81   39  164 1    
    82   40   41 2    
    83   40   42 1    
    84   42   43 1    
    85   42   44 1    
    86   42  165 1    
    87   43  166 1    
    88   43  167 1    
    89   43  168 1    
    90   44   45 am   BACKBONE|DICT|INTERRES
    91   44  169 1    
    92   45   46 2    
    93   45   47 1    
    94   47   48 1    
    95   47   49 1    
    96   47  170 1    
    97   48  171 1    
    98   48  172 1    
    99   48  173 1    
   100   49   50 am   BACKBONE|DICT|INTERRES
   101   49  174 1    
   102   50   51 2    
   103   50   52 1    
   104   52   53 1    
   105   52   54 1    
   106   52  175 1    
   107   53  176 1    
   108   53  177 1    
   109   53  178 1    
   110   54   55 am   BACKBONE|DICT|INTERRES
   111   54  179 1    
   112   55   56 2    
   113   55   57 1    
   114   57   58 1    
   115   57   59 1    
   116   57  180 1    
   117   58  181 1    
   118   58  182 1    
   119   58  183 1    
   120   59   60 am   BACKBONE|DICT|INTERRES
   121   59  184 1    
   122   60   61 2    
   123   60   62 1    
   124   62   63 1    
   125   62   64 1    
   126   62  185 1    
   127   63  186 1    
   128   63  187 1    
   129   63  188 1    
   130   64   65 am   BACKBONE|DICT|INTERRES
   131   64  189 1    
   132   65   66 2    
   133   67   68 2    
   134   67   69 am   BACKBONE|DICT|INTERRES
   135   69   70 1    
   136   69  190 1    
   137   70   71 1    
   138   70   72 1    
   139   70  191 1    
   140   71  192 1    
   141   71  193 1    
   142   71  194 1    
   143   72   73 2    
   144   72   74 am   BACKBONE|DICT|INTERRES
   145   74   75 1    
   146   74  195 1    
   147   75   76 1    
   148   75   77 1    
   149   75  196 1    
   150   76  197 1    
   151   76  198 1    
   152   76  199 1    
   153   77   78 2    
   154   77   79 am   BACKBONE|DICT|INTERRES
   155   79   80 1    
   156   79  200 1    
   157   80   81 1    
   158   80   82 1    
   159   80  201 1    
   160   81  202 1    
   161   81  203 1    
   162   81  204 1    
   163   82   83 2    
   164   82   84 am   BACKBONE|DICT|INTERRES
   165   84   85 1    
   166   84  205 1    
   167   85   86 1    
   168   85   87 1    
   169   85  206 1    
   170   86  207 1    
   171   86  208 1    
   172   86  209 1    
   173   87   88 2    
   174   87   89 am   BACKBONE|DICT|INTERRES
   175   89   90 1    
   176   89  210 1    
   177   90   91 1    
   178   90   92 1    
   179   90  211 1    
   180   91  212 1    
   181   91  213 1    
   182   91  214 1    
   183   92   93 2    
   184   92   94 am   BACKBONE|DICT|INTERRES
   185   94   95 1    
   186   94  215 1    
   187   95   96 1    
   188   95   97 1    
   189   95  216 1    
   190   96  217 1    
   191   96  218 1    
   192   96  219 1    
   193   97   98 2    
   194   97   99 am   BACKBONE|DICT|INTERRES
   195   99  100 1    
   196   99  220 1    
   197  100  101 1    
   198  100  102 1    
   199  100  221 1    
   200  101  222 1    
   201  101  223 1    
   202  101  224 1    
   203  102  103 2    
   204  102  104 am   BACKBONE|DICT|INTERRES
   205  104  105 1    
   206  104  225 1    
   207  105  106 1    
   208  105  107 1    
   209  105  226 1    
   210  106  227 1    
   211  106  228 1    
   212  106  229 1    
   213  107  108 2    
   214  107  109 am   BACKBONE|DICT|INTERRES
   215  109  110 1    
   216  109  230 1    
   217  110  111 1    
   218  110  112 1    
   219  110  231 1    
   220  111  232 1    
   221  111  233 1    
   222  111  234 1    
   223  112  113 2    
   224  112  114 am   BACKBONE|DICT|INTERRES
   225  114  115 1    
   226  114  235 1    
   227  115  116 1    
   228  115  117 1    
   229  115  236 1    
   230  116  237 1    
   231  116  238 1    
   232  116  239 1    
   233  117  118 2    
   234  117  119 am   BACKBONE|DICT|INTERRES
   235  119  120 1    
   236  119  240 1    
   237  120  121 1    
   238  120  124 1    
   239  120  241 1    
   240  121  122 am   BACKBONE|DICT|INTERRES
   241  121  123 2    
   242  122  242 1    
   243  122  243 1    
   244  124  125 1    
   245  124  244 1    
   246  124  245 1    
   247  125  126 1    
   248  126  246 1    
   249  126  247 1    
@<TRIPOS>SUBSTRUCTURE
     1 UNK         1 GROUP             0       ****    0 ROOT    
