@<TRIPOS>MOLECULE
3R540
247   249    1
SMALL
USER_CHARGES


@<TRIPOS>ATOM
      1 CA         -5.8749  -16.5259  -43.7421 C.3       0 UNK        -0.1800 
      2 C          -6.0714  -15.8307  -45.0819 C.2       0 UNK         0.5000 
      3 O          -6.5886  -14.7147  -45.1271 O.2       0 UNK        -0.5000 
      4 N          -5.6572  -16.4857  -46.1727 N.am      1 UNK        -0.5000 
      5 CA         -5.7205  -15.9754  -47.5492 C.3       1 UNK         0.1400 
      6 C6         -5.6751  -17.1267  -48.5859 C.3       23 UNK        -0.0398 
      7 S7         -4.2678  -18.2744  -48.3783 S.3       23 UNK        -0.2404 
      8 C8         -3.0998  -17.6588  -49.6240 C.3       23 UNK        -0.0205 
      9 C9         -2.0304  -18.6878  -49.9537 C.ar      23 UNK        -0.0193 
     10 C10        -2.3112  -19.6919  -50.8820 C.ar      23 UNK        -0.1150 
     11 C11        -1.3131  -20.5735  -51.3008 C.ar      23 UNK        -0.0193 
     12 C12        -0.0350  -20.4760  -50.7456 C.ar      23 UNK        -0.1150 
     13 C13         0.2567  -19.4913  -49.7958 C.ar      23 UNK        -0.0193 
     14 C14        -0.7479  -18.5995  -49.4013 C.ar      23 UNK        -0.1150 
     15 C15         1.6822  -19.3362  -49.2780 C.3       23 UNK        -0.0205 
     16 S16         1.9417  -20.0305  -47.6147 S.3       23 UNK        -0.2404 
     17 C17         1.6484  -21.8176  -47.8633 C.3       23 UNK        -0.0398 
     18 CA          0.6990  -22.4483  -46.8170 C.3       11 UNK         0.1400 
     19 N           1.2481  -22.3791  -45.4582 N.am      11 UNK        -0.5000 
     20 C           0.7466  -23.0060  -44.3860 C.2       10 UNK         0.5000 
     21 O          -0.2763  -23.6883  -44.4323 O.2       10 UNK        -0.5000 
     22 CA          1.4428  -22.8128  -43.0267 C.3       10 UNK         0.1400 
     23 CB          1.7924  -24.1611  -42.3669 C.3       10 UNK        -0.1800 
     24 N           2.5961  -21.9084  -43.0478 N.am      10 UNK        -0.5000 
     25 C           3.8096  -22.0867  -43.5887 C.2       9 UNK         0.5000 
     26 O           4.1503  -23.1000  -44.1984 O.2       9 UNK        -0.5000 
     27 CA          4.8069  -20.9169  -43.4506 C.3       9 UNK         0.1400 
     28 CB          4.9840  -20.2145  -44.8058 C.3       9 UNK        -0.1800 
     29 N           4.4027  -19.9229  -42.4504 N.am      9 UNK        -0.5000 
     30 C           4.4374  -20.1127  -41.1231 C.2       8 UNK         0.5000 
     31 O           4.9060  -21.1182  -40.5888 O.2       8 UNK        -0.5000 
     32 CA          3.7948  -19.0176  -40.2503 C.3       8 UNK         0.1400 
     33 CB          4.7752  -17.8584  -40.0172 C.3       8 UNK        -0.1800 
     34 N           2.5495  -18.4987  -40.8219 N.am      8 UNK        -0.5000 
     35 C           1.4191  -19.2043  -40.9761 C.2       7 UNK         0.5000 
     36 O           1.2866  -20.3695  -40.6052 O.2       7 UNK        -0.5000 
     37 CA          0.2615  -18.5152  -41.7207 C.3       7 UNK         0.1400 
     38 CB         -0.5521  -17.6125  -40.7815 C.3       7 UNK        -0.1800 
     39 N           0.7515  -17.7383  -42.8578 N.am      7 UNK        -0.5000 
     40 C           1.1740  -18.2771  -44.0098 C.2       6 UNK         0.5000 
     41 O           1.0733  -19.4750  -44.2774 O.2       6 UNK        -0.5000 
     42 CA          1.8360  -17.3249  -45.0214 C.3       6 UNK         0.1400 
     43 CB          0.8116  -16.8379  -46.0532 C.3       6 UNK        -0.1800 
     44 N           2.4585  -16.1691  -44.3747 N.am      6 UNK        -0.5000 
     45 C           3.6314  -16.2097  -43.7269 C.2       5 UNK         0.5000 
     46 O           4.3111  -17.2295  -43.6206 O.2       5 UNK        -0.5000 
     47 CA          4.1038  -14.9109  -43.0414 C.3       5 UNK         0.1400 
     48 CB          4.8823  -14.0324  -44.0314 C.3       5 UNK        -0.1800 
     49 N           3.0070  -14.1311  -42.4648 N.am      5 UNK        -0.5000 
     50 C           2.1940  -14.5669  -41.4931 C.2       4 UNK         0.5000 
     51 O           2.3442  -15.6461  -40.9224 O.2       4 UNK        -0.5000 
     52 CA          0.9778  -13.6901  -41.1312 C.3       4 UNK         0.1400 
     53 CB          1.2864  -12.8402  -39.8899 C.3       4 UNK        -0.1800 
     54 N           0.4871  -12.8132  -42.2024 N.am      4 UNK        -0.5000 
     55 C           0.1335  -13.1927  -43.4388 C.2       3 UNK         0.5000 
     56 O           0.2814  -14.3388  -43.8677 O.2       3 UNK        -0.5000 
     57 CA         -0.4272  -12.0817  -44.3507 C.3       3 UNK         0.1400 
     58 CB          0.6897  -11.1012  -44.7468 C.3       3 UNK        -0.1800 
     59 N          -1.0493  -12.5832  -45.5786 N.am      3 UNK        -0.5000 
     60 C          -2.1173  -13.3880  -45.6515 C.2       2 UNK         0.5000 
     61 O          -2.7492  -13.7867  -44.6684 O.2       2 UNK        -0.5000 
     62 CA         -2.5661  -13.7885  -47.0680 C.3       2 UNK         0.1400 
     63 CB         -1.4299  -14.3992  -47.9127 C.3       2 UNK        -0.1800 
     64 N          -3.6650  -14.7413  -46.9727 N.am      2 UNK        -0.5000 
     65 C          -4.6546  -14.8976  -47.8577 C.2       1 UNK         0.5000 
     66 O          -4.7472  -14.2380  -48.8941 O.2       1 UNK        -0.5000 
     67 C          -0.7376  -21.8910  -46.9089 C.2       11 UNK         0.5000 
     68 O          -1.5451  -22.4202  -47.6746 O.2       11 UNK        -0.5000 
     69 N          -1.0540  -20.8976  -46.0647 N.am      12 UNK        -0.5000 
     70 CA         -2.3884  -20.3141  -45.9336 C.3       12 UNK         0.1400 
     71 CB         -2.2989  -19.0055  -45.1328 C.3       12 UNK        -0.1800 
     72 C          -3.4404  -21.2604  -45.3190 C.2       12 UNK         0.5000 
     73 O          -4.6291  -20.9495  -45.3911 O.2       12 UNK        -0.5000 
     74 N          -3.0002  -22.3810  -44.7313 N.am      13 UNK        -0.5000 
     75 CA         -3.8551  -23.4399  -44.2001 C.3       13 UNK         0.1400 
     76 CB         -3.4852  -23.6948  -42.7299 C.3       13 UNK        -0.1800 
     77 C          -3.7106  -24.7292  -45.0259 C.2       13 UNK         0.5000 
     78 O          -4.7185  -25.3656  -45.3339 O.2       13 UNK        -0.5000 
     79 N          -2.4664  -25.1007  -45.3580 N.am      14 UNK        -0.5000 
     80 CA         -2.1210  -26.3474  -46.0391 C.3       14 UNK         0.1400 
     81 CB         -0.6163  -26.6125  -45.8743 C.3       14 UNK        -0.1800 
     82 C          -2.5094  -26.3679  -47.5267 C.2       14 UNK         0.5000 
     83 O          -2.9314  -27.4165  -48.0169 O.2       14 UNK        -0.5000 
     84 N          -2.3553  -25.2292  -48.2153 N.am      15 UNK        -0.5000 
     85 CA         -2.7070  -25.0695  -49.6250 C.3       15 UNK         0.1400 
     86 CB         -1.5256  -24.4575  -50.3935 C.3       15 UNK        -0.1800 
     87 C          -3.9810  -24.2224  -49.7391 C.2       15 UNK         0.5000 
     88 O          -4.9697  -24.7017  -50.2926 O.2       15 UNK        -0.5000 
     89 N          -3.9450  -23.0042  -49.1762 N.am      16 UNK        -0.5000 
     90 CA         -5.0502  -22.0712  -48.8955 C.3       16 UNK         0.1400 
     91 CB         -5.9986  -22.6988  -47.8566 C.3       16 UNK        -0.1800 
     92 C          -5.8757  -21.5352  -50.0899 C.2       16 UNK         0.5000 
     93 O          -6.5233  -20.4984  -49.9467 O.2       16 UNK        -0.5000 
     94 N          -5.8903  -22.2496  -51.2203 N.am      17 UNK        -0.5000 
     95 CA         -6.8100  -22.0475  -52.3424 C.3       17 UNK         0.1400 
     96 CB         -6.6787  -23.2435  -53.2993 C.3       17 UNK        -0.1800 
     97 C          -6.6259  -20.7319  -53.1204 C.2       17 UNK         0.5000 
     98 O          -7.5835  -20.2682  -53.7403 O.2       17 UNK        -0.5000 
     99 N          -5.3984  -20.1907  -53.1162 N.am      18 UNK        -0.5000 
    100 CA        -4.9378  -19.0335  -53.9017 C.3       18 UNK         0.1400 
    101 CB        -5.6967  -17.7490  -53.5104 C.3       18 UNK        -0.1800 
    102 C         -4.9393  -19.2926  -55.4286 C.2       18 UNK         0.5000 
    103 O         -4.9113  -18.3452  -56.2168 O.2       18 UNK        -0.5000 
    104 N         -4.9578  -20.5754  -55.8215 N.am      19 UNK        -0.5000 
    105 CA        -4.9246  -21.0565  -57.2004 C.3       19 UNK         0.1400 
    106 CB        -5.1461  -22.5765  -57.2042 C.3       19 UNK        -0.1800 
    107 C         -3.5955  -20.6945  -57.8826 C.2       19 UNK         0.5000 
    108 O         -2.5338  -20.8924  -57.2899 O.2       19 UNK        -0.5000 
    109 N         -3.6826  -20.1336  -59.0966 N.am      20 UNK        -0.5000 
    110 CA        -2.5690  -19.5753  -59.8784 C.3       20 UNK         0.1400 
    111 CB        -1.6110  -20.6916  -60.3459 C.3       20 UNK        -0.1800 
    112 C         -1.8350  -18.4184  -59.1581 C.2       20 UNK         0.5000 
    113 O         -0.6600  -18.1700  -59.4331 O.2       20 UNK        -0.5000 
    114 N         -2.5529  -17.7340  -58.2533 N.am      21 UNK        -0.5000 
    115 CA        -2.1073  -16.6282  -57.4052 C.3       21 UNK         0.1400 
    116 CB        -1.7705  -15.3849  -58.2566 C.3       21 UNK        -0.1800 
    117 C         -0.9838  -17.0174  -56.4202 C.2       21 UNK         0.5000 
    118 O         -0.0852  -16.2090  -56.1753 O.2       21 UNK        -0.5000 
    119 N         -1.0510  -18.2342  -55.8558 N.am      22 UNK        -0.5000 
    120 CA        -0.1904  -18.6579  -54.7370 C.3       22 UNK         0.1400 
    121 C         -0.4118  -17.8151  -53.4460 C.2       22 UNK         0.5000 
    122 N          0.6196  -17.6450  -52.6301 N.am      22 UNK        -0.7600 
    123 O         -1.5040  -17.3177  -53.1782 O.2       22 UNK        -0.5000 
    124 C124       -0.2520  -20.1886  -54.4704 C.3       23 UNK        -0.0398 
    125 S125       -1.8939  -20.8496  -54.0106 S.3       23 UNK        -0.2404 
    126 C126       -1.6081  -21.6054  -52.3778 C.3       23 UNK        -0.0205 
    127 H127       -5.1899  -15.9503  -43.1193 H         1 UNK         0.0600 
    128 H128       -6.8271  -16.6090  -43.2182 H         1 UNK         0.0600 
    129 H129       -5.4648  -17.5292  -43.8618 H         1 UNK         0.0600 
    130 H130       -5.2474  -17.4050  -46.0807 H         1 UNK         0.3000 
    131 H131       -6.6861  -15.4796  -47.6694 H         1 UNK         0.0600 
    132 H132       -5.6987  -16.7404  -49.6064 H         1 UNK         0.0800 
    133 H133       -6.5837  -17.7228  -48.4903 H         1 UNK         0.0800 
    134 H134       -2.6420  -16.7379  -49.2649 H         1 UNK         0.0800 
    135 H135       -3.6344  -17.3994  -50.5392 H         1 UNK         0.0800 
    136 H136       -3.2970  -19.7499  -51.3163 H         1 UNK         0.1150 
    137 H137        0.7441  -21.1461  -51.0795 H         1 UNK         0.1150 
    138 H138       -0.5220  -17.8123  -48.6978 H         1 UNK         0.1150 
    139 H139        2.3913  -19.7955  -49.9683 H         1 UNK         0.0800 
    140 H140        1.9367  -18.2759  -49.2511 H         1 UNK         0.0800 
    141 H141        2.6156  -22.3204  -47.8249 H         1 UNK         0.0800 
    142 H142        1.2684  -22.0041  -48.8671 H         1 UNK         0.0800 
    143 H143        0.6247  -23.5098  -47.0614 H         1 UNK         0.0600 
    144 H144        2.0431  -21.7713  -45.3258 H         1 UNK         0.3000 
    145 H145        0.7027  -22.3249  -42.3917 H         1 UNK         0.0600 
    146 H146        2.2564  -24.0135  -41.3916 H         1 UNK         0.0600 
    147 H147        0.8959  -24.7626  -42.2112 H         1 UNK         0.0600 
    148 H148        2.4741  -24.7510  -42.9798 H         1 UNK         0.0600 
    149 H149        2.4303  -21.0192  -42.5969 H         1 UNK         0.3000 
    150 H150        5.7694  -21.3371  -43.1522 H         1 UNK         0.0600 
    151 H151        5.3236  -20.9140  -45.5707 H         1 UNK         0.0600 
    152 H152        5.7247  -19.4171  -44.7440 H         1 UNK         0.0600 
    153 H153        4.0483  -19.7771  -45.1546 H         1 UNK         0.0600 
    154 H154        4.0879  -19.0259  -42.8077 H         1 UNK         0.3000 
    155 H155        3.5575  -19.4612  -39.2812 H         1 UNK         0.0600 
    156 H156        5.0453  -17.3644  -40.9505 H         1 UNK         0.0600 
    157 H157        5.6969  -18.2137  -39.5549 H         1 UNK         0.0600 
    158 H158        4.3464  -17.1070  -39.3537 H         1 UNK         0.0600 
    159 H159        2.5474  -17.5161  -41.0821 H         1 UNK         0.3000 
    160 H160       -0.4059  -19.2943  -42.0955 H         1 UNK         0.0600 
    161 H161       -1.3687  -17.1240  -41.3134 H         1 UNK         0.0600 
    162 H162        0.0626  -16.8378  -40.3245 H         1 UNK         0.0600 
    163 H163       -0.9934  -18.1957  -39.9724 H         1 UNK         0.0600 
    164 H164        0.8654  -16.7439  -42.7233 H         1 UNK         0.3000 
    165 H165        2.6089  -17.8838  -45.5515 H         1 UNK         0.0600 
    166 H166        1.2699  -16.1724  -46.7846 H         1 UNK         0.0600 
    167 H167        0.3898  -17.6803  -46.5994 H         1 UNK         0.0600 
    168 H168       -0.0156  -16.3072  -45.5817 H         1 UNK         0.0600 
    169 H169        1.9013  -15.3203  -44.3453 H         1 UNK         0.3000 
    170 H170        4.7778  -15.1912  -42.2295 H         1 UNK         0.0600 
    171 H171        5.7196  -14.5812  -44.4650 H         1 UNK         0.0600 
    172 H172        4.2500  -13.6942  -44.8535 H         1 UNK         0.0600 
    173 H173        5.2932  -13.1512  -43.5385 H         1 UNK         0.0600 
    174 H174        2.8107  -13.2361  -42.8872 H         1 UNK         0.3000 
    175 H175        0.1618  -14.3706  -40.8808 H         1 UNK         0.0600 
    176 H176        0.4007  -12.3060  -39.5457 H         1 UNK         0.0600 
    177 H177        1.6280  -13.4643  -39.0627 H         1 UNK         0.0600 
    178 H178        2.0668  -12.1051  -40.0906 H         1 UNK         0.0600 
    179 H179        0.3563  -11.8452  -41.9458 H         1 UNK         0.3000 
    180 H180       -1.1906  -11.5403  -43.7885 H         1 UNK         0.0600 
    181 H181        1.4795  -11.5994  -45.3108 H         1 UNK         0.0600 
    182 H182        1.1510  -10.6450  -43.8701 H         1 UNK         0.0600 
    183 H183        0.3016  -10.2883  -45.3610 H         1 UNK         0.0600 
    184 H184       -0.5900  -12.3222  -46.4380 H         1 UNK         0.3000 
    185 H185       -2.9196  -12.8762  -47.5527 H         1 UNK         0.0600 
    186 H186       -1.1200  -15.3676  -47.5225 H         1 UNK         0.0600 
    187 H187       -1.7494  -14.5452  -48.9443 H         1 UNK         0.0600 
    188 H188       -0.5500  -13.7568  -47.9460 H         1 UNK         0.0600 
    189 H189       -3.7034  -15.2529  -46.1011 H         1 UNK         0.3000 
    190 H190       -0.3248  -20.5201  -45.4681 H         1 UNK         0.3000 
    191 H191       -2.7296  -20.0796  -46.9407 H         1 UNK         0.0600 
    192 H192       -1.8873  -19.1705  -44.1370 H         1 UNK         0.0600 
    193 H193       -3.2819  -18.5496  -45.0112 H         1 UNK         0.0600 
    194 H194       -1.6733  -18.2762  -45.6438 H         1 UNK         0.0600 
    195 H195       -2.0043  -22.5636  -44.7233 H         1 UNK         0.3000 
    196 H196       -4.9055  -23.1438  -44.2360 H         1 UNK         0.0600 
    197 H197       -4.1011  -24.4879  -42.3041 H         1 UNK         0.0600 
    198 H198       -3.6426  -22.8010  -42.1261 H         1 UNK         0.0600 
    199 H199       -2.4417  -23.9926  -42.6189 H         1 UNK         0.0600 
    200 H200       -1.6789  -24.5459  -45.0271 H         1 UNK         0.3000 
    201 H201       -2.6598  -27.1595  -45.5462 H         1 UNK         0.0600 
    202 H202       -0.3383  -26.6667  -44.8215 H         1 UNK         0.0600 
    203 H203       -0.0159  -25.8292  -46.3378 H         1 UNK         0.0600 
    204 H204       -0.3331  -27.5597  -46.3350 H         1 UNK         0.0600 
    205 H205       -2.0467  -24.3931  -47.7326 H         1 UNK         0.3000 
    206 H206       -2.9168  -26.0395  -50.0807 H         1 UNK         0.0600 
    207 H207       -0.6278  -25.0645  -50.2771 H         1 UNK         0.0600 
    208 H208       -1.7463  -24.4134  -51.4600 H         1 UNK         0.0600 
    209 H209       -1.2871  -23.4484  -50.0590 H         1 UNK         0.0600 
    210 H210       -3.0558  -22.7179  -48.7722 H         1 UNK         0.3000 
    211 H211       -4.5812  -21.2033  -48.4322 H         1 UNK         0.0600 
    212 H212       -6.5466  -23.5468  -48.2686 H         1 UNK         0.0600 
    213 H213       -6.7323  -21.9712  -47.5073 H         1 UNK         0.0600 
    214 H214       -5.4518  -23.0502  -46.9827 H         1 UNK         0.0600 
    215 H215       -5.4077  -23.1430  -51.1885 H         1 UNK         0.3000 
    216 H216       -7.8249  -22.0440  -51.9397 H         1 UNK         0.0600 
    217 H217       -7.3642  -23.1505  -54.1430 H         1 UNK         0.0600 
    218 H218       -6.9144  -24.1801  -52.7934 H         1 UNK         0.0600 
    219 H219       -5.6690  -23.3267  -53.7034 H         1 UNK         0.0600 
    220 H220       -4.6894  -20.6684  -52.5799 H         1 UNK         0.3000 
    221 H221       -3.8966  -18.8702  -53.6252 H         1 UNK         0.0600 
    222 H222       -6.7342  -17.7688  -53.8441 H         1 UNK         0.0600 
    223 H223       -5.6919  -17.6032  -52.4300 H         1 UNK         0.0600 
    224 H224       -5.2286  -16.8710  -53.9569 H         1 UNK         0.0600 
    225 H225       -4.9223  -21.2823  -55.1039 H         1 UNK         0.3000 
    226 H226       -5.7477  -20.5838  -57.7402 H         1 UNK         0.0600 
    227 H227       -4.3617  -23.0983  -56.6540 H         1 UNK         0.0600 
    228 H228       -6.1034  -22.8376  -56.7526 H         1 UNK         0.0600 
    229 H229       -5.1490  -22.9678  -58.2224 H         1 UNK         0.0600 
    230 H230       -4.5999  -20.0073  -59.5026 H         1 UNK         0.3000 
    231 H231       -3.0162  -19.1340  -60.7702 H         1 UNK         0.0600 
    232 H232       -2.1538  -21.4929  -60.8471 H         1 UNK         0.0600 
    233 H233       -1.0596  -21.1291  -59.5132 H         1 UNK         0.0600 
    234 H234       -0.8775  -20.3062  -61.0549 H         1 UNK         0.0600 
    235 H235       -3.4998  -18.0441  -58.0759 H         1 UNK         0.3000 
    236 H236       -2.9640  -16.3680  -56.7820 H         1 UNK         0.0600 
    237 H237       -1.5861  -14.5161  -57.6237 H         1 UNK         0.0600 
    238 H238       -0.8799  -15.5388  -58.8664 H         1 UNK         0.0600 
    239 H239       -2.5939  -15.1286  -58.9232 H         1 UNK         0.0600 
    240 H240       -1.7934  -18.8691  -56.1165 H         1 UNK         0.3000 
    241 H241        0.8318  -18.4511  -55.0606 H         1 UNK         0.0600 
    242 H242        0.4771  -17.1188  -51.7840 H         1 UNK         0.3800 
    243 H243        1.5277  -18.0324  -52.8291 H         1 UNK         0.3800 
    244 H244        0.0642  -20.7170  -55.3707 H         1 UNK         0.0800 
    245 H245        0.4761  -20.4636  -53.7063 H         1 UNK         0.0800 
    246 H246       -2.5002  -22.1647  -52.0945 H         1 UNK         0.0800 
    247 H247       -0.7978  -22.3314  -52.4574 H         1 UNK         0.0800 
@<TRIPOS>BOND
     1    1    2 1    
     2    1  127 1    
     3    1  128 1    
     4    1  129 1    
     5    2    3 2    
     6    2    4 am   BACKBONE|DICT|INTERRES
     7    4    5 1    
     8    4  130 1    
     9    5    6 1    
    10    5   65 1    
    11    5  131 1    
    12    6    7 1    
    13    6  132 1    
    14    6  133 1    
    15    7    8 1    
    16    8    9 1    
    17    8  134 1    
    18    8  135 1    
    19    9   10 ar   
    20    9   14 ar   
    21   10   11 ar   
    22   10  136 1    
    23   11   12 ar   
    24   11  126 1    
    25   12   13 ar   
    26   12  137 1    
    27   13   14 ar   
    28   13   15 1    
    29   14  138 1    
    30   15   16 1    
    31   15  139 1    
    32   15  140 1    
    33   16   17 1    
    34   17   18 1    
    35   17  141 1    
    36   17  142 1    
    37   18   19 1    
    38   18   67 1    
    39   18  143 1    
    40   19   20 am   BACKBONE|DICT|INTERRES
    41   19  144 1    
    42   20   21 2    
    43   20   22 1    
    44   22   23 1    
    45   22   24 1    
    46   22  145 1    
    47   23  146 1    
    48   23  147 1    
    49   23  148 1    
    50   24   25 am   BACKBONE|DICT|INTERRES
    51   24  149 1    
    52   25   26 2    
    53   25   27 1    
    54   27   28 1    
    55   27   29 1    
    56   27  150 1    
    57   28  151 1    
    58   28  152 1    
    59   28  153 1    
    60   29   30 am   BACKBONE|DICT|INTERRES
    61   29  154 1    
    62   30   31 2    
    63   30   32 1    
    64   32   33 1    
    65   32   34 1    
    66   32  155 1    
    67   33  156 1    
    68   33  157 1    
    69   33  158 1    
    70   34   35 am   BACKBONE|DICT|INTERRES
    71   34  159 1    
    72   35   36 2    
    73   35   37 1    
    74   37   38 1    
    75   37   39 1    
    76   37  160 1    
    77   38  161 1    
    78   38  162 1    
    79   38  163 1    
    80   39   40 am   BACKBONE|DICT|INTERRES
    81   39  164 1    
    82   40   41 2    
    83   40   42 1    
    84   42   43 1    
    85   42   44 1    
    86   42  165 1    
    87   43  166 1    
    88   43  167 1    
    89   43  168 1    
    90   44   45 am   BACKBONE|DICT|INTERRES
    91   44  169 1    
    92   45   46 2    
    93   45   47 1    
    94   47   48 1    
    95   47   49 1    
    96   47  170 1    
    97   48  171 1    
    98   48  172 1    
    99   48  173 1    
   100   49   50 am   BACKBONE|DICT|INTERRES
   101   49  174 1    
   102   50   51 2    
   103   50   52 1    
   104   52   53 1    
   105   52   54 1    
   106   52  175 1    
   107   53  176 1    
   108   53  177 1    
   109   53  178 1    
   110   54   55 am   BACKBONE|DICT|INTERRES
   111   54  179 1    
   112   55   56 2    
   113   55   57 1    
   114   57   58 1    
   115   57   59 1    
   116   57  180 1    
   117   58  181 1    
   118   58  182 1    
   119   58  183 1    
   120   59   60 am   BACKBONE|DICT|INTERRES
   121   59  184 1    
   122   60   61 2    
   123   60   62 1    
   124   62   63 1    
   125   62   64 1    
   126   62  185 1    
   127   63  186 1    
   128   63  187 1    
   129   63  188 1    
   130   64   65 am   BACKBONE|DICT|INTERRES
   131   64  189 1    
   132   65   66 2    
   133   67   68 2    
   134   67   69 am   BACKBONE|DICT|INTERRES
   135   69   70 1    
   136   69  190 1    
   137   70   71 1    
   138   70   72 1    
   139   70  191 1    
   140   71  192 1    
   141   71  193 1    
   142   71  194 1    
   143   72   73 2    
   144   72   74 am   BACKBONE|DICT|INTERRES
   145   74   75 1    
   146   74  195 1    
   147   75   76 1    
   148   75   77 1    
   149   75  196 1    
   150   76  197 1    
   151   76  198 1    
   152   76  199 1    
   153   77   78 2    
   154   77   79 am   BACKBONE|DICT|INTERRES
   155   79   80 1    
   156   79  200 1    
   157   80   81 1    
   158   80   82 1    
   159   80  201 1    
   160   81  202 1    
   161   81  203 1    
   162   81  204 1    
   163   82   83 2    
   164   82   84 am   BACKBONE|DICT|INTERRES
   165   84   85 1    
   166   84  205 1    
   167   85   86 1    
   168   85   87 1    
   169   85  206 1    
   170   86  207 1    
   171   86  208 1    
   172   86  209 1    
   173   87   88 2    
   174   87   89 am   BACKBONE|DICT|INTERRES
   175   89   90 1    
   176   89  210 1    
   177   90   91 1    
   178   90   92 1    
   179   90  211 1    
   180   91  212 1    
   181   91  213 1    
   182   91  214 1    
   183   92   93 2    
   184   92   94 am   BACKBONE|DICT|INTERRES
   185   94   95 1    
   186   94  215 1    
   187   95   96 1    
   188   95   97 1    
   189   95  216 1    
   190   96  217 1    
   191   96  218 1    
   192   96  219 1    
   193   97   98 2    
   194   97   99 am   BACKBONE|DICT|INTERRES
   195   99  100 1    
   196   99  220 1    
   197  100  101 1    
   198  100  102 1    
   199  100  221 1    
   200  101  222 1    
   201  101  223 1    
   202  101  224 1    
   203  102  103 2    
   204  102  104 am   BACKBONE|DICT|INTERRES
   205  104  105 1    
   206  104  225 1    
   207  105  106 1    
   208  105  107 1    
   209  105  226 1    
   210  106  227 1    
   211  106  228 1    
   212  106  229 1    
   213  107  108 2    
   214  107  109 am   BACKBONE|DICT|INTERRES
   215  109  110 1    
   216  109  230 1    
   217  110  111 1    
   218  110  112 1    
   219  110  231 1    
   220  111  232 1    
   221  111  233 1    
   222  111  234 1    
   223  112  113 2    
   224  112  114 am   BACKBONE|DICT|INTERRES
   225  114  115 1    
   226  114  235 1    
   227  115  116 1    
   228  115  117 1    
   229  115  236 1    
   230  116  237 1    
   231  116  238 1    
   232  116  239 1    
   233  117  118 2    
   234  117  119 am   BACKBONE|DICT|INTERRES
   235  119  120 1    
   236  119  240 1    
   237  120  121 1    
   238  120  124 1    
   239  120  241 1    
   240  121  122 am   BACKBONE|DICT|INTERRES
   241  121  123 2    
   242  122  242 1    
   243  122  243 1    
   244  124  125 1    
   245  124  244 1    
   246  124  245 1    
   247  125  126 1    
   248  126  246 1    
   249  126  247 1    
@<TRIPOS>SUBSTRUCTURE
     1 UNK         1 GROUP             0       ****    0 ROOT    
