@<TRIPOS>MOLECULE
3R540
247   249    1
SMALL
USER_CHARGES


@<TRIPOS>ATOM
      1 CA          0.9205  -13.6848  -52.3760 C.3       0 UNK        -0.1800 
      2 C           1.6441  -13.6165  -51.0385 C.2       0 UNK         0.5000 
      3 O           2.8533  -13.3890  -51.0064 O.2       0 UNK        -0.5000 
      4 N           0.9074  -13.8081  -49.9368 N.am      1 UNK        -0.5000 
      5 CA          1.4372  -13.8059  -48.5653 C.3       1 UNK         0.1400 
      6 C6          0.5634  -14.6521  -47.6039 C.3       23 UNK        -0.0398 
      7 S7          0.6326  -16.4222  -48.0257 S.3       23 UNK        -0.2404 
      8 C8         -0.9260  -16.6605  -48.9312 C.3       23 UNK        -0.0205 
      9 C9         -0.7450  -17.7265  -49.9958 C.ar      23 UNK        -0.0193 
     10 C10        -0.3724  -17.3634  -51.2926 C.ar      23 UNK        -0.1150 
     11 C11        -0.1578  -18.3382  -52.2701 C.ar      23 UNK        -0.0193 
     12 C12        -0.3024  -19.6881  -51.9328 C.ar      23 UNK        -0.1150 
     13 C13        -0.6924  -20.0623  -50.6429 C.ar      23 UNK        -0.0193 
     14 C14        -0.9240  -19.0752  -49.6812 C.ar      23 UNK        -0.1150 
     15 C15        -0.8652  -21.5321  -50.2960 C.3       23 UNK        -0.0205 
     16 S16         0.6591  -22.2422  -49.6039 S.3       23 UNK        -0.2404 
     17 C17         0.5060  -21.7779  -47.8465 C.3       23 UNK        -0.0398 
     18 CA          0.5914  -22.9937  -46.8953 C.3       11 UNK         0.1400 
     19 N           0.9656  -22.5771  -45.5432 N.am      11 UNK        -0.5000 
     20 C           1.3727  -23.4069  -44.5744 C.2       10 UNK         0.5000 
     21 O           1.5282  -24.6174  -44.7323 O.2       10 UNK        -0.5000 
     22 CA          1.6057  -22.7844  -43.1852 C.3       10 UNK         0.1400 
     23 CB          3.0021  -22.1512  -43.0986 C.3       10 UNK        -0.1800 
     24 N           0.5878  -21.7918  -42.8313 N.am      10 UNK        -0.5000 
     25 C          -0.7131  -22.0744  -42.6695 C.2       9 UNK         0.5000 
     26 O          -1.1791  -23.2080  -42.7642 O.2       9 UNK        -0.5000 
     27 CA         -1.6652  -20.8978  -42.3993 C.3       9 UNK         0.1400 
     28 CB         -1.6208  -20.4942  -40.9184 C.3       9 UNK        -0.1800 
     29 N          -1.3876  -19.7351  -43.2416 N.am      9 UNK        -0.5000 
     30 C          -1.4779  -19.7162  -44.5795 C.2       8 UNK         0.5000 
     31 O          -1.8346  -20.6797  -45.2574 O.2       8 UNK        -0.5000 
     32 CA         -1.0330  -18.4215  -45.2831 C.3       8 UNK         0.1400 
     33 CB         -2.1122  -17.3331  -45.1895 C.3       8 UNK        -0.1800 
     34 N           0.2286  -17.9103  -44.7509 N.am      8 UNK        -0.5000 
     35 C           1.3951  -18.5683  -44.8126 C.2       7 UNK         0.5000 
     36 O           1.5403  -19.6650  -45.3541 O.2       7 UNK        -0.5000 
     37 CA          2.5843  -17.9138  -44.0927 C.3       7 UNK         0.1400 
     38 CB          3.2135  -16.8136  -44.9607 C.3       7 UNK        -0.1800 
     39 N           2.1889  -17.3623  -42.7957 N.am      7 UNK        -0.5000 
     40 C           1.8487  -18.1091  -41.7348 C.2       6 UNK         0.5000 
     41 O           1.8666  -19.3398  -41.7317 O.2       6 UNK        -0.5000 
     42 CA          1.3708  -17.3567  -40.4792 C.3       6 UNK         0.1400 
     43 CB          2.5685  -16.8838  -39.6422 C.3       6 UNK        -0.1800 
     44 N           0.5164  -16.2113  -40.7948 N.am      6 UNK        -0.5000 
     45 C          -0.6941  -16.3013  -41.3637 C.2       5 UNK         0.5000 
     46 O          -1.2342  -17.3667  -41.6541 O.2       5 UNK        -0.5000 
     47 CA         -1.4034  -14.9796  -41.7088 C.3       5 UNK         0.1400 
     48 CB         -2.2663  -14.5067  -40.5299 C.3       5 UNK        -0.1800 
     49 N          -0.4884  -13.9052  -42.1009 N.am      5 UNK        -0.5000 
     50 C           0.3477  -13.9509  -43.1454 C.2       4 UNK         0.5000 
     51 O           0.4585  -14.9280  -43.8901 O.2       4 UNK        -0.5000 
     52 CA          1.1762  -12.6803  -43.4065 C.3       4 UNK         0.1400 
     53 CB          2.5971  -13.0191  -43.8860 C.3       4 UNK        -0.1800 
     54 N           0.4994  -11.8368  -44.3927 N.am      4 UNK        -0.5000 
     55 C          -0.5855  -11.0922  -44.1245 C.2       3 UNK         0.5000 
     56 O          -1.0389  -10.9620  -42.9856 O.2       3 UNK        -0.5000 
     57 CA         -1.3226  -10.4163  -45.3026 C.3       3 UNK         0.1400 
     58 CB         -1.8578   -9.0140  -44.9414 C.3       3 UNK        -0.1800 
     59 N          -0.5778  -10.3971  -46.5667 N.am      3 UNK        -0.5000 
     60 C           0.5210   -9.6893  -46.8682 C.2       2 UNK         0.5000 
     61 O           1.0753   -8.9080  -46.0934 O.2       2 UNK        -0.5000 
     62 CA          1.0990   -9.9394  -48.2802 C.3       2 UNK         0.1400 
     63 CB          2.5211   -9.3679  -48.4604 C.3       2 UNK        -0.1800 
     64 N           1.0600  -11.3586  -48.6664 N.am      2 UNK        -0.5000 
     65 C           1.6289  -12.3809  -48.0058 C.2       1 UNK         0.5000 
     66 O           2.2669  -12.2372  -46.9647 O.2       1 UNK        -0.5000 
     67 C          -0.6987  -23.8473  -46.8920 C.2       11 UNK         0.5000 
     68 O          -0.7415  -24.8923  -47.5426 O.2       11 UNK        -0.5000 
     69 N          -1.7065  -23.4325  -46.1104 N.am      12 UNK        -0.5000 
     70 CA         -2.9490  -24.1803  -45.9029 C.3       12 UNK         0.1400 
     71 CB         -3.9482  -23.3167  -45.1197 C.3       12 UNK        -0.1800 
     72 C          -2.7221  -25.5354  -45.2036 C.2       12 UNK         0.5000 
     73 O          -3.3236  -26.5321  -45.6035 O.2       12 UNK        -0.5000 
     74 N          -1.8201  -25.5684  -44.2117 N.am      13 UNK        -0.5000 
     75 CA         -1.3894  -26.7783  -43.5031 C.3       13 UNK         0.1400 
     76 CB         -0.5331  -26.3862  -42.2898 C.3       13 UNK        -0.1800 
     77 C          -0.6349  -27.7822  -44.3983 C.2       13 UNK         0.5000 
     78 O          -0.6680  -28.9812  -44.1205 O.2       13 UNK        -0.5000 
     79 N          -0.0122  -27.2894  -45.4781 N.am      14 UNK        -0.5000 
     80 CA          0.6027  -28.0903  -46.5399 C.3       14 UNK         0.1400 
     81 CB          1.7132  -27.2664  -47.2140 C.3       14 UNK        -0.1800 
     82 C          -0.4216  -28.6176  -47.5722 C.2       14 UNK         0.5000 
     83 O          -0.0152  -29.2439  -48.5517 O.2       14 UNK        -0.5000 
     84 N          -1.7196  -28.3693  -47.3360 N.am      15 UNK        -0.5000 
     85 CA         -2.8858  -28.8027  -48.1113 C.3       15 UNK         0.1400 
     86 CB         -2.9516  -30.3408  -48.2272 C.3       15 UNK        -0.1800 
     87 C          -3.0425  -28.0850  -49.4663 C.2       15 UNK         0.5000 
     88 O          -3.7343  -28.5971  -50.3490 O.2       15 UNK        -0.5000 
     89 N          -2.4354  -26.8996  -49.6057 N.am      16 UNK        -0.5000 
     90 CA         -2.6548  -25.9996  -50.7359 C.3       16 UNK         0.1400 
     91 CB         -1.4239  -25.0973  -50.8935 C.3       16 UNK        -0.1800 
     92 C          -3.9281  -25.1566  -50.5253 C.2       16 UNK         0.5000 
     93 O          -4.4360  -25.0616  -49.4040 O.2       16 UNK        -0.5000 
     94 N          -4.4127  -24.5427  -51.6118 N.am      17 UNK        -0.5000 
     95 CA         -5.5289  -23.5943  -51.6033 C.3       17 UNK         0.1400 
     96 CB         -5.9323  -23.2937  -53.0561 C.3       17 UNK        -0.1800 
     97 C          -5.1687  -22.2867  -50.8723 C.2       17 UNK         0.5000 
     98 O          -3.9906  -21.9334  -50.7880 O.2       17 UNK        -0.5000 
     99 N          -6.1901  -21.5640  -50.3959 N.am      18 UNK        -0.5000 
    100 CA        -6.0720  -20.2706  -49.7151 C.3       18 UNK         0.1400 
    101 CB        -7.3637  -20.0128  -48.9188 C.3       18 UNK        -0.1800 
    102 C         -5.7419  -19.1270  -50.7002 C.2       18 UNK         0.5000 
    103 O         -6.5597  -18.2289  -50.9120 O.2       18 UNK        -0.5000 
    104 N         -4.5519  -19.2143  -51.3062 N.am      19 UNK        -0.5000 
    105 CA        -3.9787  -18.3708  -52.3560 C.3       19 UNK         0.1400 
    106 CB        -3.8468  -16.9018  -51.9071 C.3       19 UNK        -0.1800 
    107 C         -4.7214  -18.5134  -53.6958 C.2       19 UNK         0.5000 
    108 O         -4.1571  -19.0506  -54.6483 O.2       19 UNK        -0.5000 
    109 N         -5.9787  -18.0530  -53.7434 N.am      20 UNK        -0.5000 
    110 CA        -6.8687  -18.0388  -54.9062 C.3       20 UNK         0.1400 
    111 CB        -7.3509  -19.4715  -55.2287 C.3       20 UNK        -0.1800 
    112 C         -6.2199  -17.3055  -56.1000 C.2       20 UNK         0.5000 
    113 O         -6.0898  -16.0809  -56.0520 O.2       20 UNK        -0.5000 
    114 N         -5.7909  -18.0584  -57.1222 N.am      21 UNK        -0.5000 
    115 CA        -5.1479  -17.5662  -58.3425 C.3       21 UNK         0.1400 
    116 CB        -4.9087  -18.7504  -59.2915 C.3       21 UNK        -0.1800 
    117 C         -3.8363  -16.7871  -58.1131 C.2       21 UNK         0.5000 
    118 O         -3.5384  -15.8869  -58.8995 O.2       21 UNK        -0.5000 
    119 N         -3.0915  -17.1233  -57.0505 N.am      22 UNK        -0.5000 
    120 CA        -1.8849  -16.3955  -56.6165 C.3       22 UNK         0.1400 
    121 C         -2.1536  -15.3419  -55.5001 C.2       22 UNK         0.5000 
    122 N         -3.3981  -15.0543  -55.1332 N.am      22 UNK        -0.7600 
    123 O         -1.2168  -14.7491  -54.9730 O.2       22 UNK        -0.5000 
    124 C124       -0.7021  -17.3515  -56.2998 C.3       23 UNK        -0.0398 
    125 S125       -1.0002  -18.4876  -54.9040 S.3       23 UNK        -0.2404 
    126 C126        0.2291  -17.9266  -53.6839 C.3       23 UNK        -0.0205 
    127 H127       -0.1497  -13.8539  -52.2536 H         1 UNK         0.0600 
    128 H128        1.3236  -14.4975  -52.9803 H         1 UNK         0.0600 
    129 H129        1.0547  -12.7530  -52.9251 H         1 UNK         0.0600 
    130 H130       -0.0817  -13.9843  -50.0281 H         1 UNK         0.3000 
    131 H131        2.4330  -14.2551  -48.5822 H         1 UNK         0.0600 
    132 H132        0.9222  -14.5646  -46.5769 H         1 UNK         0.0800 
    133 H133       -0.4705  -14.3038  -47.5910 H         1 UNK         0.0800 
    134 H134       -1.7149  -16.9463  -48.2343 H         1 UNK         0.0800 
    135 H135       -1.2484  -15.7285  -49.3958 H         1 UNK         0.0800 
    136 H136       -0.2443  -16.3194  -51.5384 H         1 UNK         0.1150 
    137 H137       -0.1271  -20.4470  -52.6824 H         1 UNK         0.1150 
    138 H138       -1.2235  -19.3533  -48.6820 H         1 UNK         0.1150 
    139 H139       -1.6898  -21.6672  -49.5950 H         1 UNK         0.0800 
    140 H140       -1.1394  -22.0884  -51.1931 H         1 UNK         0.0800 
    141 H141        1.3253  -21.0873  -47.6424 H         1 UNK         0.0800 
    142 H142       -0.4076  -21.2127  -47.6625 H         1 UNK         0.0800 
    143 H143        1.3983  -23.6379  -47.2524 H         1 UNK         0.0600 
    144 H144        0.9107  -21.5835  -45.3410 H         1 UNK         0.3000 
    145 H145        1.5544  -23.5898  -42.4498 H         1 UNK         0.0600 
    146 H146        3.2088  -21.7911  -42.0907 H         1 UNK         0.0600 
    147 H147        3.7767  -22.8769  -43.3496 H         1 UNK         0.0600 
    148 H148        3.1064  -21.3086  -43.7824 H         1 UNK         0.0600 
    149 H149        0.9091  -20.8396  -42.6883 H         1 UNK         0.3000 
    150 H150       -2.6787  -21.2340  -42.6266 H         1 UNK         0.0600 
    151 H151       -1.8295  -21.3487  -40.2734 H         1 UNK         0.0600 
    152 H152       -2.3661  -19.7304  -40.6962 H         1 UNK         0.0600 
    153 H153       -0.6438  -20.1002  -40.6374 H         1 UNK         0.0600 
    154 H154       -1.1307  -18.8797  -42.7550 H         1 UNK         0.3000 
    155 H155       -0.8749  -18.6540  -46.3378 H         1 UNK         0.0600 
    156 H156       -2.3373  -17.0745  -44.1551 H         1 UNK         0.0600 
    157 H157       -3.0407  -17.6661  -45.6545 H         1 UNK         0.0600 
    158 H158       -1.7987  -16.4221  -45.6999 H         1 UNK         0.0600 
    159 H159        0.2094  -16.9975  -44.3100 H         1 UNK         0.3000 
    160 H160        3.3395  -18.6837  -43.9209 H         1 UNK         0.0600 
    161 H161        2.4979  -16.0279  -45.2009 H         1 UNK         0.0600 
    162 H162        3.5713  -17.2239  -45.9059 H         1 UNK         0.0600 
    163 H163        4.0655  -16.3523  -44.4614 H         1 UNK         0.0600 
    164 H164        2.0811  -16.3600  -42.7426 H         1 UNK         0.3000 
    165 H165        0.7878  -18.0556  -39.8756 H         1 UNK         0.0600 
    166 H166        3.1774  -16.1573  -40.1818 H         1 UNK         0.0600 
    167 H167        2.2407  -16.4219  -38.7107 H         1 UNK         0.0600 
    168 H168        3.2146  -17.7222  -39.3780 H         1 UNK         0.0600 
    169 H169        0.8837  -15.2940  -40.5895 H         1 UNK         0.3000 
    170 H170       -2.0628  -15.1742  -42.5568 H         1 UNK         0.0600 
    171 H171       -2.9759  -15.2793  -40.2307 H         1 UNK         0.0600 
    172 H172       -1.6583  -14.2631  -39.6577 H         1 UNK         0.0600 
    173 H173       -2.8445  -13.6212  -40.7948 H         1 UNK         0.0600 
    174 H174       -0.5589  -13.0415  -41.5805 H         1 UNK         0.3000 
    175 H175        1.2729  -12.1239  -42.4717 H         1 UNK         0.0600 
    176 H176        3.1718  -12.1149  -44.0873 H         1 UNK         0.0600 
    177 H177        3.1371  -13.5876  -43.1282 H         1 UNK         0.0600 
    178 H178        2.5904  -13.6188  -44.7957 H         1 UNK         0.0600 
    179 H179        0.8479  -11.8879  -45.3417 H         1 UNK         0.3000 
    180 H180       -2.1922  -11.0470  -45.4924 H         1 UNK         0.0600 
    181 H181       -2.3806   -8.5611  -45.7837 H         1 UNK         0.0600 
    182 H182       -2.5664   -9.0669  -44.1141 H         1 UNK         0.0600 
    183 H183       -1.0580   -8.3382  -44.6382 H         1 UNK         0.0600 
    184 H184       -0.9357  -11.0138  -47.2824 H         1 UNK         0.3000 
    185 H185        0.4432   -9.4114  -48.9739 H         1 UNK         0.0600 
    186 H186        2.8924   -9.5476  -49.4693 H         1 UNK         0.0600 
    187 H187        2.5328   -8.2895  -48.2984 H         1 UNK         0.0600 
    188 H188        3.2287   -9.8115  -47.7592 H         1 UNK         0.0600 
    189 H189        0.5544  -11.5723  -49.5144 H         1 UNK         0.3000 
    190 H190       -1.6271  -22.5394  -45.6310 H         1 UNK         0.3000 
    191 H191       -3.3787  -24.3851  -46.8857 H         1 UNK         0.0600 
    192 H192       -4.8946  -23.8416  -44.9841 H         1 UNK         0.0600 
    193 H193       -4.1636  -22.3877  -45.6479 H         1 UNK         0.0600 
    194 H194       -3.5700  -23.0592  -44.1305 H         1 UNK         0.0600 
    195 H195       -1.4205  -24.6908  -43.8874 H         1 UNK         0.3000 
    196 H196       -2.2855  -27.2819  -43.1351 H         1 UNK         0.0600 
    197 H197       -0.2216  -27.2681  -41.7288 H         1 UNK         0.0600 
    198 H198       -1.0892  -25.7462  -41.6047 H         1 UNK         0.0600 
    199 H199        0.3687  -25.8528  -42.5898 H         1 UNK         0.0600 
    200 H200       -0.0146  -26.2871  -45.6192 H         1 UNK         0.3000 
    201 H201        1.0724  -28.9648  -46.0853 H         1 UNK         0.0600 
    202 H202        2.4206  -26.8809  -46.4795 H         1 UNK         0.0600 
    203 H203        1.3129  -26.4192  -47.7693 H         1 UNK         0.0600 
    204 H204        2.2788  -27.8770  -47.9185 H         1 UNK         0.0600 
    205 H205       -1.9496  -27.8022  -46.5280 H         1 UNK         0.3000 
    206 H206       -3.7511  -28.4936  -47.5237 H         1 UNK         0.0600 
    207 H207       -2.8383  -30.8154  -47.2525 H         1 UNK         0.0600 
    208 H208       -3.9125  -30.6609  -48.6315 H         1 UNK         0.0600 
    209 H209       -2.1768  -30.7334  -48.8858 H         1 UNK         0.0600 
    210 H210       -1.9207  -26.5179  -48.8221 H         1 UNK         0.3000 
    211 H211       -2.7704  -26.5862  -51.6498 H         1 UNK         0.0600 
    212 H212       -1.3223  -24.4202  -50.0470 H         1 UNK         0.0600 
    213 H213       -1.4959  -24.4871  -51.7942 H         1 UNK         0.0600 
    214 H214       -0.5067  -25.6816  -50.9682 H         1 UNK         0.0600 
    215 H215       -3.9220  -24.6431  -52.4879 H         1 UNK         0.3000 
    216 H216       -6.3726  -24.0603  -51.0899 H         1 UNK         0.0600 
    217 H217       -6.7871  -22.6171  -53.0960 H         1 UNK         0.0600 
    218 H218       -6.2168  -24.2041  -53.5840 H         1 UNK         0.0600 
    219 H219       -5.1187  -22.8234  -53.6103 H         1 UNK         0.0600 
    220 H220       -7.1310  -21.9020  -50.5377 H         1 UNK         0.3000 
    221 H221       -5.2495  -20.3281  -48.9986 H         1 UNK         0.0600 
    222 H222       -8.2375  -19.9668  -49.5700 H         1 UNK         0.0600 
    223 H223       -7.5354  -20.7974  -48.1817 H         1 UNK         0.0600 
    224 H224       -7.3067  -19.0678  -48.3771 H         1 UNK         0.0600 
    225 H225       -4.0169  -20.0549  -51.1016 H         1 UNK         0.3000 
    226 H226       -2.9709  -18.7533  -52.5139 H         1 UNK         0.0600 
    227 H227       -3.3510  -16.8298  -50.9400 H         1 UNK         0.0600 
    228 H228       -3.2464  -16.3372  -52.6202 H         1 UNK         0.0600 
    229 H229       -4.8115  -16.4019  -51.8213 H         1 UNK         0.0600 
    230 H230       -6.3645  -17.6860  -52.8798 H         1 UNK         0.3000 
    231 H231       -7.7435  -17.4517  -54.6235 H         1 UNK         0.0600 
    232 H232       -8.0347  -19.4742  -56.0784 H         1 UNK         0.0600 
    233 H233       -7.8909  -19.8960  -54.3822 H         1 UNK         0.0600 
    234 H234       -6.5274  -20.1477  -55.4603 H         1 UNK         0.0600 
    235 H235       -5.8937  -19.0596  -57.0444 H         1 UNK         0.3000 
    236 H236       -5.8491  -16.8816  -58.8239 H         1 UNK         0.0600 
    237 H237       -4.2415  -19.4910  -58.8485 H         1 UNK         0.0600 
    238 H238       -5.8443  -19.2490  -59.5456 H         1 UNK         0.0600 
    239 H239       -4.4555  -18.4176  -60.2263 H         1 UNK         0.0600 
    240 H240       -3.4121  -17.8585  -56.4303 H         1 UNK         0.3000 
    241 H241       -1.5353  -15.7893  -57.4537 H         1 UNK         0.0600 
    242 H242       -4.1974  -15.4915  -55.5768 H         1 UNK         0.3800 
    243 H243       -3.5468  -14.3531  -54.4260 H         1 UNK         0.3800 
    244 H244       -0.4910  -17.9614  -57.1790 H         1 UNK         0.0800 
    245 H245        0.2101  -16.7796  -56.1237 H         1 UNK         0.0800 
    246 H246        1.2052  -18.3450  -53.9325 H         1 UNK         0.0800 
    247 H247        0.3280  -16.8416  -53.7449 H         1 UNK         0.0800 
@<TRIPOS>BOND
     1    1    2 1    
     2    1  127 1    
     3    1  128 1    
     4    1  129 1    
     5    2    3 2    
     6    2    4 am   BACKBONE|DICT|INTERRES
     7    4    5 1    
     8    4  130 1    
     9    5    6 1    
    10    5   65 1    
    11    5  131 1    
    12    6    7 1    
    13    6  132 1    
    14    6  133 1    
    15    7    8 1    
    16    8    9 1    
    17    8  134 1    
    18    8  135 1    
    19    9   10 ar   
    20    9   14 ar   
    21   10   11 ar   
    22   10  136 1    
    23   11   12 ar   
    24   11  126 1    
    25   12   13 ar   
    26   12  137 1    
    27   13   14 ar   
    28   13   15 1    
    29   14  138 1    
    30   15   16 1    
    31   15  139 1    
    32   15  140 1    
    33   16   17 1    
    34   17   18 1    
    35   17  141 1    
    36   17  142 1    
    37   18   19 1    
    38   18   67 1    
    39   18  143 1    
    40   19   20 am   BACKBONE|DICT|INTERRES
    41   19  144 1    
    42   20   21 2    
    43   20   22 1    
    44   22   23 1    
    45   22   24 1    
    46   22  145 1    
    47   23  146 1    
    48   23  147 1    
    49   23  148 1    
    50   24   25 am   BACKBONE|DICT|INTERRES
    51   24  149 1    
    52   25   26 2    
    53   25   27 1    
    54   27   28 1    
    55   27   29 1    
    56   27  150 1    
    57   28  151 1    
    58   28  152 1    
    59   28  153 1    
    60   29   30 am   BACKBONE|DICT|INTERRES
    61   29  154 1    
    62   30   31 2    
    63   30   32 1    
    64   32   33 1    
    65   32   34 1    
    66   32  155 1    
    67   33  156 1    
    68   33  157 1    
    69   33  158 1    
    70   34   35 am   BACKBONE|DICT|INTERRES
    71   34  159 1    
    72   35   36 2    
    73   35   37 1    
    74   37   38 1    
    75   37   39 1    
    76   37  160 1    
    77   38  161 1    
    78   38  162 1    
    79   38  163 1    
    80   39   40 am   BACKBONE|DICT|INTERRES
    81   39  164 1    
    82   40   41 2    
    83   40   42 1    
    84   42   43 1    
    85   42   44 1    
    86   42  165 1    
    87   43  166 1    
    88   43  167 1    
    89   43  168 1    
    90   44   45 am   BACKBONE|DICT|INTERRES
    91   44  169 1    
    92   45   46 2    
    93   45   47 1    
    94   47   48 1    
    95   47   49 1    
    96   47  170 1    
    97   48  171 1    
    98   48  172 1    
    99   48  173 1    
   100   49   50 am   BACKBONE|DICT|INTERRES
   101   49  174 1    
   102   50   51 2    
   103   50   52 1    
   104   52   53 1    
   105   52   54 1    
   106   52  175 1    
   107   53  176 1    
   108   53  177 1    
   109   53  178 1    
   110   54   55 am   BACKBONE|DICT|INTERRES
   111   54  179 1    
   112   55   56 2    
   113   55   57 1    
   114   57   58 1    
   115   57   59 1    
   116   57  180 1    
   117   58  181 1    
   118   58  182 1    
   119   58  183 1    
   120   59   60 am   BACKBONE|DICT|INTERRES
   121   59  184 1    
   122   60   61 2    
   123   60   62 1    
   124   62   63 1    
   125   62   64 1    
   126   62  185 1    
   127   63  186 1    
   128   63  187 1    
   129   63  188 1    
   130   64   65 am   BACKBONE|DICT|INTERRES
   131   64  189 1    
   132   65   66 2    
   133   67   68 2    
   134   67   69 am   BACKBONE|DICT|INTERRES
   135   69   70 1    
   136   69  190 1    
   137   70   71 1    
   138   70   72 1    
   139   70  191 1    
   140   71  192 1    
   141   71  193 1    
   142   71  194 1    
   143   72   73 2    
   144   72   74 am   BACKBONE|DICT|INTERRES
   145   74   75 1    
   146   74  195 1    
   147   75   76 1    
   148   75   77 1    
   149   75  196 1    
   150   76  197 1    
   151   76  198 1    
   152   76  199 1    
   153   77   78 2    
   154   77   79 am   BACKBONE|DICT|INTERRES
   155   79   80 1    
   156   79  200 1    
   157   80   81 1    
   158   80   82 1    
   159   80  201 1    
   160   81  202 1    
   161   81  203 1    
   162   81  204 1    
   163   82   83 2    
   164   82   84 am   BACKBONE|DICT|INTERRES
   165   84   85 1    
   166   84  205 1    
   167   85   86 1    
   168   85   87 1    
   169   85  206 1    
   170   86  207 1    
   171   86  208 1    
   172   86  209 1    
   173   87   88 2    
   174   87   89 am   BACKBONE|DICT|INTERRES
   175   89   90 1    
   176   89  210 1    
   177   90   91 1    
   178   90   92 1    
   179   90  211 1    
   180   91  212 1    
   181   91  213 1    
   182   91  214 1    
   183   92   93 2    
   184   92   94 am   BACKBONE|DICT|INTERRES
   185   94   95 1    
   186   94  215 1    
   187   95   96 1    
   188   95   97 1    
   189   95  216 1    
   190   96  217 1    
   191   96  218 1    
   192   96  219 1    
   193   97   98 2    
   194   97   99 am   BACKBONE|DICT|INTERRES
   195   99  100 1    
   196   99  220 1    
   197  100  101 1    
   198  100  102 1    
   199  100  221 1    
   200  101  222 1    
   201  101  223 1    
   202  101  224 1    
   203  102  103 2    
   204  102  104 am   BACKBONE|DICT|INTERRES
   205  104  105 1    
   206  104  225 1    
   207  105  106 1    
   208  105  107 1    
   209  105  226 1    
   210  106  227 1    
   211  106  228 1    
   212  106  229 1    
   213  107  108 2    
   214  107  109 am   BACKBONE|DICT|INTERRES
   215  109  110 1    
   216  109  230 1    
   217  110  111 1    
   218  110  112 1    
   219  110  231 1    
   220  111  232 1    
   221  111  233 1    
   222  111  234 1    
   223  112  113 2    
   224  112  114 am   BACKBONE|DICT|INTERRES
   225  114  115 1    
   226  114  235 1    
   227  115  116 1    
   228  115  117 1    
   229  115  236 1    
   230  116  237 1    
   231  116  238 1    
   232  116  239 1    
   233  117  118 2    
   234  117  119 am   BACKBONE|DICT|INTERRES
   235  119  120 1    
   236  119  240 1    
   237  120  121 1    
   238  120  124 1    
   239  120  241 1    
   240  121  122 am   BACKBONE|DICT|INTERRES
   241  121  123 2    
   242  122  242 1    
   243  122  243 1    
   244  124  125 1    
   245  124  244 1    
   246  124  245 1    
   247  125  126 1    
   248  126  246 1    
   249  126  247 1    
@<TRIPOS>SUBSTRUCTURE
     1 UNK         1 GROUP             0       ****    0 ROOT    
