@<TRIPOS>MOLECULE
3R540
247   249    1
SMALL
USER_CHARGES


@<TRIPOS>ATOM
      1 CA          1.4883  -12.8563  -43.9542 C.3       0 UNK        -0.1800 
      2 C           0.9105  -11.9968  -45.0660 C.2       0 UNK         0.5000 
      3 O           0.8473  -10.7740  -44.9343 O.2       0 UNK        -0.5000 
      4 N           0.5000  -12.6311  -46.1677 N.am      1 UNK        -0.5000 
      5 CA         -0.0405  -11.9879  -47.3647 C.3       1 UNK         0.1400 
      6 C6         -1.0955  -12.8845  -48.0578 C.3       23 UNK        -0.0398 
      7 S7         -2.6705  -12.9383  -47.1356 S.3       23 UNK        -0.2404 
      8 C8         -2.5076  -14.4595  -46.1415 C.3       23 UNK        -0.0205 
      9 C9         -2.3582  -15.7176  -46.9867 C.ar      23 UNK        -0.0193 
     10 C10        -3.3276  -16.0600  -47.9329 C.ar      23 UNK        -0.1150 
     11 C11        -3.1884  -17.2186  -48.7002 C.ar      23 UNK        -0.0193 
     12 C12        -2.0709  -18.0351  -48.5187 C.ar      23 UNK        -0.1150 
     13 C13        -1.1013  -17.7239  -47.5555 C.ar      23 UNK        -0.0193 
     14 C14        -1.2570  -16.5576  -46.8012 C.ar      23 UNK        -0.1150 
     15 C15         0.1119  -18.6122  -47.2628 C.3       23 UNK        -0.0205 
     16 S16         0.3501  -20.0506  -48.3581 S.3       23 UNK        -0.2404 
     17 C17        -1.0315  -21.1364  -47.8648 C.3       23 UNK        -0.0398 
     18 CA         -0.5441  -22.3338  -47.0228 C.3       11 UNK         0.1400 
     19 N          -0.2368  -21.9663  -45.6402 N.am      11 UNK        -0.5000 
     20 C           0.4474  -22.7455  -44.7921 C.2       10 UNK         0.5000 
     21 O           0.9369  -23.8316  -45.1024 O.2       10 UNK        -0.5000 
     22 CA          0.5399  -22.2518  -43.3395 C.3       10 UNK         0.1400 
     23 CB          1.6524  -21.2020  -43.1864 C.3       10 UNK        -0.1800 
     24 N          -0.7373  -21.6995  -42.8825 N.am      10 UNK        -0.5000 
     25 C          -1.8269  -22.4444  -42.6384 C.2       9 UNK         0.5000 
     26 O          -1.8468  -23.6710  -42.7448 O.2       9 UNK        -0.5000 
     27 CA         -3.1210  -21.7032  -42.2450 C.3       9 UNK         0.1400 
     28 CB         -3.1953  -21.5302  -40.7209 C.3       9 UNK        -0.1800 
     29 N          -3.2659  -20.3939  -42.8820 N.am      9 UNK        -0.5000 
     30 C          -3.3514  -20.1806  -44.2028 C.2       8 UNK         0.5000 
     31 O          -3.3650  -21.0820  -45.0394 O.2       8 UNK        -0.5000 
     32 CA         -3.3494  -18.7128  -44.6728 C.3       8 UNK         0.1400 
     33 CB         -4.7821  -18.2023  -44.8796 C.3       8 UNK        -0.1800 
     34 N          -2.6260  -17.7961  -43.7810 N.am      8 UNK        -0.5000 
     35 C          -1.3348  -17.9209  -43.4472 C.2       7 UNK         0.5000 
     36 O          -0.6220  -18.8583  -43.8173 O.2       7 UNK        -0.5000 
     37 CA         -0.7503  -16.8570  -42.5110 C.3       7 UNK         0.1400 
     38 CB         -1.2039  -17.1158  -41.0608 C.3       7 UNK        -0.1800 
     39 N           0.7012  -16.9415  -42.6193 N.am      7 UNK        -0.5000 
     40 C           1.6039  -16.0965  -42.1126 C.2       6 UNK         0.5000 
     41 O           1.3108  -15.0884  -41.4706 O.2       6 UNK        -0.5000 
     42 CA          3.0882  -16.4220  -42.3678 C.3       6 UNK         0.1400 
     43 CB          3.7332  -16.9708  -41.0858 C.3       6 UNK        -0.1800 
     44 N           3.2643  -17.4172  -43.4337 N.am      6 UNK        -0.5000 
     45 C           3.5863  -17.2139  -44.7193 C.2       5 UNK         0.5000 
     46 O           3.6381  -18.1580  -45.5086 O.2       5 UNK        -0.5000 
     47 CA          3.9559  -15.7967  -45.2168 C.3       5 UNK         0.1400 
     48 CB          5.4053  -15.4465  -44.8374 C.3       5 UNK        -0.1800 
     49 N           3.8464  -15.7088  -46.6705 N.am      5 UNK        -0.5000 
     50 C           2.7185  -15.4866  -47.3507 C.2       4 UNK         0.5000 
     51 O           1.6473  -15.1890  -46.8197 O.2       4 UNK        -0.5000 
     52 CA          2.8450  -15.5712  -48.8832 C.3       4 UNK         0.1400 
     53 CB          1.4945  -15.7100  -49.6057 C.3       4 UNK        -0.1800 
     54 N           3.5405  -14.3901  -49.3883 N.am      4 UNK        -0.5000 
     55 C           4.8733  -14.2570  -49.4464 C.2       3 UNK         0.5000 
     56 O           5.6573  -15.1504  -49.1216 O.2       3 UNK        -0.5000 
     57 CA          5.4335  -12.9060  -49.9347 C.3       3 UNK         0.1400 
     58 CB          5.7754  -12.9759  -51.4308 C.3       3 UNK        -0.1800 
     59 N           4.5248  -11.7815  -49.7072 N.am      3 UNK        -0.5000 
     60 C           4.2175  -11.2774  -48.5050 C.2       2 UNK         0.5000 
     61 O           4.7067  -11.6824  -47.4493 O.2       2 UNK        -0.5000 
     62 CA          3.1689  -10.1474  -48.4586 C.3       2 UNK         0.1400 
     63 CB          2.8974   -9.4711  -49.8219 C.3       2 UNK        -0.1800 
     64 N           1.9219  -10.6215  -47.8541 N.am      2 UNK        -0.5000 
     65 C           1.1422  -11.6250  -48.2834 C.2       1 UNK         0.5000 
     66 O           1.3562  -12.2689  -49.3125 O.2       1 UNK        -0.5000 
     67 C          -1.5467  -23.4996  -47.0903 C.2       11 UNK         0.5000 
     68 O          -1.4009  -24.3518  -47.9633 O.2       11 UNK        -0.5000 
     69 N          -2.5248  -23.5481  -46.1759 N.am      12 UNK        -0.5000 
     70 CA         -3.4825  -24.6494  -46.0581 C.3       12 UNK         0.1400 
     71 CB         -4.5844  -24.2842  -45.0540 C.3       12 UNK        -0.1800 
     72 C          -2.8041  -25.9783  -45.6821 C.2       12 UNK         0.5000 
     73 O          -3.1173  -27.0057  -46.2834 O.2       12 UNK        -0.5000 
     74 N          -1.8478  -25.9246  -44.7436 N.am      13 UNK        -0.5000 
     75 CA         -1.0100  -27.0586  -44.3463 C.3       13 UNK         0.1400 
     76 CB         -0.1955  -26.6791  -43.1005 C.3       13 UNK        -0.1800 
     77 C          -0.0841  -27.5478  -45.4782 C.2       13 UNK         0.5000 
     78 O           0.1125  -28.7546  -45.6241 O.2       13 UNK        -0.5000 
     79 N           0.4437  -26.6072  -46.2735 N.am      14 UNK        -0.5000 
     80 CA          1.2855  -26.8733  -47.4432 C.3       14 UNK         0.1400 
     81 CB          2.0888  -25.6028  -47.7652 C.3       14 UNK        -0.1800 
     82 C           0.4983  -27.3313  -48.6901 C.2       14 UNK         0.5000 
     83 O           1.1203  -27.7731  -49.6567 O.2       14 UNK        -0.5000 
     84 N          -0.8355  -27.1844  -48.6638 N.am      15 UNK        -0.5000 
     85 CA         -1.7868  -27.3769  -49.7672 C.3       15 UNK         0.1400 
     86 CB         -1.7951  -28.8394  -50.2579 C.3       15 UNK        -0.1800 
     87 C          -1.6075  -26.3538  -50.9138 C.2       15 UNK         0.5000 
     88 O          -2.0003  -26.6179  -52.0510 O.2       15 UNK        -0.5000 
     89 N          -1.0419  -25.1866  -50.5836 N.am      16 UNK        -0.5000 
     90 CA         -0.8308  -24.0471  -51.4742 C.3       16 UNK         0.1400 
     91 CB          0.4136  -23.2802  -51.0014 C.3       16 UNK        -0.1800 
     92 C          -2.0535  -23.1118  -51.5234 C.2       16 UNK         0.5000 
     93 O          -2.1736  -22.3264  -52.4628 O.2       16 UNK        -0.5000 
     94 N          -2.9606  -23.2268  -50.5401 N.am      17 UNK        -0.5000 
     95 CA         -4.1947  -22.4386  -50.4140 C.3       17 UNK         0.1400 
     96 CB         -4.7837  -22.6428  -49.0096 C.3       17 UNK        -0.1800 
     97 C          -5.2542  -22.7124  -51.5057 C.2       17 UNK         0.5000 
     98 O          -6.2937  -22.0561  -51.5174 O.2       17 UNK        -0.5000 
     99 N          -4.9807  -23.6534  -52.4183 N.am      18 UNK        -0.5000 
    100 CA        -5.7245  -23.8351  -53.6647 C.3       18 UNK         0.1400 
    101 CB        -5.3411  -25.1940  -54.2711 C.3       18 UNK        -0.1800 
    102 C         -5.4738  -22.6979  -54.6812 C.2       18 UNK         0.5000 
    103 O         -6.2866  -22.5159  -55.5888 O.2       18 UNK        -0.5000 
    104 N         -4.3608  -21.9686  -54.5224 N.am      19 UNK        -0.5000 
    105 CA        -3.9568  -20.8328  -55.3454 C.3       19 UNK         0.1400 
    106 CB        -2.5089  -21.0746  -55.8082 C.3       19 UNK        -0.1800 
    107 C         -4.0654  -19.5148  -54.5546 C.2       19 UNK         0.5000 
    108 O         -4.3354  -19.5231  -53.3499 O.2       19 UNK        -0.5000 
    109 N         -3.8250  -18.4026  -55.2643 N.am      20 UNK        -0.5000 
    110 CA        -3.8390  -17.0164  -54.7841 C.3       20 UNK         0.1400 
    111 CB        -2.7347  -16.7941  -53.7236 C.3       20 UNK        -0.1800 
    112 C         -5.2414  -16.5612  -54.3240 C.2       20 UNK         0.5000 
    113 O         -6.2489  -17.0980  -54.7931 O.2       20 UNK        -0.5000 
    114 N         -5.2883  -15.5739  -53.4176 N.am      21 UNK        -0.5000 
    115 CA        -6.5059  -14.9694  -52.8597 C.3       21 UNK         0.1400 
    116 CB        -6.0985  -13.7961  -51.9543 C.3       21 UNK        -0.1800 
    117 C         -7.4122  -15.9510  -52.0871 C.2       21 UNK         0.5000 
    118 O         -8.5930  -15.6629  -51.8880 O.2       21 UNK        -0.5000 
    119 N         -6.8437  -17.0903  -51.6813 N.am      22 UNK        -0.5000 
    120 CA        -7.5399  -18.2258  -51.0681 C.3       22 UNK         0.1400 
    121 C         -8.3892  -19.0579  -52.0764 C.2       22 UNK         0.5000 
    122 N         -8.2265  -18.9003  -53.3866 N.am      22 UNK        -0.7600 
    123 O         -9.2341  -19.8450  -51.6590 O.2       22 UNK        -0.5000 
    124 C124       -6.5444  -19.1357  -50.3076 C.3       23 UNK        -0.0398 
    125 S125       -5.7107  -18.3128  -48.9082 S.3       23 UNK        -0.2404 
    126 C126       -4.2465  -17.5978  -49.7210 C.3       23 UNK        -0.0205 
    127 H127        1.0524  -12.5783  -42.9946 H         1 UNK         0.0600 
    128 H128        2.5682  -12.7217  -43.8943 H         1 UNK         0.0600 
    129 H129        1.2788  -13.9119  -44.1253 H         1 UNK         0.0600 
    130 H130        0.6919  -13.6252  -46.2675 H         1 UNK         0.3000 
    131 H131       -0.5310  -11.0504  -47.0933 H         1 UNK         0.0600 
    132 H132       -1.3274  -12.5026  -49.0535 H         1 UNK         0.0800 
    133 H133       -0.7161  -13.8951  -48.2024 H         1 UNK         0.0800 
    134 H134       -1.6649  -14.3466  -45.4583 H         1 UNK         0.0800 
    135 H135       -3.3950  -14.5650  -45.5163 H         1 UNK         0.0800 
    136 H136       -4.1924  -15.4261  -48.0703 H         1 UNK         0.1150 
    137 H137       -1.9816  -18.9202  -49.1287 H         1 UNK         0.1150 
    138 H138       -0.5175  -16.3101  -46.0533 H         1 UNK         0.1150 
    139 H139        1.0143  -18.0029  -47.3114 H         1 UNK         0.0800 
    140 H140        0.0518  -18.9727  -46.2381 H         1 UNK         0.0800 
    141 H141       -1.4998  -21.4717  -48.7916 H         1 UNK         0.0800 
    142 H142       -1.7981  -20.5761  -47.3277 H         1 UNK         0.0800 
    143 H143        0.3791  -22.7045  -47.4728 H         1 UNK         0.0600 
    144 H144       -0.6238  -21.0994  -45.2956 H         1 UNK         0.3000 
    145 H145        0.7900  -23.1060  -42.7065 H         1 UNK         0.0600 
    146 H146        1.6963  -20.8162  -42.1678 H         1 UNK         0.0600 
    147 H147        2.6263  -21.6377  -43.4124 H         1 UNK         0.0600 
    148 H148        1.5129  -20.3576  -43.8618 H         1 UNK         0.0600 
    149 H149       -0.8089  -20.6892  -42.8531 H         1 UNK         0.3000 
    150 H150       -3.9653  -22.3192  -42.5591 H         1 UNK         0.0600 
    151 H151       -2.3924  -20.8927  -40.3483 H         1 UNK         0.0600 
    152 H152       -3.1127  -22.4928  -40.2142 H         1 UNK         0.0600 
    153 H153       -4.1445  -21.0866  -40.4196 H         1 UNK         0.0600 
    154 H154       -3.2542  -19.5902  -42.2722 H         1 UNK         0.3000 
    155 H155       -2.8479  -18.6969  -45.6404 H         1 UNK         0.0600 
    156 H156       -5.3347  -18.1579  -43.9406 H         1 UNK         0.0600 
    157 H157       -5.3339  -18.8548  -45.5580 H         1 UNK         0.0600 
    158 H158       -4.7839  -17.2059  -45.3223 H         1 UNK         0.0600 
    159 H159       -3.1533  -17.0132  -43.4228 H         1 UNK         0.3000 
    160 H160       -1.0789  -15.8701  -42.8428 H         1 UNK         0.0600 
    161 H161       -0.8648  -18.0889  -40.7029 H         1 UNK         0.0600 
    162 H162       -2.2910  -17.0952  -40.9774 H         1 UNK         0.0600 
    163 H163       -0.8195  -16.3579  -40.3786 H         1 UNK         0.0600 
    164 H164        1.0089  -17.7351  -43.1678 H         1 UNK         0.3000 
    165 H165        3.5864  -15.4833  -42.6064 H         1 UNK         0.0600 
    166 H166        4.7967  -17.1620  -41.2313 H         1 UNK         0.0600 
    167 H167        3.6423  -16.2583  -40.2647 H         1 UNK         0.0600 
    168 H168        3.2656  -17.9027  -40.7649 H         1 UNK         0.0600 
    169 H169        3.0981  -18.3709  -43.1496 H         1 UNK         0.3000 
    170 H170        3.2791  -15.0652  -44.7763 H         1 UNK         0.0600 
    171 H171        6.1165  -16.1317  -45.3006 H         1 UNK         0.0600 
    172 H172        5.6599  -14.4358  -45.1579 H         1 UNK         0.0600 
    173 H173        5.5676  -15.4939  -43.7608 H         1 UNK         0.0600 
    174 H174        4.6825  -15.9245  -47.1979 H         1 UNK         0.3000 
    175 H175        3.4242  -16.4672  -49.1169 H         1 UNK         0.0600 
    176 H176        0.8641  -14.8357  -49.4643 H         1 UNK         0.0600 
    177 H177        1.6375  -15.8423  -50.6780 H         1 UNK         0.0600 
    178 H178        0.9414  -16.5766  -49.2463 H         1 UNK         0.0600 
    179 H179        2.9559  -13.5889  -49.6020 H         1 UNK         0.3000 
    180 H180        6.3561  -12.7149  -49.3826 H         1 UNK         0.0600 
    181 H181        4.8866  -13.1486  -52.0390 H         1 UNK         0.0600 
    182 H182        6.4751  -13.7878  -51.6341 H         1 UNK         0.0600 
    183 H183        6.2433  -12.0525  -51.7727 H         1 UNK         0.0600 
    184 H184        4.0552  -11.4064  -50.5186 H         1 UNK         0.3000 
    185 H185        3.5701   -9.3856  -47.7886 H         1 UNK         0.0600 
    186 H186        3.8187   -9.0800  -50.2556 H         1 UNK         0.0600 
    187 H187        2.4510  -10.1517  -50.5473 H         1 UNK         0.0600 
    188 H188        2.2170   -8.6274  -49.7053 H         1 UNK         0.0600 
    189 H189        1.6943  -10.2173  -46.9533 H         1 UNK         0.3000 
    190 H190       -2.6532  -22.7593  -45.5480 H         1 UNK         0.3000 
    191 H191       -3.9510  -24.7880  -47.0337 H         1 UNK         0.0600 
    192 H192       -5.0789  -23.3530  -45.3314 H         1 UNK         0.0600 
    193 H193       -5.3490  -25.0610  -45.0175 H         1 UNK         0.0600 
    194 H194       -4.1890  -24.1688  -44.0458 H         1 UNK         0.0600 
    195 H195       -1.6845  -25.0468  -44.2611 H         1 UNK         0.3000 
    196 H196       -1.6716  -27.8855  -44.0798 H         1 UNK         0.0600 
    197 H197        0.4199  -27.5150  -42.7659 H         1 UNK         0.0600 
    198 H198       -0.8486  -26.4033  -42.2723 H         1 UNK         0.0600 
    199 H199        0.4699  -25.8374  -43.2943 H         1 UNK         0.0600 
    200 H200        0.2862  -25.6331  -46.0411 H         1 UNK         0.3000 
    201 H201        1.9912  -27.6674  -47.1910 H         1 UNK         0.0600 
    202 H202        2.7823  -25.7748  -48.5893 H         1 UNK         0.0600 
    203 H203        2.6785  -25.2790  -46.9074 H         1 UNK         0.0600 
    204 H204        1.4365  -24.7789  -48.0542 H         1 UNK         0.0600 
    205 H205       -1.2342  -26.7885  -47.8224 H         1 UNK         0.3000 
    206 H206       -2.7706  -27.1728  -49.3423 H         1 UNK         0.0600 
    207 H207       -1.9162  -29.5332  -49.4260 H         1 UNK         0.0600 
    208 H208       -2.6214  -29.0143  -50.9477 H         1 UNK         0.0600 
    209 H209       -0.8752  -29.0989  -50.7820 H         1 UNK         0.0600 
    210 H210       -0.8412  -25.0287  -49.5995 H         1 UNK         0.3000 
    211 H211       -0.6471  -24.4083  -52.4882 H         1 UNK         0.0600 
    212 H212        0.2947  -22.9043  -49.9856 H         1 UNK         0.0600 
    213 H213        0.6161  -22.4243  -51.6467 H         1 UNK         0.0600 
    214 H214        1.2979  -23.9175  -51.0192 H         1 UNK         0.0600 
    215 H215       -2.7796  -23.9034  -49.8113 H         1 UNK         0.3000 
    216 H216       -3.9219  -21.3853  -50.5102 H         1 UNK         0.0600 
    217 H217       -5.6877  -22.0483  -48.8711 H         1 UNK         0.0600 
    218 H218       -4.0825  -22.3309  -48.2367 H         1 UNK         0.0600 
    219 H219       -5.0485  -23.6856  -48.8350 H         1 UNK         0.0600 
    220 H220       -4.1156  -24.1652  -52.3298 H         1 UNK         0.3000 
    221 H221       -6.7924  -23.8483  -53.4365 H         1 UNK         0.0600 
    222 H222       -4.2779  -25.2422  -54.5101 H         1 UNK         0.0600 
    223 H223       -5.5681  -26.0104  -53.5852 H         1 UNK         0.0600 
    224 H224       -5.8942  -25.3811  -55.1924 H         1 UNK         0.0600 
    225 H225       -3.7692  -22.1411  -53.7161 H         1 UNK         0.3000 
    226 H226       -4.5971  -20.7502  -56.2259 H         1 UNK         0.0600 
    227 H227       -2.1692  -20.2909  -56.4859 H         1 UNK         0.0600 
    228 H228       -1.8174  -21.1021  -54.9648 H         1 UNK         0.0600 
    229 H229       -2.4200  -22.0209  -56.3422 H         1 UNK         0.0600 
    230 H230       -3.6468  -18.5051  -56.2533 H         1 UNK         0.3000 
    231 H231       -3.5930  -16.3987  -55.6488 H         1 UNK         0.0600 
    232 H232       -2.9747  -17.2757  -52.7750 H         1 UNK         0.0600 
    233 H233       -2.5767  -15.7335  -53.5265 H         1 UNK         0.0600 
    234 H234       -1.7800  -17.1955  -54.0640 H         1 UNK         0.0600 
    235 H235       -4.4148  -15.1876  -53.0903 H         1 UNK         0.3000 
    236 H236       -7.0922  -14.5759  -53.6924 H         1 UNK         0.0600 
    237 H237       -5.5304  -13.0479  -52.5073 H         1 UNK         0.0600 
    238 H238       -6.9761  -13.2954  -51.5430 H         1 UNK         0.0600 
    239 H239       -5.4881  -14.1301  -51.1141 H         1 UNK         0.0600 
    240 H240       -5.8791  -17.2492  -51.9272 H         1 UNK         0.3000 
    241 H241       -8.2460  -17.8253  -50.3381 H         1 UNK         0.0600 
    242 H242       -7.5371  -18.2558  -53.7588 H         1 UNK         0.3800 
    243 H243       -8.7916  -19.4419  -54.0204 H         1 UNK         0.3800 
    244 H244       -5.7944  -19.5333  -50.9923 H         1 UNK         0.0800 
    245 H245       -7.0658  -20.0014  -49.8957 H         1 UNK         0.0800 
    246 H246       -4.5332  -16.7091  -50.2834 H         1 UNK         0.0800 
    247 H247       -3.8385  -18.3073  -50.4430 H         1 UNK         0.0800 
@<TRIPOS>BOND
     1    1    2 1    
     2    1  127 1    
     3    1  128 1    
     4    1  129 1    
     5    2    3 2    
     6    2    4 am   BACKBONE|DICT|INTERRES
     7    4    5 1    
     8    4  130 1    
     9    5    6 1    
    10    5   65 1    
    11    5  131 1    
    12    6    7 1    
    13    6  132 1    
    14    6  133 1    
    15    7    8 1    
    16    8    9 1    
    17    8  134 1    
    18    8  135 1    
    19    9   10 ar   
    20    9   14 ar   
    21   10   11 ar   
    22   10  136 1    
    23   11   12 ar   
    24   11  126 1    
    25   12   13 ar   
    26   12  137 1    
    27   13   14 ar   
    28   13   15 1    
    29   14  138 1    
    30   15   16 1    
    31   15  139 1    
    32   15  140 1    
    33   16   17 1    
    34   17   18 1    
    35   17  141 1    
    36   17  142 1    
    37   18   19 1    
    38   18   67 1    
    39   18  143 1    
    40   19   20 am   BACKBONE|DICT|INTERRES
    41   19  144 1    
    42   20   21 2    
    43   20   22 1    
    44   22   23 1    
    45   22   24 1    
    46   22  145 1    
    47   23  146 1    
    48   23  147 1    
    49   23  148 1    
    50   24   25 am   BACKBONE|DICT|INTERRES
    51   24  149 1    
    52   25   26 2    
    53   25   27 1    
    54   27   28 1    
    55   27   29 1    
    56   27  150 1    
    57   28  151 1    
    58   28  152 1    
    59   28  153 1    
    60   29   30 am   BACKBONE|DICT|INTERRES
    61   29  154 1    
    62   30   31 2    
    63   30   32 1    
    64   32   33 1    
    65   32   34 1    
    66   32  155 1    
    67   33  156 1    
    68   33  157 1    
    69   33  158 1    
    70   34   35 am   BACKBONE|DICT|INTERRES
    71   34  159 1    
    72   35   36 2    
    73   35   37 1    
    74   37   38 1    
    75   37   39 1    
    76   37  160 1    
    77   38  161 1    
    78   38  162 1    
    79   38  163 1    
    80   39   40 am   BACKBONE|DICT|INTERRES
    81   39  164 1    
    82   40   41 2    
    83   40   42 1    
    84   42   43 1    
    85   42   44 1    
    86   42  165 1    
    87   43  166 1    
    88   43  167 1    
    89   43  168 1    
    90   44   45 am   BACKBONE|DICT|INTERRES
    91   44  169 1    
    92   45   46 2    
    93   45   47 1    
    94   47   48 1    
    95   47   49 1    
    96   47  170 1    
    97   48  171 1    
    98   48  172 1    
    99   48  173 1    
   100   49   50 am   BACKBONE|DICT|INTERRES
   101   49  174 1    
   102   50   51 2    
   103   50   52 1    
   104   52   53 1    
   105   52   54 1    
   106   52  175 1    
   107   53  176 1    
   108   53  177 1    
   109   53  178 1    
   110   54   55 am   BACKBONE|DICT|INTERRES
   111   54  179 1    
   112   55   56 2    
   113   55   57 1    
   114   57   58 1    
   115   57   59 1    
   116   57  180 1    
   117   58  181 1    
   118   58  182 1    
   119   58  183 1    
   120   59   60 am   BACKBONE|DICT|INTERRES
   121   59  184 1    
   122   60   61 2    
   123   60   62 1    
   124   62   63 1    
   125   62   64 1    
   126   62  185 1    
   127   63  186 1    
   128   63  187 1    
   129   63  188 1    
   130   64   65 am   BACKBONE|DICT|INTERRES
   131   64  189 1    
   132   65   66 2    
   133   67   68 2    
   134   67   69 am   BACKBONE|DICT|INTERRES
   135   69   70 1    
   136   69  190 1    
   137   70   71 1    
   138   70   72 1    
   139   70  191 1    
   140   71  192 1    
   141   71  193 1    
   142   71  194 1    
   143   72   73 2    
   144   72   74 am   BACKBONE|DICT|INTERRES
   145   74   75 1    
   146   74  195 1    
   147   75   76 1    
   148   75   77 1    
   149   75  196 1    
   150   76  197 1    
   151   76  198 1    
   152   76  199 1    
   153   77   78 2    
   154   77   79 am   BACKBONE|DICT|INTERRES
   155   79   80 1    
   156   79  200 1    
   157   80   81 1    
   158   80   82 1    
   159   80  201 1    
   160   81  202 1    
   161   81  203 1    
   162   81  204 1    
   163   82   83 2    
   164   82   84 am   BACKBONE|DICT|INTERRES
   165   84   85 1    
   166   84  205 1    
   167   85   86 1    
   168   85   87 1    
   169   85  206 1    
   170   86  207 1    
   171   86  208 1    
   172   86  209 1    
   173   87   88 2    
   174   87   89 am   BACKBONE|DICT|INTERRES
   175   89   90 1    
   176   89  210 1    
   177   90   91 1    
   178   90   92 1    
   179   90  211 1    
   180   91  212 1    
   181   91  213 1    
   182   91  214 1    
   183   92   93 2    
   184   92   94 am   BACKBONE|DICT|INTERRES
   185   94   95 1    
   186   94  215 1    
   187   95   96 1    
   188   95   97 1    
   189   95  216 1    
   190   96  217 1    
   191   96  218 1    
   192   96  219 1    
   193   97   98 2    
   194   97   99 am   BACKBONE|DICT|INTERRES
   195   99  100 1    
   196   99  220 1    
   197  100  101 1    
   198  100  102 1    
   199  100  221 1    
   200  101  222 1    
   201  101  223 1    
   202  101  224 1    
   203  102  103 2    
   204  102  104 am   BACKBONE|DICT|INTERRES
   205  104  105 1    
   206  104  225 1    
   207  105  106 1    
   208  105  107 1    
   209  105  226 1    
   210  106  227 1    
   211  106  228 1    
   212  106  229 1    
   213  107  108 2    
   214  107  109 am   BACKBONE|DICT|INTERRES
   215  109  110 1    
   216  109  230 1    
   217  110  111 1    
   218  110  112 1    
   219  110  231 1    
   220  111  232 1    
   221  111  233 1    
   222  111  234 1    
   223  112  113 2    
   224  112  114 am   BACKBONE|DICT|INTERRES
   225  114  115 1    
   226  114  235 1    
   227  115  116 1    
   228  115  117 1    
   229  115  236 1    
   230  116  237 1    
   231  116  238 1    
   232  116  239 1    
   233  117  118 2    
   234  117  119 am   BACKBONE|DICT|INTERRES
   235  119  120 1    
   236  119  240 1    
   237  120  121 1    
   238  120  124 1    
   239  120  241 1    
   240  121  122 am   BACKBONE|DICT|INTERRES
   241  121  123 2    
   242  122  242 1    
   243  122  243 1    
   244  124  125 1    
   245  124  244 1    
   246  124  245 1    
   247  125  126 1    
   248  126  246 1    
   249  126  247 1    
@<TRIPOS>SUBSTRUCTURE
     1 UNK         1 GROUP             0       ****    0 ROOT    
