@<TRIPOS>MOLECULE
3R540
247   249    1
SMALL
USER_CHARGES


@<TRIPOS>ATOM
      1 CA          2.3432  -17.0310  -50.7991 C.3       0 UNK        -0.1800 
      2 C           2.1405  -16.9442  -49.2934 C.2       0 UNK         0.5000 
      3 O           2.9037  -17.5429  -48.5352 O.2       0 UNK        -0.5000 
      4 N           1.1167  -16.2018  -48.8568 N.am      1 UNK        -0.5000 
      5 CA          0.8547  -15.8815  -47.4514 C.3       1 UNK         0.1400 
      6 C6         -0.5389  -15.2361  -47.2606 C.3       23 UNK        -0.0398 
      7 S7         -1.8687  -16.4769  -47.3155 S.3       23 UNK        -0.2404 
      8 C8         -2.7513  -16.0831  -48.8572 C.3       23 UNK        -0.0205 
      9 C9         -2.0497  -16.6350  -50.0892 C.ar      23 UNK        -0.0193 
     10 C10        -1.6226  -15.7747  -51.1038 C.ar      23 UNK        -0.1150 
     11 C11        -1.0300  -16.2841  -52.2631 C.ar      23 UNK        -0.0193 
     12 C12        -0.8377  -17.6627  -52.3914 C.ar      23 UNK        -0.1150 
     13 C13        -1.2531  -18.5321  -51.3798 C.ar      23 UNK        -0.0193 
     14 C14        -1.8702  -18.0136  -50.2377 C.ar      23 UNK        -0.1150 
     15 C15        -1.0726  -20.0329  -51.5406 C.3       23 UNK        -0.0205 
     16 S16         0.6114  -20.5937  -51.1460 S.3       23 UNK        -0.2404 
     17 C17         0.7165  -20.3135  -49.3475 C.3       23 UNK        -0.0398 
     18 CA          0.3430  -21.5572  -48.5012 C.3       11 UNK         0.1400 
     19 N           1.1118  -21.5967  -47.2566 N.am      11 UNK        -0.5000 
     20 C           1.1348  -22.6167  -46.3878 C.2       10 UNK         0.5000 
     21 O           0.5570  -23.6864  -46.5740 O.2       10 UNK        -0.5000 
     22 CA          1.8948  -22.3791  -45.0668 C.3       10 UNK         0.1400 
     23 CB          3.3382  -22.8906  -45.1769 C.3       10 UNK        -0.1800 
     24 N           1.9142  -20.9756  -44.6415 N.am      10 UNK        -0.5000 
     25 C           0.8360  -20.2206  -44.3951 C.2       9 UNK         0.5000 
     26 O          -0.3195  -20.6402  -44.4869 O.2       9 UNK        -0.5000 
     27 CA          1.1124  -18.7538  -44.0096 C.3       9 UNK         0.1400 
     28 CB         -0.1508  -17.8785  -44.0714 C.3       9 UNK        -0.1800 
     29 N           1.7008  -18.6460  -42.6773 N.am      9 UNK        -0.5000 
     30 C           2.9724  -18.9230  -42.3563 C.2       8 UNK         0.5000 
     31 O           3.8057  -19.3061  -43.1793 O.2       8 UNK        -0.5000 
     32 CA          3.3926  -18.7470  -40.8841 C.3       8 UNK         0.1400 
     33 CB          4.4160  -17.6082  -40.7434 C.3       8 UNK        -0.1800 
     34 N           2.2525  -18.4603  -40.0111 N.am      8 UNK        -0.5000 
     35 C           1.6189  -19.3626  -39.2487 C.2       7 UNK         0.5000 
     36 O           1.9446  -20.5483  -39.1826 O.2       7 UNK        -0.5000 
     37 CA          0.4184  -18.8655  -38.4154 C.3       7 UNK         0.1400 
     38 CB          0.8589  -18.5563  -36.9764 C.3       7 UNK        -0.1800 
     39 N          -0.2304  -17.6784  -38.9757 N.am      7 UNK        -0.5000 
     40 C          -0.9505  -17.6628  -40.1058 C.2       6 UNK         0.5000 
     41 O          -1.2017  -18.6717  -40.7631 O.2       6 UNK        -0.5000 
     42 CA         -1.4299  -16.2865  -40.6136 C.3       6 UNK         0.1400 
     43 CB         -2.8664  -16.0109  -40.1462 C.3       6 UNK        -0.1800 
     44 N          -0.5744  -15.1624  -40.2163 N.am      6 UNK        -0.5000 
     45 C           0.7295  -15.0371  -40.4942 C.2       5 UNK         0.5000 
     46 O           1.3730  -15.8842  -41.1137 O.2       5 UNK        -0.5000 
     47 CA          1.4149  -13.7586  -39.9797 C.3       5 UNK         0.1400 
     48 CB          2.9496  -13.8763  -39.9654 C.3       5 UNK        -0.1800 
     49 N           1.0158  -12.5949  -40.7722 N.am      5 UNK        -0.5000 
     50 C          -0.1349  -11.9248  -40.6063 C.2       4 UNK         0.5000 
     51 O          -0.9806  -12.2434  -39.7679 O.2       4 UNK        -0.5000 
     52 CA         -0.3978  -10.6895  -41.4916 C.3       4 UNK         0.1400 
     53 CB         -0.2511   -9.4008  -40.6668 C.3       4 UNK        -0.1800 
     54 N           0.4813  -10.5977  -42.6568 N.am      4 UNK        -0.5000 
     55 C           0.3282  -11.2933  -43.7899 C.2       3 UNK         0.5000 
     56 O          -0.5894  -12.0935  -43.9808 O.2       3 UNK        -0.5000 
     57 CA          1.3812  -11.0790  -44.8998 C.3       3 UNK         0.1400 
     58 CB          2.3803   -9.9327  -44.6213 C.3       3 UNK        -0.1800 
     59 N           2.0998  -12.3203  -45.1960 N.am      3 UNK        -0.5000 
     60 C           2.7761  -13.0895  -44.3317 C.2       2 UNK         0.5000 
     61 O           2.9352  -12.7941  -43.1463 O.2       2 UNK        -0.5000 
     62 CA          3.3429  -14.4150  -44.8888 C.3       2 UNK         0.1400 
     63 CB          3.9214  -15.3214  -43.7873 C.3       2 UNK        -0.1800 
     64 N           2.3372  -15.1810  -45.6300 N.am      2 UNK        -0.5000 
     65 C           1.9507  -14.9529  -46.8912 C.2       1 UNK         0.5000 
     66 O           2.3849  -14.0259  -47.5796 O.2       1 UNK        -0.5000 
     67 C          -1.1766  -21.6373  -48.2313 C.2       11 UNK         0.5000 
     68 O          -1.8694  -22.4262  -48.8744 O.2       11 UNK        -0.5000 
     69 N          -1.6653  -20.8589  -47.2525 N.am      12 UNK        -0.5000 
     70 CA         -3.0624  -20.8759  -46.8114 C.3       12 UNK         0.1400 
     71 CB         -3.3615  -19.6651  -45.9179 C.3       12 UNK        -0.1800 
     72 C          -3.4303  -22.1804  -46.0896 C.2       12 UNK         0.5000 
     73 O          -4.5148  -22.7124  -46.3281 O.2       12 UNK        -0.5000 
     74 N          -2.5036  -22.6984  -45.2692 N.am      13 UNK        -0.5000 
     75 CA         -2.6320  -23.9797  -44.5657 C.3       13 UNK         0.1400 
     76 CB         -1.4427  -24.1626  -43.6122 C.3       13 UNK        -0.1800 
     77 C          -2.7615  -25.1894  -45.5156 C.2       13 UNK         0.5000 
     78 O          -3.4193  -26.1690  -45.1659 O.2       13 UNK        -0.5000 
     79 N          -2.1873  -25.0733  -46.7204 N.am      14 UNK        -0.5000 
     80 CA         -2.3127  -26.0162  -47.8328 C.3       14 UNK         0.1400 
     81 CB         -1.0403  -25.9245  -48.6943 C.3       14 UNK        -0.1800 
     82 C          -3.5930  -25.7970  -48.6739 C.2       14 UNK         0.5000 
     83 O          -3.6223  -26.1928  -49.8397 O.2       14 UNK        -0.5000 
     84 N          -4.6203  -25.1573  -48.0932 N.am      15 UNK        -0.5000 
     85 CA         -5.9150  -24.8128  -48.6929 C.3       15 UNK         0.1400 
     86 CB         -6.7207  -26.0833  -49.0373 C.3       15 UNK        -0.1800 
     87 C          -5.7553  -23.8543  -49.8879 C.2       15 UNK         0.5000 
     88 O          -6.2953  -24.1049  -50.9667 O.2       15 UNK        -0.5000 
     89 N          -4.9600  -22.7957  -49.6755 N.am      16 UNK        -0.5000 
     90 CA         -4.5161  -21.8162  -50.6746 C.3       16 UNK         0.1400 
     91 CB         -5.6940  -20.9495  -51.1648 C.3       16 UNK        -0.1800 
     92 C          -3.7319  -22.4872  -51.8236 C.2       16 UNK         0.5000 
     93 O          -3.9713  -22.1875  -52.9936 O.2       16 UNK        -0.5000 
     94 N          -2.8379  -23.4152  -51.4492 N.am      17 UNK        -0.5000 
     95 CA         -2.0741  -24.3294  -52.3060 C.3       17 UNK         0.1400 
     96 CB         -0.9454  -23.5748  -53.0334 C.3       17 UNK        -0.1800 
     97 C          -2.9801  -25.1465  -53.2520 C.2       17 UNK         0.5000 
     98 O          -2.7396  -25.1947  -54.4588 O.2       17 UNK        -0.5000 
     99 N          -4.0263  -25.7491  -52.6690 N.am      18 UNK        -0.5000 
    100 CA        -5.1263  -26.4593  -53.3282 C.3       18 UNK         0.1400 
    101 CB        -4.6269  -27.7734  -53.9640 C.3       18 UNK        -0.1800 
    102 C         -5.8981  -25.5543  -54.3138 C.2       18 UNK         0.5000 
    103 O         -6.1080  -25.9283  -55.4696 O.2       18 UNK        -0.5000 
    104 N         -6.2986  -24.3735  -53.8195 N.am      19 UNK        -0.5000 
    105 CA        -7.0272  -23.3092  -54.5169 C.3       19 UNK         0.1400 
    106 CB        -8.4737  -23.7543  -54.8164 C.3       19 UNK        -0.1800 
    107 C         -6.2852  -22.7745  -55.7615 C.2       19 UNK         0.5000 
    108 O         -6.8778  -22.6542  -56.8360 O.2       19 UNK        -0.5000 
    109 N         -4.9941  -22.4599  -55.5935 N.am      20 UNK        -0.5000 
    110 CA        -4.1296  -21.9135  -56.6414 C.3       20 UNK         0.1400 
    111 CB        -2.6599  -22.0720  -56.2260 C.3       20 UNK        -0.1800 
    112 C         -4.4182  -20.4349  -56.9533 C.2       20 UNK         0.5000 
    113 O         -4.1483  -19.9968  -58.0724 O.2       20 UNK        -0.5000 
    114 N         -4.9230  -19.6886  -55.9564 N.am      21 UNK        -0.5000 
    115 CA        -5.2682  -18.2597  -56.0091 C.3       21 UNK         0.1400 
    116 CB        -6.5402  -18.0529  -56.8570 C.3       21 UNK        -0.1800 
    117 C         -4.0891  -17.3682  -56.4637 C.2       21 UNK         0.5000 
    118 O         -4.2691  -16.4613  -57.2785 O.2       21 UNK        -0.5000 
    119 N         -2.8954  -17.6853  -55.9452 N.am      22 UNK        -0.5000 
    120 CA        -1.5887  -17.0993  -56.2985 C.3       22 UNK         0.1400 
    121 C         -1.0405  -17.5158  -57.6991 C.2       22 UNK         0.5000 
    122 N         -1.6760  -18.4172  -58.4388 N.am      22 UNK        -0.7600 
    123 O          0.0100  -17.0351  -58.1157 O.2       22 UNK        -0.5000 
    124 C124       -1.4894  -15.5598  -56.0812 C.3       23 UNK        -0.0398 
    125 S125       -2.0633  -14.9835  -54.4470 S.3       23 UNK        -0.2404 
    126 C126       -0.6286  -15.3432  -53.3860 C.3       23 UNK        -0.0205 
    127 H127        1.7243  -16.3090  -51.3312 H         1 UNK         0.0600 
    128 H128        2.0928  -18.0277  -51.1587 H         1 UNK         0.0600 
    129 H129        3.3845  -16.8295  -51.0499 H         1 UNK         0.0600 
    130 H130        0.5131  -15.7510  -49.5286 H         1 UNK         0.3000 
    131 H131        0.8905  -16.8156  -46.8865 H         1 UNK         0.0600 
    132 H132       -0.6171  -14.7529  -46.2841 H         1 UNK         0.0800 
    133 H133       -0.7143  -14.4504  -47.9975 H         1 UNK         0.0800 
    134 H134       -3.7484  -16.5220  -48.8047 H         1 UNK         0.0800 
    135 H135       -2.8988  -15.0047  -48.9314 H         1 UNK         0.0800 
    136 H136       -1.7795  -14.7092  -51.0093 H         1 UNK         0.1150 
    137 H137       -0.3749  -18.0630  -53.2819 H         1 UNK         0.1150 
    138 H138       -2.2134  -18.6805  -49.4591 H         1 UNK         0.1150 
    139 H139       -1.7746  -20.5667  -50.9067 H         1 UNK         0.0800 
    140 H140       -1.3097  -20.3211  -52.5659 H         1 UNK         0.0800 
    141 H141        0.1538  -19.4279  -49.0516 H         1 UNK         0.0800 
    142 H142        1.7607  -20.0543  -49.1675 H         1 UNK         0.0800 
    143 H143        0.6197  -22.4540  -49.0605 H         1 UNK         0.0600 
    144 H144        1.6330  -20.7662  -47.0183 H         1 UNK         0.3000 
    145 H145        1.3894  -22.9496  -44.2865 H         1 UNK         0.0600 
    146 H146        3.3593  -23.9426  -45.4648 H         1 UNK         0.0600 
    147 H147        3.9067  -22.3336  -45.9228 H         1 UNK         0.0600 
    148 H148        3.8607  -22.8048  -44.2239 H         1 UNK         0.0600 
    149 H149        2.8245  -20.5604  -44.4716 H         1 UNK         0.3000 
    150 H150        1.8233  -18.3544  -44.7359 H         1 UNK         0.0600 
    151 H151        0.0716  -16.8385  -43.8320 H         1 UNK         0.0600 
    152 H152       -0.9167  -18.2261  -43.3783 H         1 UNK         0.0600 
    153 H153       -0.5883  -17.9002  -45.0689 H         1 UNK         0.0600 
    154 H154        1.0781  -18.3589  -41.9360 H         1 UNK         0.3000 
    155 H155        3.8794  -19.6745  -40.5761 H         1 UNK         0.0600 
    156 H156        3.9936  -16.6469  -41.0349 H         1 UNK         0.0600 
    157 H157        5.2910  -17.7852  -41.3700 H         1 UNK         0.0600 
    158 H158        4.7661  -17.5198  -39.7150 H         1 UNK         0.0600 
    159 H159        1.8952  -17.5121  -40.0598 H         1 UNK         0.3000 
    160 H160       -0.3163  -19.6729  -38.3822 H         1 UNK         0.0600 
    161 H161        1.3219  -19.4287  -36.5133 H         1 UNK         0.0600 
    162 H162        0.0087  -18.2737  -36.3552 H         1 UNK         0.0600 
    163 H163        1.5852  -17.7431  -36.9436 H         1 UNK         0.0600 
    164 H164       -0.0777  -16.8051  -38.4934 H         1 UNK         0.3000 
    165 H165       -1.4283  -16.3251  -41.7044 H         1 UNK         0.0600 
    166 H166       -3.2508  -15.0860  -40.5768 H         1 UNK         0.0600 
    167 H167       -3.5384  -16.8141  -40.4518 H         1 UNK         0.0600 
    168 H168       -2.9265  -15.9267  -39.0604 H         1 UNK         0.0600 
    169 H169       -1.0293  -14.3859  -39.7498 H         1 UNK         0.3000 
    170 H170        1.0981  -13.6088  -38.9453 H         1 UNK         0.0600 
    171 H171        3.4124  -12.9632  -39.5911 H         1 UNK         0.0600 
    172 H172        3.2689  -14.6926  -39.3165 H         1 UNK         0.0600 
    173 H173        3.3557  -14.0750  -40.9564 H         1 UNK         0.0600 
    174 H174        1.6378  -12.3374  -41.5309 H         1 UNK         0.3000 
    175 H175       -1.4317  -10.7530  -41.8377 H         1 UNK         0.0600 
    176 H176        0.7659   -9.2762  -40.2926 H         1 UNK         0.0600 
    177 H177       -0.5015   -8.5214  -41.2605 H         1 UNK         0.0600 
    178 H178       -0.9192   -9.4088  -39.8045 H         1 UNK         0.0600 
    179 H179        1.2779   -9.9827  -42.5742 H         1 UNK         0.3000 
    180 H180        0.8243  -10.8196  -45.8012 H         1 UNK         0.0600 
    181 H181        3.0528   -9.7929  -45.4678 H         1 UNK         0.0600 
    182 H182        2.9976  -10.1235  -43.7428 H         1 UNK         0.0600 
    183 H183        1.8618   -8.9853  -44.4685 H         1 UNK         0.0600 
    184 H184        2.0288  -12.6586  -46.1498 H         1 UNK         0.3000 
    185 H185        4.1584  -14.1535  -45.5663 H         1 UNK         0.0600 
    186 H186        3.1513  -15.6246  -43.0783 H         1 UNK         0.0600 
    187 H187        4.3613  -16.2260  -44.2078 H         1 UNK         0.0600 
    188 H188        4.7052  -14.8118  -43.2256 H         1 UNK         0.0600 
    189 H189        1.8981  -15.9263  -45.1120 H         1 UNK         0.3000 
    190 H190       -1.0296  -20.3018  -46.6996 H         1 UNK         0.3000 
    191 H191       -3.6991  -20.7981  -47.6946 H         1 UNK         0.0600 
    192 H192       -2.6819  -19.6016  -45.0684 H         1 UNK         0.0600 
    193 H193       -4.3766  -19.7124  -45.5213 H         1 UNK         0.0600 
    194 H194       -3.2879  -18.7397  -46.4831 H         1 UNK         0.0600 
    195 H195       -1.6562  -22.1658  -45.1053 H         1 UNK         0.3000 
    196 H196       -3.5436  -23.9320  -43.9666 H         1 UNK         0.0600 
    197 H197       -1.5886  -25.0357  -42.9751 H         1 UNK         0.0600 
    198 H198       -1.3178  -23.2986  -42.9589 H         1 UNK         0.0600 
    199 H199       -0.5118  -24.3126  -44.1574 H         1 UNK         0.0600 
    200 H200       -1.6296  -24.2479  -46.9015 H         1 UNK         0.3000 
    201 H201       -2.3700  -27.0295  -47.4309 H         1 UNK         0.0600 
    202 H202       -0.1475  -26.1068  -48.0959 H         1 UNK         0.0600 
    203 H203       -0.9352  -24.9422  -49.1548 H         1 UNK         0.0600 
    204 H204       -1.0475  -26.6660  -49.4941 H         1 UNK         0.0600 
    205 H205       -4.4835  -24.8137  -47.1513 H         1 UNK         0.3000 
    206 H206       -6.4724  -24.2650  -47.9318 H         1 UNK         0.0600 
    207 H207       -7.7251  -25.8265  -49.3758 H         1 UNK         0.0600 
    208 H208       -6.2498  -26.6647  -49.8303 H         1 UNK         0.0600 
    209 H209       -6.8274  -26.7296  -48.1662 H         1 UNK         0.0600 
    210 H210       -4.5356  -22.7151  -48.7614 H         1 UNK         0.3000 
    211 H211       -3.8228  -21.1493  -50.1650 H         1 UNK         0.0600 
    212 H212       -6.4354  -21.5357  -51.7065 H         1 UNK         0.0600 
    213 H213       -5.3464  -20.1614  -51.8339 H         1 UNK         0.0600 
    214 H214       -6.1980  -20.4647  -50.3289 H         1 UNK         0.0600 
    215 H215       -2.6837  -23.5203  -50.4530 H         1 UNK         0.3000 
    216 H216       -1.6037  -25.0561  -51.6426 H         1 UNK         0.0600 
    217 H217       -0.3699  -24.2443  -53.6735 H         1 UNK         0.0600 
    218 H218       -0.2491  -23.1402  -52.3183 H         1 UNK         0.0600 
    219 H219       -1.3306  -22.7707  -53.6581 H         1 UNK         0.0600 
    220 H220       -4.0913  -25.6920  -51.6559 H         1 UNK         0.3000 
    221 H221       -5.8321  -26.7241  -52.5395 H         1 UNK         0.0600 
    222 H222       -3.9394  -27.5909  -54.7903 H         1 UNK         0.0600 
    223 H223       -4.1124  -28.3942  -53.2305 H         1 UNK         0.0600 
    224 H224       -5.4604  -28.3573  -54.3558 H         1 UNK         0.0600 
    225 H225       -6.1028  -24.1895  -52.8377 H         1 UNK         0.3000 
    226 H226       -7.0829  -22.4734  -53.8191 H         1 UNK         0.0600 
    227 H227       -8.9793  -24.0839  -53.9088 H         1 UNK         0.0600 
    228 H228       -9.0576  -22.9321  -55.2316 H         1 UNK         0.0600 
    229 H229       -8.5057  -24.5740  -55.5348 H         1 UNK         0.0600 
    230 H230       -4.5816  -22.5532  -54.6661 H         1 UNK         0.3000 
    231 H231       -4.2898  -22.4864  -57.5571 H         1 UNK         0.0600 
    232 H232       -2.4425  -21.5223  -55.3098 H         1 UNK         0.0600 
    233 H233       -2.4062  -23.1184  -56.0620 H         1 UNK         0.0600 
    234 H234       -1.9903  -21.6955  -57.0005 H         1 UNK         0.0600 
    235 H235       -5.0786  -20.1483  -55.0702 H         1 UNK         0.3000 
    236 H236       -5.5002  -17.9580  -54.9866 H         1 UNK         0.0600 
    237 H237       -6.3709  -18.2993  -57.9057 H         1 UNK         0.0600 
    238 H238       -7.3595  -18.6744  -56.4956 H         1 UNK         0.0600 
    239 H239       -6.8765  -17.0163  -56.8133 H         1 UNK         0.0600 
    240 H240       -2.8593  -18.4555  -55.2943 H         1 UNK         0.3000 
    241 H241       -0.8899  -17.5571  -55.5988 H         1 UNK         0.0600 
    242 H242       -1.2891  -18.6729  -59.3333 H         1 UNK         0.3800 
    243 H243       -2.5571  -18.8264  -58.1471 H         1 UNK         0.3800 
    244 H244       -0.4623  -15.2182  -56.2198 H         1 UNK         0.0800 
    245 H245       -2.0744  -15.0366  -56.8386 H         1 UNK         0.0800 
    246 H246        0.1881  -15.7747  -53.9663 H         1 UNK         0.0800 
    247 H247       -0.2474  -14.4088  -52.9714 H         1 UNK         0.0800 
@<TRIPOS>BOND
     1    1    2 1    
     2    1  127 1    
     3    1  128 1    
     4    1  129 1    
     5    2    3 2    
     6    2    4 am   BACKBONE|DICT|INTERRES
     7    4    5 1    
     8    4  130 1    
     9    5    6 1    
    10    5   65 1    
    11    5  131 1    
    12    6    7 1    
    13    6  132 1    
    14    6  133 1    
    15    7    8 1    
    16    8    9 1    
    17    8  134 1    
    18    8  135 1    
    19    9   10 ar   
    20    9   14 ar   
    21   10   11 ar   
    22   10  136 1    
    23   11   12 ar   
    24   11  126 1    
    25   12   13 ar   
    26   12  137 1    
    27   13   14 ar   
    28   13   15 1    
    29   14  138 1    
    30   15   16 1    
    31   15  139 1    
    32   15  140 1    
    33   16   17 1    
    34   17   18 1    
    35   17  141 1    
    36   17  142 1    
    37   18   19 1    
    38   18   67 1    
    39   18  143 1    
    40   19   20 am   BACKBONE|DICT|INTERRES
    41   19  144 1    
    42   20   21 2    
    43   20   22 1    
    44   22   23 1    
    45   22   24 1    
    46   22  145 1    
    47   23  146 1    
    48   23  147 1    
    49   23  148 1    
    50   24   25 am   BACKBONE|DICT|INTERRES
    51   24  149 1    
    52   25   26 2    
    53   25   27 1    
    54   27   28 1    
    55   27   29 1    
    56   27  150 1    
    57   28  151 1    
    58   28  152 1    
    59   28  153 1    
    60   29   30 am   BACKBONE|DICT|INTERRES
    61   29  154 1    
    62   30   31 2    
    63   30   32 1    
    64   32   33 1    
    65   32   34 1    
    66   32  155 1    
    67   33  156 1    
    68   33  157 1    
    69   33  158 1    
    70   34   35 am   BACKBONE|DICT|INTERRES
    71   34  159 1    
    72   35   36 2    
    73   35   37 1    
    74   37   38 1    
    75   37   39 1    
    76   37  160 1    
    77   38  161 1    
    78   38  162 1    
    79   38  163 1    
    80   39   40 am   BACKBONE|DICT|INTERRES
    81   39  164 1    
    82   40   41 2    
    83   40   42 1    
    84   42   43 1    
    85   42   44 1    
    86   42  165 1    
    87   43  166 1    
    88   43  167 1    
    89   43  168 1    
    90   44   45 am   BACKBONE|DICT|INTERRES
    91   44  169 1    
    92   45   46 2    
    93   45   47 1    
    94   47   48 1    
    95   47   49 1    
    96   47  170 1    
    97   48  171 1    
    98   48  172 1    
    99   48  173 1    
   100   49   50 am   BACKBONE|DICT|INTERRES
   101   49  174 1    
   102   50   51 2    
   103   50   52 1    
   104   52   53 1    
   105   52   54 1    
   106   52  175 1    
   107   53  176 1    
   108   53  177 1    
   109   53  178 1    
   110   54   55 am   BACKBONE|DICT|INTERRES
   111   54  179 1    
   112   55   56 2    
   113   55   57 1    
   114   57   58 1    
   115   57   59 1    
   116   57  180 1    
   117   58  181 1    
   118   58  182 1    
   119   58  183 1    
   120   59   60 am   BACKBONE|DICT|INTERRES
   121   59  184 1    
   122   60   61 2    
   123   60   62 1    
   124   62   63 1    
   125   62   64 1    
   126   62  185 1    
   127   63  186 1    
   128   63  187 1    
   129   63  188 1    
   130   64   65 am   BACKBONE|DICT|INTERRES
   131   64  189 1    
   132   65   66 2    
   133   67   68 2    
   134   67   69 am   BACKBONE|DICT|INTERRES
   135   69   70 1    
   136   69  190 1    
   137   70   71 1    
   138   70   72 1    
   139   70  191 1    
   140   71  192 1    
   141   71  193 1    
   142   71  194 1    
   143   72   73 2    
   144   72   74 am   BACKBONE|DICT|INTERRES
   145   74   75 1    
   146   74  195 1    
   147   75   76 1    
   148   75   77 1    
   149   75  196 1    
   150   76  197 1    
   151   76  198 1    
   152   76  199 1    
   153   77   78 2    
   154   77   79 am   BACKBONE|DICT|INTERRES
   155   79   80 1    
   156   79  200 1    
   157   80   81 1    
   158   80   82 1    
   159   80  201 1    
   160   81  202 1    
   161   81  203 1    
   162   81  204 1    
   163   82   83 2    
   164   82   84 am   BACKBONE|DICT|INTERRES
   165   84   85 1    
   166   84  205 1    
   167   85   86 1    
   168   85   87 1    
   169   85  206 1    
   170   86  207 1    
   171   86  208 1    
   172   86  209 1    
   173   87   88 2    
   174   87   89 am   BACKBONE|DICT|INTERRES
   175   89   90 1    
   176   89  210 1    
   177   90   91 1    
   178   90   92 1    
   179   90  211 1    
   180   91  212 1    
   181   91  213 1    
   182   91  214 1    
   183   92   93 2    
   184   92   94 am   BACKBONE|DICT|INTERRES
   185   94   95 1    
   186   94  215 1    
   187   95   96 1    
   188   95   97 1    
   189   95  216 1    
   190   96  217 1    
   191   96  218 1    
   192   96  219 1    
   193   97   98 2    
   194   97   99 am   BACKBONE|DICT|INTERRES
   195   99  100 1    
   196   99  220 1    
   197  100  101 1    
   198  100  102 1    
   199  100  221 1    
   200  101  222 1    
   201  101  223 1    
   202  101  224 1    
   203  102  103 2    
   204  102  104 am   BACKBONE|DICT|INTERRES
   205  104  105 1    
   206  104  225 1    
   207  105  106 1    
   208  105  107 1    
   209  105  226 1    
   210  106  227 1    
   211  106  228 1    
   212  106  229 1    
   213  107  108 2    
   214  107  109 am   BACKBONE|DICT|INTERRES
   215  109  110 1    
   216  109  230 1    
   217  110  111 1    
   218  110  112 1    
   219  110  231 1    
   220  111  232 1    
   221  111  233 1    
   222  111  234 1    
   223  112  113 2    
   224  112  114 am   BACKBONE|DICT|INTERRES
   225  114  115 1    
   226  114  235 1    
   227  115  116 1    
   228  115  117 1    
   229  115  236 1    
   230  116  237 1    
   231  116  238 1    
   232  116  239 1    
   233  117  118 2    
   234  117  119 am   BACKBONE|DICT|INTERRES
   235  119  120 1    
   236  119  240 1    
   237  120  121 1    
   238  120  124 1    
   239  120  241 1    
   240  121  122 am   BACKBONE|DICT|INTERRES
   241  121  123 2    
   242  122  242 1    
   243  122  243 1    
   244  124  125 1    
   245  124  244 1    
   246  124  245 1    
   247  125  126 1    
   248  126  246 1    
   249  126  247 1    
@<TRIPOS>SUBSTRUCTURE
     1 UNK         1 GROUP             0       ****    0 ROOT    
