@<TRIPOS>MOLECULE
3R540
247   249    1
SMALL
USER_CHARGES


@<TRIPOS>ATOM
      1 CA         -0.2512  -14.2037  -48.0926 C.3       0 UNK        -0.1800 
      2 C          -0.2759  -14.4583  -46.5933 C.2       0 UNK         0.5000 
      3 O           0.7817  -14.5037  -45.9657 O.2       0 UNK        -0.5000 
      4 N          -1.4763  -14.6085  -46.0184 N.am      1 UNK        -0.5000 
      5 CA         -1.7404  -14.9881  -44.6190 C.3       1 UNK         0.1400 
      6 C6         -3.2431  -15.2919  -44.3841 C.3       23 UNK        -0.0398 
      7 S7         -3.8626  -16.6063  -45.4865 S.3       23 UNK        -0.2404 
      8 C8         -5.0422  -15.7143  -46.5405 C.3       23 UNK        -0.0205 
      9 C9         -5.2476  -16.4572  -47.8501 C.ar      23 UNK        -0.0193 
     10 C10        -4.6303  -15.9996  -49.0178 C.ar      23 UNK        -0.1150 
     11 C11        -4.7936  -16.6817  -50.2265 C.ar      23 UNK        -0.0193 
     12 C12        -5.5800  -17.8399  -50.2519 C.ar      23 UNK        -0.1150 
     13 C13        -6.2139  -18.3016  -49.0952 C.ar      23 UNK        -0.0193 
     14 C14        -6.0425  -17.6067  -47.8947 C.ar      23 UNK        -0.1150 
     15 C15        -7.1152  -19.5255  -49.1628 C.3       23 UNK        -0.0205 
     16 S16        -6.1955  -21.0528  -49.5275 S.3       23 UNK        -0.2404 
     17 C17        -5.5328  -21.5195  -47.8954 C.3       23 UNK        -0.0398 
     18 CA         -4.0070  -21.7866  -47.9634 C.3       11 UNK         0.1400 
     19 N          -3.2095  -20.6056  -47.6222 N.am      11 UNK        -0.5000 
     20 C          -1.8992  -20.4911  -47.8806 C.2       10 UNK         0.5000 
     21 O          -1.2407  -21.3513  -48.4624 O.2       10 UNK        -0.5000 
     22 CA         -1.1957  -19.2360  -47.3411 C.3       10 UNK         0.1400 
     23 CB         -1.4083  -18.0361  -48.2747 C.3       10 UNK        -0.1800 
     24 N          -1.6367  -18.8877  -45.9898 N.am      10 UNK        -0.5000 
     25 C          -1.4424  -19.6546  -44.9113 C.2       9 UNK         0.5000 
     26 O          -0.8899  -20.7569  -44.9499 O.2       9 UNK        -0.5000 
     27 CA         -1.9954  -19.1274  -43.5775 C.3       9 UNK         0.1400 
     28 CB         -3.4014  -19.6847  -43.3099 C.3       9 UNK        -0.1800 
     29 N          -1.0990  -19.5223  -42.4955 N.am      9 UNK        -0.5000 
     30 C          -0.0189  -18.8170  -42.1438 C.2       8 UNK         0.5000 
     31 O           0.2073  -17.6736  -42.5441 O.2       8 UNK        -0.5000 
     32 CA          0.9876  -19.5366  -41.2308 C.3       8 UNK         0.1400 
     33 CB          1.7552  -20.6119  -42.0200 C.3       8 UNK        -0.1800 
     34 N           1.9483  -18.5891  -40.6685 N.am      8 UNK        -0.5000 
     35 C           1.7658  -17.9182  -39.5236 C.2       7 UNK         0.5000 
     36 O           0.7935  -18.0863  -38.7855 O.2       7 UNK        -0.5000 
     37 CA          2.8501  -16.9040  -39.1079 C.3       7 UNK         0.1400 
     38 CB          3.7498  -17.5006  -38.0137 C.3       7 UNK        -0.1800 
     39 N           3.6942  -16.4660  -40.2194 N.am      7 UNK        -0.5000 
     40 C           3.3494  -15.5394  -41.1225 C.2       6 UNK         0.5000 
     41 O           2.2836  -14.9232  -41.0974 O.2       6 UNK        -0.5000 
     42 CA          4.3693  -15.2288  -42.2370 C.3       6 UNK         0.1400 
     43 CB          5.7972  -15.7504  -41.9575 C.3       6 UNK        -0.1800 
     44 N           3.9044  -15.6904  -43.5454 N.am      6 UNK        -0.5000 
     45 C           3.5774  -16.9427  -43.9016 C.2       5 UNK         0.5000 
     46 O           3.6393  -17.9053  -43.1348 O.2       5 UNK        -0.5000 
     47 CA          3.1324  -17.1734  -45.3617 C.3       5 UNK         0.1400 
     48 CB          1.6803  -17.6629  -45.4381 C.3       5 UNK        -0.1800 
     49 N           3.2710  -15.9780  -46.1975 N.am      5 UNK        -0.5000 
     50 C           4.3956  -15.6399  -46.8415 C.2       4 UNK         0.5000 
     51 O           5.4227  -16.3195  -46.8192 O.2       4 UNK        -0.5000 
     52 CA          4.3897  -14.3230  -47.6430 C.3       4 UNK         0.1400 
     53 CB          3.9957  -14.5930  -49.1034 C.3       4 UNK        -0.1800 
     54 N           3.5307  -13.2595  -47.1139 N.am      4 UNK        -0.5000 
     55 C           3.6020  -12.7154  -45.8914 C.2       3 UNK         0.5000 
     56 O           4.3296  -13.1398  -44.9936 O.2       3 UNK        -0.5000 
     57 CA          2.7174  -11.4900  -45.6173 C.3       3 UNK         0.1400 
     58 CB          2.2161  -10.7685  -46.8864 C.3       3 UNK        -0.1800 
     59 N           1.5804  -11.9002  -44.8031 N.am      3 UNK        -0.5000 
     60 C           0.9868  -11.1389  -43.8740 C.2       2 UNK         0.5000 
     61 O           1.3739  -10.0064  -43.5805 O.2       2 UNK        -0.5000 
     62 CA         -0.2560  -11.7228  -43.1727 C.3       2 UNK         0.1400 
     63 CB         -1.3097  -10.6474  -42.8493 C.3       2 UNK        -0.1800 
     64 N          -0.8743  -12.7645  -43.9923 N.am      2 UNK        -0.5000 
     65 C          -1.2305  -13.9798  -43.5626 C.2       1 UNK         0.5000 
     66 O          -1.1808  -14.3223  -42.3813 O.2       1 UNK        -0.5000 
     67 C          -3.6148  -23.0215  -47.1263 C.2       11 UNK         0.5000 
     68 O          -3.7106  -24.1338  -47.6409 O.2       11 UNK        -0.5000 
     69 N          -3.1536  -22.8321  -45.8808 N.am      12 UNK        -0.5000 
     70 CA         -2.6386  -23.9238  -45.0489 C.3       12 UNK         0.1400 
     71 CB         -2.5407  -23.4868  -43.5798 C.3       12 UNK        -0.1800 
     72 C          -1.2847  -24.4352  -45.5693 C.2       12 UNK         0.5000 
     73 O          -1.0915  -25.6471  -45.6662 O.2       12 UNK        -0.5000 
     74 N          -0.3986  -23.5022  -45.9458 N.am      13 UNK        -0.5000 
     75 CA          0.9019  -23.7822  -46.5562 C.3       13 UNK         0.1400 
     76 CB          1.7035  -22.4751  -46.6601 C.3       13 UNK        -0.1800 
     77 C           0.7856  -24.4717  -47.9310 C.2       13 UNK         0.5000 
     78 O           1.5501  -25.3942  -48.2150 O.2       13 UNK        -0.5000 
     79 N          -0.1845  -24.0329  -48.7445 N.am      14 UNK        -0.5000 
     80 CA         -0.4829  -24.5840  -50.0688 C.3       14 UNK         0.1400 
     81 CB         -1.2186  -23.5161  -50.8895 C.3       14 UNK        -0.1800 
     82 C          -1.3102  -25.8855  -50.0374 C.2       14 UNK         0.5000 
     83 O          -1.4943  -26.4933  -51.0913 O.2       14 UNK        -0.5000 
     84 N          -1.8146  -26.2788  -48.8584 N.am      15 UNK        -0.5000 
     85 CA         -2.6855  -27.4334  -48.6086 C.3       15 UNK         0.1400 
     86 CB         -1.9379  -28.7578  -48.8698 C.3       15 UNK        -0.1800 
     87 C          -4.0293  -27.3279  -49.3629 C.2       15 UNK         0.5000 
     88 O          -4.4187  -28.2443  -50.0882 O.2       15 UNK        -0.5000 
     89 N          -4.6977  -26.1824  -49.1730 N.am      16 UNK        -0.5000 
     90 CA         -6.0050  -25.7714  -49.6985 C.3       16 UNK         0.1400 
     91 CB         -7.1101  -26.7787  -49.3197 C.3       16 UNK        -0.1800 
     92 C          -6.0236  -25.4199  -51.1999 C.2       16 UNK         0.5000 
     93 O          -7.0903  -25.0959  -51.7258 O.2       16 UNK        -0.5000 
     94 N          -4.8630  -25.4444  -51.8678 N.am      17 UNK        -0.5000 
     95 CA         -4.6978  -25.0248  -53.2571 C.3       17 UNK         0.1400 
     96 CB         -3.4590  -25.7163  -53.8512 C.3       17 UNK        -0.1800 
     97 C          -4.6042  -23.4907  -53.3379 C.2       17 UNK         0.5000 
     98 O          -3.5035  -22.9443  -53.4168 O.2       17 UNK        -0.5000 
     99 N          -5.7604  -22.8147  -53.3045 N.am      18 UNK        -0.5000 
    100 CA        -5.8854  -21.3518  -53.3244 C.3       18 UNK         0.1400 
    101 CB        -7.3680  -20.9635  -53.2364 C.3       18 UNK        -0.1800 
    102 C         -5.2177  -20.6796  -54.5416 C.2       18 UNK         0.5000 
    103 O         -4.6402  -19.6011  -54.4062 O.2       18 UNK        -0.5000 
    104 N         -5.2610  -21.3594  -55.6959 N.am      19 UNK        -0.5000 
    105 CA        -4.6028  -20.9433  -56.9353 C.3       19 UNK         0.1400 
    106 CB        -5.0762  -21.8503  -58.0812 C.3       19 UNK        -0.1800 
    107 C         -3.0633  -20.9465  -56.8457 C.2       19 UNK         0.5000 
    108 O         -2.4212  -20.1519  -57.5331 O.2       19 UNK        -0.5000 
    109 N         -2.5010  -21.8243  -56.0025 N.am      20 UNK        -0.5000 
    110 CA        -1.0730  -21.8649  -55.6942 C.3       20 UNK         0.1400 
    111 CB        -0.6618  -23.2948  -55.3085 C.3       20 UNK        -0.1800 
    112 C         -0.7314  -20.8697  -54.5737 C.2       20 UNK         0.5000 
    113 O          0.2652  -20.1553  -54.6877 O.2       20 UNK        -0.5000 
    114 N         -1.5813  -20.8182  -53.5352 N.am      21 UNK        -0.5000 
    115 CA        -1.4665  -19.9398  -52.3672 C.3       21 UNK         0.1400 
    116 CB        -2.6863  -20.1379  -51.4527 C.3       21 UNK        -0.1800 
    117 C         -1.3452  -18.4528  -52.7341 C.2       21 UNK         0.5000 
    118 O         -0.4686  -17.7634  -52.2126 O.2       21 UNK        -0.5000 
    119 N         -2.2335  -17.9953  -53.6238 N.am      22 UNK        -0.5000 
    120 CA        -2.3013  -16.6050  -54.0971 C.3       22 UNK         0.1400 
    121 C         -1.3697  -16.3100  -55.3114 C.2       22 UNK         0.5000 
    122 N         -0.5278  -17.2363  -55.7561 N.am      22 UNK        -0.7600 
    123 O         -1.3981  -15.2097  -55.8561 O.2       22 UNK        -0.5000 
    124 C124       -3.7659  -16.1656  -54.3721 C.3       23 UNK        -0.0398 
    125 S125       -4.9858  -16.4382  -53.0282 S.3       23 UNK        -0.2404 
    126 C126       -4.0616  -16.1830  -51.4691 C.3       23 UNK        -0.0205 
    127 H127       -1.2416  -14.3064  -48.5369 H         1 UNK         0.0600 
    128 H128        0.4132  -14.9166  -48.5807 H         1 UNK         0.0600 
    129 H129        0.1141  -13.1985  -48.2989 H         1 UNK         0.0600 
    130 H130       -2.2994  -14.5403  -46.5982 H         1 UNK         0.3000 
    131 H131       -1.1818  -15.9085  -44.4383 H         1 UNK         0.0600 
    132 H132       -3.8443  -14.3891  -44.5050 H         1 UNK         0.0800 
    133 H133       -3.4085  -15.6286  -43.3589 H         1 UNK         0.0800 
    134 H134       -4.6827  -14.7028  -46.7348 H         1 UNK         0.0800 
    135 H135       -5.9930  -15.6105  -46.0157 H         1 UNK         0.0800 
    136 H136       -4.0082  -15.1164  -48.9829 H         1 UNK         0.1150 
    137 H137       -5.7047  -18.3908  -51.1734 H         1 UNK         0.1150 
    138 H138       -6.5260  -17.9566  -46.9934 H         1 UNK         0.1150 
    139 H139       -7.6858  -19.6491  -48.2411 H         1 UNK         0.0800 
    140 H140       -7.8503  -19.3702  -49.9538 H         1 UNK         0.0800 
    141 H141       -6.0896  -22.4080  -47.5901 H         1 UNK         0.0800 
    142 H142       -5.7669  -20.7571  -47.1511 H         1 UNK         0.0800 
    143 H143       -3.7518  -22.0559  -48.9909 H         1 UNK         0.0600 
    144 H144       -3.6831  -19.8477  -47.1536 H         1 UNK         0.3000 
    145 H145       -0.1268  -19.4534  -47.3006 H         1 UNK         0.0600 
    146 H146       -0.8924  -17.1527  -47.9012 H         1 UNK         0.0600 
    147 H147       -1.0146  -18.2405  -49.2709 H         1 UNK         0.0600 
    148 H148       -2.4648  -17.7891  -48.3802 H         1 UNK         0.0600 
    149 H149       -2.1437  -18.0174  -45.8910 H         1 UNK         0.3000 
    150 H150       -2.0621  -18.0396  -43.6202 H         1 UNK         0.0600 
    151 H151       -4.0892  -19.4193  -44.1137 H         1 UNK         0.0600 
    152 H152       -3.8128  -19.2778  -42.3861 H         1 UNK         0.0600 
    153 H153       -3.4011  -20.7699  -43.2235 H         1 UNK         0.0600 
    154 H154       -1.1914  -20.4719  -42.1660 H         1 UNK         0.3000 
    155 H155        0.4370  -20.0275  -40.4256 H         1 UNK         0.0600 
    156 H156        2.2790  -20.1879  -42.8771 H         1 UNK         0.0600 
    157 H157        1.0804  -21.3793  -42.4015 H         1 UNK         0.0600 
    158 H158        2.4919  -21.1123  -41.3914 H         1 UNK         0.0600 
    159 H159        2.7127  -18.3217  -41.2790 H         1 UNK         0.3000 
    160 H160        2.3407  -16.0333  -38.6892 H         1 UNK         0.0600 
    161 H161        4.2928  -18.3760  -38.3722 H         1 UNK         0.0600 
    162 H162        3.1612  -17.8108  -37.1493 H         1 UNK         0.0600 
    163 H163        4.4804  -16.7716  -37.6623 H         1 UNK         0.0600 
    164 H164        4.5823  -16.9343  -40.3263 H         1 UNK         0.3000 
    165 H165        4.4269  -14.1411  -42.2999 H         1 UNK         0.0600 
    166 H166        5.8462  -16.8394  -41.9299 H         1 UNK         0.0600 
    167 H167        6.4882  -15.4125  -42.7300 H         1 UNK         0.0600 
    168 H168        6.1743  -15.3740  -41.0057 H         1 UNK         0.0600 
    169 H169        3.8375  -14.9629  -44.2489 H         1 UNK         0.3000 
    170 H170        3.7637  -17.9679  -45.7648 H         1 UNK         0.0600 
    171 H171        1.5619  -18.6183  -44.9258 H         1 UNK         0.0600 
    172 H172        0.9935  -16.9547  -44.9765 H         1 UNK         0.0600 
    173 H173        1.3691  -17.8047  -46.4721 H         1 UNK         0.0600 
    174 H174        2.4655  -15.3581  -46.2344 H         1 UNK         0.3000 
    175 H175        5.4124  -13.9407  -47.6338 H         1 UNK         0.0600 
    176 H176        2.9641  -14.9381  -49.1829 H         1 UNK         0.0600 
    177 H177        4.0989  -13.6958  -49.7140 H         1 UNK         0.0600 
    178 H178        4.6332  -15.3596  -49.5462 H         1 UNK         0.0600 
    179 H179        2.8812  -12.8528  -47.7701 H         1 UNK         0.3000 
    180 H180        3.3399  -10.7914  -45.0541 H         1 UNK         0.0600 
    181 H181        1.7058   -9.8404  -46.6279 H         1 UNK         0.0600 
    182 H182        1.5145  -11.3784  -47.4554 H         1 UNK         0.0600 
    183 H183        3.0450  -10.5033  -47.5442 H         1 UNK         0.0600 
    184 H184        1.2497  -12.8479  -44.9614 H         1 UNK         0.3000 
    185 H185        0.1031  -12.1459  -42.2322 H         1 UNK         0.0600 
    186 H186       -2.1718  -11.0819  -42.3430 H         1 UNK         0.0600 
    187 H187       -0.9024   -9.8803  -42.1896 H         1 UNK         0.0600 
    188 H188       -1.6661  -10.1516  -43.7530 H         1 UNK         0.0600 
    189 H189       -0.9576  -12.5640  -44.9789 H         1 UNK         0.3000 
    190 H190       -3.0433  -21.8930  -45.5302 H         1 UNK         0.3000 
    191 H191       -3.3472  -24.7539  -45.0974 H         1 UNK         0.0600 
    192 H192       -2.2001  -24.3129  -42.9542 H         1 UNK         0.0600 
    193 H193       -3.5118  -23.1736  -43.1971 H         1 UNK         0.0600 
    194 H194       -1.8374  -22.6667  -43.4411 H         1 UNK         0.0600 
    195 H195       -0.6263  -22.5245  -45.7907 H         1 UNK         0.3000 
    196 H196        1.4418  -24.4591  -45.8909 H         1 UNK         0.0600 
    197 H197        1.2077  -21.7475  -47.3029 H         1 UNK         0.0600 
    198 H198        1.8377  -22.0159  -45.6803 H         1 UNK         0.0600 
    199 H199        2.6958  -22.6574  -47.0742 H         1 UNK         0.0600 
    200 H200       -0.7150  -23.2109  -48.4687 H         1 UNK         0.3000 
    201 H201        0.4592  -24.8078  -50.5733 H         1 UNK         0.0600 
    202 H202       -2.2021  -23.3030  -50.4704 H         1 UNK         0.0600 
    203 H203       -1.3642  -23.8418  -51.9192 H         1 UNK         0.0600 
    204 H204       -0.6543  -22.5846  -50.9243 H         1 UNK         0.0600 
    205 H205       -1.6250  -25.6967  -48.0535 H         1 UNK         0.3000 
    206 H206       -2.9296  -27.4027  -47.5455 H         1 UNK         0.0600 
    207 H207       -1.0103  -28.8043  -48.2992 H         1 UNK         0.0600 
    208 H208       -2.5460  -29.6123  -48.5710 H         1 UNK         0.0600 
    209 H209       -1.6903  -28.8875  -49.9236 H         1 UNK         0.0600 
    210 H210       -4.2546  -25.4809  -48.5774 H         1 UNK         0.3000 
    211 H211       -6.2345  -24.8372  -49.1837 H         1 UNK         0.0600 
    212 H212       -8.0979  -26.3816  -49.5560 H         1 UNK         0.0600 
    213 H213       -7.0973  -26.9962  -48.2518 H         1 UNK         0.0600 
    214 H214       -7.0042  -27.7210  -49.8575 H         1 UNK         0.0600 
    215 H215       -4.0255  -25.7184  -51.3737 H         1 UNK         0.3000 
    216 H216       -5.5637  -25.3451  -53.8404 H         1 UNK         0.0600 
    217 H217       -2.5484  -25.4523  -53.3142 H         1 UNK         0.0600 
    218 H218       -3.3165  -25.4326  -54.8946 H         1 UNK         0.0600 
    219 H219       -3.5603  -26.8012  -53.8186 H         1 UNK         0.0600 
    220 H220       -6.6145  -23.3416  -53.1737 H         1 UNK         0.3000 
    221 H221       -5.3913  -20.9776  -52.4289 H         1 UNK         0.0600 
    222 H222       -7.8251  -21.3581  -52.3287 H         1 UNK         0.0600 
    223 H223       -7.9346  -21.3381  -54.0897 H         1 UNK         0.0600 
    224 H224       -7.4852  -19.8791  -53.2115 H         1 UNK         0.0600 
    225 H225       -5.7538  -22.2399  -55.7148 H         1 UNK         0.3000 
    226 H226       -4.9167  -19.9206  -57.1552 H         1 UNK         0.0600 
    227 H227       -4.8097  -22.8933  -57.9055 H         1 UNK         0.0600 
    228 H228       -6.1577  -21.7955  -58.2074 H         1 UNK         0.0600 
    229 H229       -4.6245  -21.5511  -59.0280 H         1 UNK         0.0600 
    230 H230       -3.0996  -22.3982  -55.4229 H         1 UNK         0.3000 
    231 H231       -0.5023  -21.5847  -56.5823 H         1 UNK         0.0600 
    232 H232       -1.1627  -23.6349  -54.4029 H         1 UNK         0.0600 
    233 H233        0.4119  -23.3531  -55.1270 H         1 UNK         0.0600 
    234 H234       -0.8962  -24.0007  -56.1052 H         1 UNK         0.0600 
    235 H235       -2.3526  -21.4804  -53.5203 H         1 UNK         0.3000 
    236 H236       -0.5684  -20.2330  -51.8206 H         1 UNK         0.0600 
    237 H237       -2.8421  -21.1840  -51.1974 H         1 UNK         0.0600 
    238 H238       -2.5693  -19.5851  -50.5228 H         1 UNK         0.0600 
    239 H239       -3.5982  -19.7672  -51.9164 H         1 UNK         0.0600 
    240 H240       -2.9493  -18.6237  -53.9780 H         1 UNK         0.3000 
    241 H241       -1.9205  -15.9543  -53.3088 H         1 UNK         0.0600 
    242 H242        0.0685  -17.0262  -56.5407 H         1 UNK         0.3800 
    243 H243       -0.4588  -18.1373  -55.3022 H         1 UNK         0.3800 
    244 H244       -4.1430  -16.6860  -55.2543 H         1 UNK         0.0800 
    245 H245       -3.7949  -15.1030  -54.6186 H         1 UNK         0.0800 
    246 H246       -3.1082  -16.7014  -51.4844 H         1 UNK         0.0800 
    247 H247       -3.8356  -15.1196  -51.3776 H         1 UNK         0.0800 
@<TRIPOS>BOND
     1    1    2 1    
     2    1  127 1    
     3    1  128 1    
     4    1  129 1    
     5    2    3 2    
     6    2    4 am   BACKBONE|DICT|INTERRES
     7    4    5 1    
     8    4  130 1    
     9    5    6 1    
    10    5   65 1    
    11    5  131 1    
    12    6    7 1    
    13    6  132 1    
    14    6  133 1    
    15    7    8 1    
    16    8    9 1    
    17    8  134 1    
    18    8  135 1    
    19    9   10 ar   
    20    9   14 ar   
    21   10   11 ar   
    22   10  136 1    
    23   11   12 ar   
    24   11  126 1    
    25   12   13 ar   
    26   12  137 1    
    27   13   14 ar   
    28   13   15 1    
    29   14  138 1    
    30   15   16 1    
    31   15  139 1    
    32   15  140 1    
    33   16   17 1    
    34   17   18 1    
    35   17  141 1    
    36   17  142 1    
    37   18   19 1    
    38   18   67 1    
    39   18  143 1    
    40   19   20 am   BACKBONE|DICT|INTERRES
    41   19  144 1    
    42   20   21 2    
    43   20   22 1    
    44   22   23 1    
    45   22   24 1    
    46   22  145 1    
    47   23  146 1    
    48   23  147 1    
    49   23  148 1    
    50   24   25 am   BACKBONE|DICT|INTERRES
    51   24  149 1    
    52   25   26 2    
    53   25   27 1    
    54   27   28 1    
    55   27   29 1    
    56   27  150 1    
    57   28  151 1    
    58   28  152 1    
    59   28  153 1    
    60   29   30 am   BACKBONE|DICT|INTERRES
    61   29  154 1    
    62   30   31 2    
    63   30   32 1    
    64   32   33 1    
    65   32   34 1    
    66   32  155 1    
    67   33  156 1    
    68   33  157 1    
    69   33  158 1    
    70   34   35 am   BACKBONE|DICT|INTERRES
    71   34  159 1    
    72   35   36 2    
    73   35   37 1    
    74   37   38 1    
    75   37   39 1    
    76   37  160 1    
    77   38  161 1    
    78   38  162 1    
    79   38  163 1    
    80   39   40 am   BACKBONE|DICT|INTERRES
    81   39  164 1    
    82   40   41 2    
    83   40   42 1    
    84   42   43 1    
    85   42   44 1    
    86   42  165 1    
    87   43  166 1    
    88   43  167 1    
    89   43  168 1    
    90   44   45 am   BACKBONE|DICT|INTERRES
    91   44  169 1    
    92   45   46 2    
    93   45   47 1    
    94   47   48 1    
    95   47   49 1    
    96   47  170 1    
    97   48  171 1    
    98   48  172 1    
    99   48  173 1    
   100   49   50 am   BACKBONE|DICT|INTERRES
   101   49  174 1    
   102   50   51 2    
   103   50   52 1    
   104   52   53 1    
   105   52   54 1    
   106   52  175 1    
   107   53  176 1    
   108   53  177 1    
   109   53  178 1    
   110   54   55 am   BACKBONE|DICT|INTERRES
   111   54  179 1    
   112   55   56 2    
   113   55   57 1    
   114   57   58 1    
   115   57   59 1    
   116   57  180 1    
   117   58  181 1    
   118   58  182 1    
   119   58  183 1    
   120   59   60 am   BACKBONE|DICT|INTERRES
   121   59  184 1    
   122   60   61 2    
   123   60   62 1    
   124   62   63 1    
   125   62   64 1    
   126   62  185 1    
   127   63  186 1    
   128   63  187 1    
   129   63  188 1    
   130   64   65 am   BACKBONE|DICT|INTERRES
   131   64  189 1    
   132   65   66 2    
   133   67   68 2    
   134   67   69 am   BACKBONE|DICT|INTERRES
   135   69   70 1    
   136   69  190 1    
   137   70   71 1    
   138   70   72 1    
   139   70  191 1    
   140   71  192 1    
   141   71  193 1    
   142   71  194 1    
   143   72   73 2    
   144   72   74 am   BACKBONE|DICT|INTERRES
   145   74   75 1    
   146   74  195 1    
   147   75   76 1    
   148   75   77 1    
   149   75  196 1    
   150   76  197 1    
   151   76  198 1    
   152   76  199 1    
   153   77   78 2    
   154   77   79 am   BACKBONE|DICT|INTERRES
   155   79   80 1    
   156   79  200 1    
   157   80   81 1    
   158   80   82 1    
   159   80  201 1    
   160   81  202 1    
   161   81  203 1    
   162   81  204 1    
   163   82   83 2    
   164   82   84 am   BACKBONE|DICT|INTERRES
   165   84   85 1    
   166   84  205 1    
   167   85   86 1    
   168   85   87 1    
   169   85  206 1    
   170   86  207 1    
   171   86  208 1    
   172   86  209 1    
   173   87   88 2    
   174   87   89 am   BACKBONE|DICT|INTERRES
   175   89   90 1    
   176   89  210 1    
   177   90   91 1    
   178   90   92 1    
   179   90  211 1    
   180   91  212 1    
   181   91  213 1    
   182   91  214 1    
   183   92   93 2    
   184   92   94 am   BACKBONE|DICT|INTERRES
   185   94   95 1    
   186   94  215 1    
   187   95   96 1    
   188   95   97 1    
   189   95  216 1    
   190   96  217 1    
   191   96  218 1    
   192   96  219 1    
   193   97   98 2    
   194   97   99 am   BACKBONE|DICT|INTERRES
   195   99  100 1    
   196   99  220 1    
   197  100  101 1    
   198  100  102 1    
   199  100  221 1    
   200  101  222 1    
   201  101  223 1    
   202  101  224 1    
   203  102  103 2    
   204  102  104 am   BACKBONE|DICT|INTERRES
   205  104  105 1    
   206  104  225 1    
   207  105  106 1    
   208  105  107 1    
   209  105  226 1    
   210  106  227 1    
   211  106  228 1    
   212  106  229 1    
   213  107  108 2    
   214  107  109 am   BACKBONE|DICT|INTERRES
   215  109  110 1    
   216  109  230 1    
   217  110  111 1    
   218  110  112 1    
   219  110  231 1    
   220  111  232 1    
   221  111  233 1    
   222  111  234 1    
   223  112  113 2    
   224  112  114 am   BACKBONE|DICT|INTERRES
   225  114  115 1    
   226  114  235 1    
   227  115  116 1    
   228  115  117 1    
   229  115  236 1    
   230  116  237 1    
   231  116  238 1    
   232  116  239 1    
   233  117  118 2    
   234  117  119 am   BACKBONE|DICT|INTERRES
   235  119  120 1    
   236  119  240 1    
   237  120  121 1    
   238  120  124 1    
   239  120  241 1    
   240  121  122 am   BACKBONE|DICT|INTERRES
   241  121  123 2    
   242  122  242 1    
   243  122  243 1    
   244  124  125 1    
   245  124  244 1    
   246  124  245 1    
   247  125  126 1    
   248  126  246 1    
   249  126  247 1    
@<TRIPOS>SUBSTRUCTURE
     1 UNK         1 GROUP             0       ****    0 ROOT    
