@<TRIPOS>MOLECULE
3R540
247   249    1
SMALL
USER_CHARGES


@<TRIPOS>ATOM
      1 CA         -4.7605  -10.9783  -48.1223 C.3       0 UNK        -0.1800 
      2 C          -4.0324  -12.3071  -48.2615 C.2       0 UNK         0.5000 
      3 O          -3.1628  -12.4410  -49.1219 O.2       0 UNK        -0.5000 
      4 N          -4.3789  -13.2845  -47.4127 N.am      1 UNK        -0.5000 
      5 CA         -3.8275  -14.6480  -47.4047 C.3       1 UNK         0.1400 
      6 C6         -4.5635  -15.5547  -46.3816 C.3       23 UNK        -0.0398 
      7 S7         -6.3708  -15.7681  -46.5820 S.3       23 UNK        -0.2404 
      8 C8         -6.7005  -15.6128  -48.3741 C.3       23 UNK        -0.0205 
      9 C9         -6.2520  -16.7750  -49.2635 C.ar      23 UNK        -0.0193 
     10 C10        -6.6365  -16.7429  -50.6067 C.ar      23 UNK        -0.1150 
     11 C11        -6.2523  -17.7509  -51.4966 C.ar      23 UNK        -0.0193 
     12 C12        -5.4960  -18.8230  -51.0186 C.ar      23 UNK        -0.1150 
     13 C13        -5.0892  -18.8700  -49.6838 C.ar      23 UNK        -0.0193 
     14 C14        -5.4739  -17.8498  -48.8104 C.ar      23 UNK        -0.1150 
     15 C15        -4.1987  -20.0049  -49.2053 C.3       23 UNK        -0.0205 
     16 S16        -5.1485  -21.3604  -48.4543 S.3       23 UNK        -0.2404 
     17 C17        -4.9449  -21.0151  -46.6727 C.3       23 UNK        -0.0398 
     18 CA         -3.6660  -21.6579  -46.0720 C.3       11 UNK         0.1400 
     19 N          -3.2794  -21.0908  -44.7750 N.am      11 UNK        -0.5000 
     20 C          -3.9951  -21.0030  -43.6459 C.2       10 UNK         0.5000 
     21 O          -5.1372  -21.4469  -43.5260 O.2       10 UNK        -0.5000 
     22 CA         -3.3085  -20.3298  -42.4408 C.3       10 UNK         0.1400 
     23 CB         -2.5021  -21.3610  -41.6387 C.3       10 UNK        -0.1800 
     24 N          -2.4214  -19.2348  -42.8351 N.am      10 UNK        -0.5000 
     25 C          -2.8412  -18.0405  -43.2777 C.2       9 UNK         0.5000 
     26 O          -4.0219  -17.6928  -43.3053 O.2       9 UNK        -0.5000 
     27 CA         -1.7564  -17.0873  -43.8154 C.3       9 UNK         0.1400 
     28 CB         -1.0461  -16.3645  -42.6593 C.3       9 UNK        -0.1800 
     29 N          -0.7675  -17.7744  -44.6470 N.am      9 UNK        -0.5000 
     30 C          -1.0470  -18.4520  -45.7714 C.2       8 UNK         0.5000 
     31 O          -2.1697  -18.5380  -46.2681 O.2       8 UNK        -0.5000 
     32 CA          0.1126  -19.2303  -46.4098 C.3       8 UNK         0.1400 
     33 CB          0.9479  -18.3251  -47.3250 C.3       8 UNK        -0.1800 
     34 N           0.9734  -19.8531  -45.4054 N.am      8 UNK        -0.5000 
     35 C           0.6299  -20.9236  -44.6753 C.2       7 UNK         0.5000 
     36 O          -0.4368  -21.5248  -44.7997 O.2       7 UNK        -0.5000 
     37 CA          1.6366  -21.3829  -43.6064 C.3       7 UNK         0.1400 
     38 CB          2.6865  -22.3214  -44.2182 C.3       7 UNK        -0.1800 
     39 N           2.2993  -20.2634  -42.9398 N.am      7 UNK        -0.5000 
     40 C           1.6720  -19.3930  -42.1356 C.2       6 UNK         0.5000 
     41 O           0.4777  -19.4722  -41.8444 O.2       6 UNK        -0.5000 
     42 CA          2.5112  -18.2116  -41.6101 C.3       6 UNK         0.1400 
     43 CB          3.1951  -18.5834  -40.2862 C.3       6 UNK        -0.1800 
     44 N           3.5223  -17.7408  -42.5653 N.am      6 UNK        -0.5000 
     45 C           3.2396  -17.2310  -43.7716 C.2       5 UNK         0.5000 
     46 O           2.0934  -17.1448  -44.2101 O.2       5 UNK        -0.5000 
     47 CA          4.4285  -16.8149  -44.6490 C.3       5 UNK         0.1400 
     48 CB          4.6586  -17.8333  -45.7788 C.3       5 UNK        -0.1800 
     49 N           4.2110  -15.4836  -45.2174 N.am      5 UNK        -0.5000 
     50 C           5.1962  -14.6034  -45.4577 C.2       4 UNK         0.5000 
     51 O           6.3833  -14.8569  -45.2407 O.2       4 UNK        -0.5000 
     52 CA          4.8153  -13.2025  -45.9981 C.3       4 UNK         0.1400 
     53 CB          5.9846  -12.4947  -46.7159 C.3       4 UNK        -0.1800 
     54 N           3.6096  -13.1799  -46.8299 N.am      4 UNK        -0.5000 
     55 C           3.3940  -13.8177  -47.9905 C.2       3 UNK         0.5000 
     56 O           4.2612  -14.4544  -48.5911 O.2       3 UNK        -0.5000 
     57 CA          1.9567  -13.7348  -48.5693 C.3       3 UNK         0.1400 
     58 CB          1.5854  -14.9993  -49.3701 C.3       3 UNK        -0.1800 
     59 N           0.8957  -13.4458  -47.5869 N.am      3 UNK        -0.5000 
     60 C           0.6702  -14.0946  -46.4339 C.2       2 UNK         0.5000 
     61 O           1.3982  -14.9783  -45.9911 O.2       2 UNK        -0.5000 
     62 CA         -0.5561  -13.6658  -45.6136 C.3       2 UNK         0.1400 
     63 CB         -0.3495  -12.2697  -45.0052 C.3       2 UNK        -0.1800 
     64 N          -1.8426  -13.7078  -46.3105 N.am      2 UNK        -0.5000 
     65 C          -2.3172  -14.6941  -47.0888 C.2       1 UNK         0.5000 
     66 O          -1.6500  -15.6347  -47.5136 O.2       1 UNK        -0.5000 
     67 C          -3.7101  -23.2006  -46.0502 C.2       11 UNK         0.5000 
     68 O          -3.0902  -23.8405  -46.9027 O.2       11 UNK        -0.5000 
     69 N          -4.3912  -23.7765  -45.0513 N.am      12 UNK        -0.5000 
     70 CA         -4.4962  -25.2181  -44.8209 C.3       12 UNK         0.1400 
     71 CB         -5.5116  -25.4772  -43.6987 C.3       12 UNK        -0.1800 
     72 C          -3.1424  -25.8725  -44.4895 C.2       12 UNK         0.5000 
     73 O          -2.8895  -26.9965  -44.9214 O.2       12 UNK        -0.5000 
     74 N          -2.2753  -25.1398  -43.7765 N.am      13 UNK        -0.5000 
     75 CA         -0.9115  -25.5577  -43.4397 C.3       13 UNK         0.1400 
     76 CB         -0.3554  -24.6221  -42.3600 C.3       13 UNK        -0.1800 
     77 C           0.0273  -25.6032  -44.6623 C.2       13 UNK         0.5000 
     78 O           0.9643  -26.4010  -44.6762 O.2       13 UNK        -0.5000 
     79 N          -0.2646  -24.7809  -45.6796 N.am      14 UNK        -0.5000 
     80 CA          0.3821  -24.8048  -46.9930 C.3       14 UNK         0.1400 
     81 CB          0.3737  -23.3818  -47.5818 C.3       14 UNK        -0.1800 
     82 C          -0.2870  -25.8020  -47.9626 C.2       14 UNK         0.5000 
     83 O           0.0984  -25.8463  -49.1303 O.2       14 UNK        -0.5000 
     84 N          -1.3020  -26.5493  -47.4968 N.am      15 UNK        -0.5000 
     85 CA         -2.1289  -27.4973  -48.2552 C.3       15 UNK         0.1400 
     86 CB         -1.2989  -28.7324  -48.6617 C.3       15 UNK        -0.1800 
     87 C          -2.8547  -26.8417  -49.4507 C.2       15 UNK         0.5000 
     88 O          -3.0636  -27.4891  -50.4776 O.2       15 UNK        -0.5000 
     89 N          -3.1899  -25.5514  -49.2981 N.am      16 UNK        -0.5000 
     90 CA         -3.7725  -24.6470  -50.2920 C.3       16 UNK         0.1400 
     91 CB         -5.1703  -25.1238  -50.7347 C.3       16 UNK        -0.1800 
     92 C          -2.8545  -24.3202  -51.4911 C.2       16 UNK         0.5000 
     93 O          -3.3075  -23.6484  -52.4178 O.2       16 UNK        -0.5000 
     94 N          -1.5711  -24.7197  -51.4531 N.am      17 UNK        -0.5000 
     95 CA         -0.5759  -24.3981  -52.4876 C.3       17 UNK         0.1400 
     96 CB          0.6976  -25.2239  -52.2579 C.3       17 UNK        -0.1800 
     97 C          -0.2414  -22.8942  -52.5443 C.2       17 UNK         0.5000 
     98 O           0.1605  -22.3875  -53.5925 O.2       17 UNK        -0.5000 
     99 N          -0.4841  -22.1962  -51.4264 N.am      18 UNK        -0.5000 
    100 CA        -0.4155  -20.7442  -51.2778 C.3       18 UNK         0.1400 
    101 CB        -0.5691  -20.3970  -49.7918 C.3       18 UNK        -0.1800 
    102 C         -1.4245  -19.9616  -52.1451 C.2       18 UNK         0.5000 
    103 O         -1.2732  -18.7479  -52.2795 O.2       18 UNK        -0.5000 
    104 N         -2.3938  -20.6465  -52.7741 N.am      19 UNK        -0.5000 
    105 CA        -3.2903  -20.0921  -53.7948 C.3       19 UNK         0.1400 
    106 CB        -4.3759  -21.1234  -54.1350 C.3       19 UNK        -0.1800 
    107 C         -2.5742  -19.6120  -55.0745 C.2       19 UNK         0.5000 
    108 O         -3.1733  -18.8680  -55.8502 O.2       19 UNK        -0.5000 
    109 N         -1.3014  -19.9956  -55.2571 N.am      20 UNK        -0.5000 
    110 CA        -0.3955  -19.4124  -56.2481 C.3       20 UNK         0.1400 
    111 CB         0.9071  -20.2258  -56.2741 C.3       20 UNK        -0.1800 
    112 C         -0.0978  -17.9197  -55.9826 C.2       20 UNK         0.5000 
    113 O          0.1232  -17.1726  -56.9363 O.2       20 UNK        -0.5000 
    114 N         -0.1175  -17.5128  -54.7046 N.am      21 UNK        -0.5000 
    115 CA        -0.0279  -16.1206  -54.2683 C.3       21 UNK         0.1400 
    116 CB         0.8435  -16.0322  -53.0037 C.3       21 UNK        -0.1800 
    117 C         -1.4325  -15.5505  -54.0078 C.2       21 UNK         0.5000 
    118 O         -1.7475  -14.4696  -54.5061 O.2       21 UNK        -0.5000 
    119 N         -2.2513  -16.2990  -53.2528 N.am      22 UNK        -0.5000 
    120 CA        -3.6281  -15.9528  -52.8590 C.3       22 UNK         0.1400 
    121 C         -3.7213  -14.6895  -51.9448 C.2       22 UNK         0.5000 
    122 N         -2.7528  -14.4704  -51.0640 N.am      22 UNK        -0.7600 
    123 O         -4.6622  -13.9045  -52.0158 O.2       22 UNK        -0.5000 
    124 C124       -4.5969  -15.9728  -54.0791 C.3       23 UNK        -0.0398 
    125 S125       -6.3897  -16.0349  -53.7131 S.3       23 UNK        -0.2404 
    126 C126       -6.6425  -17.6854  -52.9707 C.3       23 UNK        -0.0205 
    127 H127       -5.2732  -10.7341  -49.0527 H         1 UNK         0.0600 
    128 H128       -4.0490  -10.1818  -47.9045 H         1 UNK         0.0600 
    129 H129       -5.5008  -11.0024  -47.3222 H         1 UNK         0.0600 
    130 H130       -5.1083  -13.1103  -46.7357 H         1 UNK         0.3000 
    131 H131       -3.9500  -15.0685  -48.4045 H         1 UNK         0.0600 
    132 H132       -4.4083  -15.1729  -45.3707 H         1 UNK         0.0800 
    133 H133       -4.1198  -16.5518  -46.3759 H         1 UNK         0.0800 
    134 H134       -6.2805  -14.6829  -48.7565 H         1 UNK         0.0800 
    135 H135       -7.7810  -15.5104  -48.4846 H         1 UNK         0.0800 
    136 H136       -7.2285  -15.9133  -50.9675 H         1 UNK         0.1150 
    137 H137       -5.2098  -19.6212  -51.6855 H         1 UNK         0.1150 
    138 H138       -5.1565  -17.9101  -47.7824 H         1 UNK         0.1150 
    139 H139       -3.6461  -20.4120  -50.0520 H         1 UNK         0.0800 
    140 H140       -3.4496  -19.6259  -48.5082 H         1 UNK         0.0800 
    141 H141       -5.8372  -21.3629  -46.1503 H         1 UNK         0.0800 
    142 H142       -4.9190  -19.9344  -46.5280 H         1 UNK         0.0800 
    143 H143       -2.8358  -21.3934  -46.7293 H         1 UNK         0.0600 
    144 H144       -2.3125  -20.7886  -44.7332 H         1 UNK         0.3000 
    145 H145       -4.0910  -19.9286  -41.7934 H         1 UNK         0.0600 
    146 H146       -2.1001  -20.9207  -40.7259 H         1 UNK         0.0600 
    147 H147       -3.1224  -22.2094  -41.3466 H         1 UNK         0.0600 
    148 H148       -1.6629  -21.7451  -42.2173 H         1 UNK         0.0600 
    149 H149       -1.4239  -19.4103  -42.7840 H         1 UNK         0.3000 
    150 H150       -2.2432  -16.3389  -44.4423 H         1 UNK         0.0600 
    151 H151       -1.7353  -15.6990  -42.1385 H         1 UNK         0.0600 
    152 H152       -0.2097  -15.7615  -43.0118 H         1 UNK         0.0600 
    153 H153       -0.6545  -17.0660  -41.9232 H         1 UNK         0.0600 
    154 H154        0.2043  -17.7016  -44.3598 H         1 UNK         0.3000 
    155 H155       -0.3247  -20.0236  -47.0177 H         1 UNK         0.0600 
    156 H156        1.4461  -17.5356  -46.7639 H         1 UNK         0.0600 
    157 H157        0.3166  -17.8376  -48.0686 H         1 UNK         0.0600 
    158 H158        1.7095  -18.8926  -47.8593 H         1 UNK         0.0600 
    159 H159        1.8370  -19.3755  -45.1939 H         1 UNK         0.3000 
    160 H160        1.0881  -21.9352  -42.8439 H         1 UNK         0.0600 
    161 H161        3.2864  -21.8175  -44.9771 H         1 UNK         0.0600 
    162 H162        2.2112  -23.1812  -44.6925 H         1 UNK         0.0600 
    163 H163        3.3630  -22.7070  -43.4553 H         1 UNK         0.0600 
    164 H164        3.2824  -20.1304  -43.1249 H         1 UNK         0.3000 
    165 H165        1.8254  -17.3840  -41.4181 H         1 UNK         0.0600 
    166 H166        3.7170  -17.7276  -39.8577 H         1 UNK         0.0600 
    167 H167        2.4632  -18.9177  -39.5495 H         1 UNK         0.0600 
    168 H168        3.9194  -19.3881  -40.4182 H         1 UNK         0.0600 
    169 H169        4.4855  -17.7994  -42.2672 H         1 UNK         0.3000 
    170 H170        5.3162  -16.7997  -44.0130 H         1 UNK         0.0600 
    171 H171        4.7773  -18.8427  -45.3833 H         1 UNK         0.0600 
    172 H172        3.8253  -17.8480  -46.4813 H         1 UNK         0.0600 
    173 H173        5.5615  -17.5968  -46.3420 H         1 UNK         0.0600 
    174 H174        3.2401  -15.2457  -45.4162 H         1 UNK         0.3000 
    175 H175        4.5740  -12.6086  -45.1157 H         1 UNK         0.0600 
    176 H176        6.3387  -13.0663  -47.5741 H         1 UNK         0.0600 
    177 H177        5.6906  -11.5063  -47.0690 H         1 UNK         0.0600 
    178 H178        6.8323  -12.3568  -46.0438 H         1 UNK         0.0600 
    179 H179        2.8177  -12.7021  -46.4254 H         1 UNK         0.3000 
    180 H180        1.9626  -12.8942  -49.2643 H         1 UNK         0.0600 
    181 H181        0.5750  -14.9311  -49.7735 H         1 UNK         0.0600 
    182 H182        1.6363  -15.8913  -48.7467 H         1 UNK         0.0600 
    183 H183        2.2614  -15.1484  -50.2127 H         1 UNK         0.0600 
    184 H184        0.2391  -12.7257  -47.8536 H         1 UNK         0.3000 
    185 H185       -0.6382  -14.3721  -44.7884 H         1 UNK         0.0600 
    186 H186       -1.1347  -12.0328  -44.2870 H         1 UNK         0.0600 
    187 H187        0.6010  -12.2101  -44.4731 H         1 UNK         0.0600 
    188 H188       -0.3492  -11.4915  -45.7692 H         1 UNK         0.0600 
    189 H189       -2.4908  -12.9729  -46.0690 H         1 UNK         0.3000 
    190 H190       -4.8600  -23.1642  -44.3899 H         1 UNK         0.3000 
    191 H191       -4.8707  -25.6779  -45.7379 H         1 UNK         0.0600 
    192 H192       -5.6256  -26.5461  -43.5134 H         1 UNK         0.0600 
    193 H193       -6.4953  -25.0867  -43.9601 H         1 UNK         0.0600 
    194 H194       -5.2044  -25.0111  -42.7616 H         1 UNK         0.0600 
    195 H195       -2.5607  -24.2222  -43.4698 H         1 UNK         0.3000 
    196 H196       -0.9561  -26.5668  -43.0246 H         1 UNK         0.0600 
    197 H197       -0.3650  -23.5897  -42.7003 H         1 UNK         0.0600 
    198 H198       -0.9451  -24.6792  -41.4449 H         1 UNK         0.0600 
    199 H199        0.6732  -24.8791  -42.1034 H         1 UNK         0.0600 
    200 H200       -1.0545  -24.1570  -45.5881 H         1 UNK         0.3000 
    201 H201        1.4228  -25.1160  -46.8828 H         1 UNK         0.0600 
    202 H202       -0.6372  -22.9831  -47.6679 H         1 UNK         0.0600 
    203 H203        0.8225  -23.3589  -48.5756 H         1 UNK         0.0600 
    204 H204        0.9518  -22.6991  -46.9617 H         1 UNK         0.0600 
    205 H205       -1.5667  -26.4397  -46.5261 H         1 UNK         0.3000 
    206 H206       -2.9121  -27.8346  -47.5753 H         1 UNK         0.0600 
    207 H207       -0.8041  -29.1755  -47.7974 H         1 UNK         0.0600 
    208 H208       -1.9327  -29.5034  -49.1012 H         1 UNK         0.0600 
    209 H209       -0.5322  -28.4819  -49.3955 H         1 UNK         0.0600 
    210 H210       -2.9814  -25.1115  -48.4052 H         1 UNK         0.3000 
    211 H211       -3.9066  -23.7003  -49.7692 H         1 UNK         0.0600 
    212 H212       -5.6681  -24.3649  -51.3394 H         1 UNK         0.0600 
    213 H213       -5.8099  -25.3198  -49.8741 H         1 UNK         0.0600 
    214 H214       -5.1201  -26.0337  -51.3328 H         1 UNK         0.0600 
    215 H215       -1.2384  -25.2544  -50.6580 H         1 UNK         0.3000 
    216 H216       -0.9949  -24.6802  -53.4556 H         1 UNK         0.0600 
    217 H217        1.2101  -24.9280  -51.3421 H         1 UNK         0.0600 
    218 H218        1.4003  -25.0900  -53.0812 H         1 UNK         0.0600 
    219 H219        0.4736  -26.2886  -52.1898 H         1 UNK         0.0600 
    220 H220       -0.8094  -22.7138  -50.6242 H         1 UNK         0.3000 
    221 H221        0.5773  -20.4226  -51.5988 H         1 UNK         0.0600 
    222 H222        0.3113  -20.7150  -49.2335 H         1 UNK         0.0600 
    223 H223       -1.4359  -20.8832  -49.3456 H         1 UNK         0.0600 
    224 H224       -0.6790  -19.3222  -49.6436 H         1 UNK         0.0600 
    225 H225       -2.4681  -21.6452  -52.6191 H         1 UNK         0.3000 
    226 H226       -3.7695  -19.2106  -53.3686 H         1 UNK         0.0600 
    227 H227       -3.9480  -22.0172  -54.5906 H         1 UNK         0.0600 
    228 H228       -4.9247  -21.4333  -53.2458 H         1 UNK         0.0600 
    229 H229       -5.1016  -20.7119  -54.8375 H         1 UNK         0.0600 
    230 H230       -0.8937  -20.6563  -54.6069 H         1 UNK         0.3000 
    231 H231       -0.8696  -19.4891  -57.2287 H         1 UNK         0.0600 
    232 H232        1.4152  -20.2022  -55.3091 H         1 UNK         0.0600 
    233 H233        1.5987  -19.8335  -57.0208 H         1 UNK         0.0600 
    234 H234        0.7154  -21.2694  -56.5246 H         1 UNK         0.0600 
    235 H235       -0.3484  -18.1859  -53.9838 H         1 UNK         0.3000 
    236 H236        0.4457  -15.5127  -55.0422 H         1 UNK         0.0600 
    237 H237        1.8551  -16.3877  -53.1996 H         1 UNK         0.0600 
    238 H238        0.9231  -15.0009  -52.6577 H         1 UNK         0.0600 
    239 H239        0.4372  -16.6226  -52.1820 H         1 UNK         0.0600 
    240 H240       -1.8897  -17.1668  -52.8625 H         1 UNK         0.3000 
    241 H241       -3.9166  -16.7733  -52.2076 H         1 UNK         0.0600 
    242 H242       -2.8267  -13.6640  -50.4474 H         1 UNK         0.3800 
    243 H243       -1.9698  -15.0971  -50.9847 H         1 UNK         0.3800 
    244 H244       -4.3731  -16.8316  -54.7108 H         1 UNK         0.0800 
    245 H245       -4.4177  -15.0969  -54.7039 H         1 UNK         0.0800 
    246 H246       -7.6994  -17.9419  -53.0523 H         1 UNK         0.0800 
    247 H247       -6.1008  -18.4280  -53.5577 H         1 UNK         0.0800 
@<TRIPOS>BOND
     1    1    2 1    
     2    1  127 1    
     3    1  128 1    
     4    1  129 1    
     5    2    3 2    
     6    2    4 am   BACKBONE|DICT|INTERRES
     7    4    5 1    
     8    4  130 1    
     9    5    6 1    
    10    5   65 1    
    11    5  131 1    
    12    6    7 1    
    13    6  132 1    
    14    6  133 1    
    15    7    8 1    
    16    8    9 1    
    17    8  134 1    
    18    8  135 1    
    19    9   10 ar   
    20    9   14 ar   
    21   10   11 ar   
    22   10  136 1    
    23   11   12 ar   
    24   11  126 1    
    25   12   13 ar   
    26   12  137 1    
    27   13   14 ar   
    28   13   15 1    
    29   14  138 1    
    30   15   16 1    
    31   15  139 1    
    32   15  140 1    
    33   16   17 1    
    34   17   18 1    
    35   17  141 1    
    36   17  142 1    
    37   18   19 1    
    38   18   67 1    
    39   18  143 1    
    40   19   20 am   BACKBONE|DICT|INTERRES
    41   19  144 1    
    42   20   21 2    
    43   20   22 1    
    44   22   23 1    
    45   22   24 1    
    46   22  145 1    
    47   23  146 1    
    48   23  147 1    
    49   23  148 1    
    50   24   25 am   BACKBONE|DICT|INTERRES
    51   24  149 1    
    52   25   26 2    
    53   25   27 1    
    54   27   28 1    
    55   27   29 1    
    56   27  150 1    
    57   28  151 1    
    58   28  152 1    
    59   28  153 1    
    60   29   30 am   BACKBONE|DICT|INTERRES
    61   29  154 1    
    62   30   31 2    
    63   30   32 1    
    64   32   33 1    
    65   32   34 1    
    66   32  155 1    
    67   33  156 1    
    68   33  157 1    
    69   33  158 1    
    70   34   35 am   BACKBONE|DICT|INTERRES
    71   34  159 1    
    72   35   36 2    
    73   35   37 1    
    74   37   38 1    
    75   37   39 1    
    76   37  160 1    
    77   38  161 1    
    78   38  162 1    
    79   38  163 1    
    80   39   40 am   BACKBONE|DICT|INTERRES
    81   39  164 1    
    82   40   41 2    
    83   40   42 1    
    84   42   43 1    
    85   42   44 1    
    86   42  165 1    
    87   43  166 1    
    88   43  167 1    
    89   43  168 1    
    90   44   45 am   BACKBONE|DICT|INTERRES
    91   44  169 1    
    92   45   46 2    
    93   45   47 1    
    94   47   48 1    
    95   47   49 1    
    96   47  170 1    
    97   48  171 1    
    98   48  172 1    
    99   48  173 1    
   100   49   50 am   BACKBONE|DICT|INTERRES
   101   49  174 1    
   102   50   51 2    
   103   50   52 1    
   104   52   53 1    
   105   52   54 1    
   106   52  175 1    
   107   53  176 1    
   108   53  177 1    
   109   53  178 1    
   110   54   55 am   BACKBONE|DICT|INTERRES
   111   54  179 1    
   112   55   56 2    
   113   55   57 1    
   114   57   58 1    
   115   57   59 1    
   116   57  180 1    
   117   58  181 1    
   118   58  182 1    
   119   58  183 1    
   120   59   60 am   BACKBONE|DICT|INTERRES
   121   59  184 1    
   122   60   61 2    
   123   60   62 1    
   124   62   63 1    
   125   62   64 1    
   126   62  185 1    
   127   63  186 1    
   128   63  187 1    
   129   63  188 1    
   130   64   65 am   BACKBONE|DICT|INTERRES
   131   64  189 1    
   132   65   66 2    
   133   67   68 2    
   134   67   69 am   BACKBONE|DICT|INTERRES
   135   69   70 1    
   136   69  190 1    
   137   70   71 1    
   138   70   72 1    
   139   70  191 1    
   140   71  192 1    
   141   71  193 1    
   142   71  194 1    
   143   72   73 2    
   144   72   74 am   BACKBONE|DICT|INTERRES
   145   74   75 1    
   146   74  195 1    
   147   75   76 1    
   148   75   77 1    
   149   75  196 1    
   150   76  197 1    
   151   76  198 1    
   152   76  199 1    
   153   77   78 2    
   154   77   79 am   BACKBONE|DICT|INTERRES
   155   79   80 1    
   156   79  200 1    
   157   80   81 1    
   158   80   82 1    
   159   80  201 1    
   160   81  202 1    
   161   81  203 1    
   162   81  204 1    
   163   82   83 2    
   164   82   84 am   BACKBONE|DICT|INTERRES
   165   84   85 1    
   166   84  205 1    
   167   85   86 1    
   168   85   87 1    
   169   85  206 1    
   170   86  207 1    
   171   86  208 1    
   172   86  209 1    
   173   87   88 2    
   174   87   89 am   BACKBONE|DICT|INTERRES
   175   89   90 1    
   176   89  210 1    
   177   90   91 1    
   178   90   92 1    
   179   90  211 1    
   180   91  212 1    
   181   91  213 1    
   182   91  214 1    
   183   92   93 2    
   184   92   94 am   BACKBONE|DICT|INTERRES
   185   94   95 1    
   186   94  215 1    
   187   95   96 1    
   188   95   97 1    
   189   95  216 1    
   190   96  217 1    
   191   96  218 1    
   192   96  219 1    
   193   97   98 2    
   194   97   99 am   BACKBONE|DICT|INTERRES
   195   99  100 1    
   196   99  220 1    
   197  100  101 1    
   198  100  102 1    
   199  100  221 1    
   200  101  222 1    
   201  101  223 1    
   202  101  224 1    
   203  102  103 2    
   204  102  104 am   BACKBONE|DICT|INTERRES
   205  104  105 1    
   206  104  225 1    
   207  105  106 1    
   208  105  107 1    
   209  105  226 1    
   210  106  227 1    
   211  106  228 1    
   212  106  229 1    
   213  107  108 2    
   214  107  109 am   BACKBONE|DICT|INTERRES
   215  109  110 1    
   216  109  230 1    
   217  110  111 1    
   218  110  112 1    
   219  110  231 1    
   220  111  232 1    
   221  111  233 1    
   222  111  234 1    
   223  112  113 2    
   224  112  114 am   BACKBONE|DICT|INTERRES
   225  114  115 1    
   226  114  235 1    
   227  115  116 1    
   228  115  117 1    
   229  115  236 1    
   230  116  237 1    
   231  116  238 1    
   232  116  239 1    
   233  117  118 2    
   234  117  119 am   BACKBONE|DICT|INTERRES
   235  119  120 1    
   236  119  240 1    
   237  120  121 1    
   238  120  124 1    
   239  120  241 1    
   240  121  122 am   BACKBONE|DICT|INTERRES
   241  121  123 2    
   242  122  242 1    
   243  122  243 1    
   244  124  125 1    
   245  124  244 1    
   246  124  245 1    
   247  125  126 1    
   248  126  246 1    
   249  126  247 1    
@<TRIPOS>SUBSTRUCTURE
     1 UNK         1 GROUP             0       ****    0 ROOT    
