@<TRIPOS>MOLECULE
3R540
247   249    1
SMALL
USER_CHARGES


@<TRIPOS>ATOM
      1 CA         -1.1592  -11.9374  -50.4691 C.3       0 UNK        -0.1800 
      2 C          -1.0187  -12.7275  -49.1760 C.2       0 UNK         0.5000 
      3 O           0.0968  -12.9174  -48.6930 O.2       0 UNK        -0.5000 
      4 N          -2.1474  -13.1799  -48.6129 N.am      1 UNK        -0.5000 
      5 CA         -2.2062  -13.9638  -47.3713 C.3       1 UNK         0.1400 
      6 C6         -3.5663  -14.6952  -47.2242 C.3       23 UNK        -0.0398 
      7 S7         -3.3896  -16.3362  -46.4436 S.3       23 UNK        -0.2404 
      8 C8         -3.5483  -17.4383  -47.8849 C.3       23 UNK        -0.0205 
      9 C9         -2.3579  -17.3292  -48.8256 C.ar      23 UNK        -0.0193 
     10 C10        -2.4627  -16.5924  -50.0077 C.ar      23 UNK        -0.1150 
     11 C11        -1.3718  -16.4748  -50.8757 C.ar      23 UNK        -0.0193 
     12 C12        -0.1697  -17.1046  -50.5415 C.ar      23 UNK        -0.1150 
     13 C13        -0.0426  -17.8428  -49.3610 C.ar      23 UNK        -0.0193 
     14 C14        -1.1486  -17.9537  -48.5082 C.ar      23 UNK        -0.1150 
     15 C15         1.3231  -18.4395  -49.0175 C.3       23 UNK        -0.0205 
     16 S16         1.2895  -19.8978  -47.9235 S.3       23 UNK        -0.2404 
     17 C17         0.6835  -21.1704  -49.0810 C.3       23 UNK        -0.0398 
     18 CA         -0.1252  -22.3028  -48.4071 C.3       11 UNK         0.1400 
     19 N           0.6016  -22.9281  -47.3001 N.am      11 UNK        -0.5000 
     20 C           0.2408  -24.0647  -46.6915 C.2       10 UNK         0.5000 
     21 O          -0.7314  -24.7405  -47.0327 O.2       10 UNK        -0.5000 
     22 CA          1.0627  -24.4808  -45.4544 C.3       10 UNK         0.1400 
     23 CB          2.2162  -25.4056  -45.8675 C.3       10 UNK        -0.1800 
     24 N           1.5955  -23.3584  -44.6668 N.am      10 UNK        -0.5000 
     25 C           0.8574  -22.3684  -44.1454 C.2       9 UNK         0.5000 
     26 O          -0.3564  -22.2672  -44.3344 O.2       9 UNK        -0.5000 
     27 CA          1.5909  -21.3048  -43.3079 C.3       9 UNK         0.1400 
     28 CB          2.5054  -20.4437  -44.1908 C.3       9 UNK        -0.1800 
     29 N           0.6206  -20.4344  -42.6431 N.am      9 UNK        -0.5000 
     30 C          -0.0340  -20.7567  -41.5185 C.2       8 UNK         0.5000 
     31 O           0.2467  -21.7445  -40.8367 O.2       8 UNK        -0.5000 
     32 CA         -1.2265  -19.8647  -41.1032 C.3       8 UNK         0.1400 
     33 CB         -1.3554  -19.7201  -39.5721 C.3       8 UNK        -0.1800 
     34 N          -1.2670  -18.5542  -41.7637 N.am      8 UNK        -0.5000 
     35 C          -0.3878  -17.5509  -41.6369 C.2       7 UNK         0.5000 
     36 O           0.5998  -17.5771  -40.9002 O.2       7 UNK        -0.5000 
     37 CA         -0.6513  -16.3168  -42.5183 C.3       7 UNK         0.1400 
     38 CB         -0.7064  -15.0308  -41.6776 C.3       7 UNK        -0.1800 
     39 N           0.3663  -16.1655  -43.5539 N.am      7 UNK        -0.5000 
     40 C           0.6402  -17.0524  -44.5196 C.2       6 UNK         0.5000 
     41 O           0.0642  -18.1347  -44.6363 O.2       6 UNK        -0.5000 
     42 CA          1.7506  -16.6734  -45.5114 C.3       6 UNK         0.1400 
     43 CB          1.2239  -15.6761  -46.5533 C.3       6 UNK        -0.1800 
     44 N           2.8999  -16.0745  -44.8342 N.am      6 UNK        -0.5000 
     45 C           4.1096  -16.6407  -44.7262 C.2       5 UNK         0.5000 
     46 O           4.3796  -17.7614  -45.1580 O.2       5 UNK        -0.5000 
     47 CA          5.2297  -15.8173  -44.0557 C.3       5 UNK         0.1400 
     48 CB          6.2405  -15.3346  -45.1085 C.3       5 UNK        -0.1800 
     49 N           4.7362  -14.6524  -43.3216 N.am      5 UNK        -0.5000 
     50 C           4.2043  -14.6901  -42.0934 C.2       4 UNK         0.5000 
     51 O           4.1341  -15.7117  -41.4105 O.2       4 UNK        -0.5000 
     52 CA          3.6398  -13.3642  -41.5414 C.3       4 UNK         0.1400 
     53 CB          4.6622  -12.6912  -40.6129 C.3       4 UNK        -0.1800 
     54 N           3.2246  -12.4018  -42.5716 N.am      4 UNK        -0.5000 
     55 C           2.2559  -12.6182  -43.4697 C.2       3 UNK         0.5000 
     56 O           1.6647  -13.6929  -43.5855 O.2       3 UNK        -0.5000 
     57 CA          1.9134  -11.4707  -44.4238 C.3       3 UNK         0.1400 
     58 CB          2.7016  -11.5987  -45.7380 C.3       3 UNK        -0.1800 
     59 N           0.4840  -11.5340  -44.6981 N.am      3 UNK        -0.5000 
     60 C          -0.3103  -10.5002  -44.9833 C.2       2 UNK         0.5000 
     61 O           0.1011   -9.3460  -45.1183 O.2       2 UNK        -0.5000 
     62 CA         -1.8126  -10.8191  -45.1470 C.3       2 UNK         0.1400 
     63 CB         -2.6595   -9.5654  -45.4324 C.3       2 UNK        -0.1800 
     64 N          -2.0588  -11.7971  -46.2073 N.am      2 UNK        -0.5000 
     65 C          -1.8815  -13.1228  -46.1146 C.2       1 UNK         0.5000 
     66 O          -1.4769  -13.6772  -45.0927 O.2       1 UNK        -0.5000 
     67 C          -1.5532  -21.8490  -48.0251 C.2       11 UNK         0.5000 
     68 O          -2.4370  -21.8686  -48.8811 O.2       11 UNK        -0.5000 
     69 N          -1.7649  -21.4871  -46.7541 N.am      12 UNK        -0.5000 
     70 CA         -3.0664  -21.1316  -46.1985 C.3       12 UNK         0.1400 
     71 CB         -2.8790  -20.0076  -45.1649 C.3       12 UNK        -0.1800 
     72 C          -3.7378  -22.3488  -45.5439 C.2       12 UNK         0.5000 
     73 O          -4.9305  -22.5698  -45.7481 O.2       12 UNK        -0.5000 
     74 N          -2.9657  -23.1011  -44.7508 N.am      13 UNK        -0.5000 
     75 CA         -3.4546  -24.1725  -43.8875 C.3       13 UNK         0.1400 
     76 CB         -2.3983  -24.4670  -42.8109 C.3       13 UNK        -0.1800 
     77 C          -3.8339  -25.4600  -44.6378 C.2       13 UNK         0.5000 
     78 O          -4.8154  -26.1002  -44.2577 O.2       13 UNK        -0.5000 
     79 N          -3.0524  -25.8295  -45.6611 N.am      14 UNK        -0.5000 
     80 CA         -3.2150  -27.0796  -46.4048 C.3       14 UNK         0.1400 
     81 CB         -1.9029  -27.8811  -46.3580 C.3       14 UNK        -0.1800 
     82 C          -3.6457  -26.8185  -47.8538 C.2       14 UNK         0.5000 
     83 O          -4.5873  -27.4567  -48.3258 O.2       14 UNK        -0.5000 
     84 N          -2.9609  -25.8906  -48.5378 N.am      15 UNK        -0.5000 
     85 CA         -3.2072  -25.5824  -49.9515 C.3       15 UNK         0.1400 
     86 CB         -1.9406  -24.9669  -50.5624 C.3       15 UNK        -0.1800 
     87 C          -4.4247  -24.6615  -50.1755 C.2       15 UNK         0.5000 
     88 O          -4.8988  -24.5582  -51.3090 O.2       15 UNK        -0.5000 
     89 N          -4.8960  -24.0067  -49.1020 N.am      16 UNK        -0.5000 
     90 CA         -6.0761  -23.1366  -49.0358 C.3       16 UNK         0.1400 
     91 CB         -7.3596  -23.9842  -49.1548 C.3       16 UNK        -0.1800 
     92 C          -6.0415  -21.9649  -50.0396 C.2       16 UNK         0.5000 
     93 O          -7.0791  -21.6049  -50.5986 O.2       16 UNK        -0.5000 
     94 N          -4.8398  -21.4208  -50.2853 N.am      17 UNK        -0.5000 
     95 CA         -4.4730  -20.3703  -51.2447 C.3       17 UNK         0.1400 
     96 CB         -5.2408  -19.0681  -50.9525 C.3       17 UNK        -0.1800 
     97 C          -4.6127  -20.7845  -52.7265 C.2       17 UNK         0.5000 
     98 O          -3.7586  -20.4261  -53.5385 O.2       17 UNK        -0.5000 
     99 N          -5.6673  -21.5392  -53.0549 N.am      18 UNK        -0.5000 
    100 CA        -6.0150  -22.0146  -54.3908 C.3       18 UNK         0.1400 
    101 CB        -7.3815  -22.7148  -54.3385 C.3       18 UNK        -0.1800 
    102 C         -4.9486  -22.9370  -55.0018 C.2       18 UNK         0.5000 
    103 O         -4.4890  -22.6730  -56.1133 O.2       18 UNK        -0.5000 
    104 N         -4.5347  -23.9752  -54.2595 N.am      19 UNK        -0.5000 
    105 CA        -3.5105  -24.9253  -54.7104 C.3       19 UNK         0.1400 
    106 CB        -3.6607  -26.2569  -53.9601 C.3       19 UNK        -0.1800 
    107 C         -2.0791  -24.3613  -54.6028 C.2       19 UNK         0.5000 
    108 O         -1.1665  -24.9077  -55.2224 O.2       19 UNK        -0.5000 
    109 N         -1.9145  -23.2555  -53.8617 N.am      20 UNK        -0.5000 
    110 CA        -0.6955  -22.4438  -53.8284 C.3       20 UNK         0.1400 
    111 CB        -0.6278  -21.6905  -52.4898 C.3       20 UNK        -0.1800 
    112 C         -0.6021  -21.4640  -55.0194 C.2       20 UNK         0.5000 
    113 O          0.4243  -20.7997  -55.1656 O.2       20 UNK        -0.5000 
    114 N         -1.6615  -21.3926  -55.8422 N.am      21 UNK        -0.5000 
    115 CA        -1.8223  -20.5499  -57.0295 C.3       21 UNK         0.1400 
    116 CB        -0.7979  -20.9260  -58.1212 C.3       21 UNK        -0.1800 
    117 C         -1.8480  -19.0421  -56.7060 C.2       21 UNK         0.5000 
    118 O         -1.3407  -18.2347  -57.4874 O.2       21 UNK        -0.5000 
    119 N         -2.4506  -18.6857  -55.5640 N.am      22 UNK        -0.5000 
    120 CA        -2.7210  -17.2997  -55.1624 C.3       22 UNK         0.1400 
    121 C         -3.7595  -16.6180  -56.1011 C.2       22 UNK         0.5000 
    122 N         -3.5075  -15.3917  -56.5386 N.am      22 UNK        -0.7600 
    123 O         -4.8052  -17.1844  -56.4127 O.2       22 UNK        -0.5000 
    124 C124       -3.1660  -17.2467  -53.6809 C.3       23 UNK        -0.0398 
    125 S125       -3.0661  -15.5739  -52.9598 S.3       23 UNK        -0.2404 
    126 C126       -1.4354  -15.6232  -52.1427 C.3       23 UNK        -0.0205 
    127 H127       -0.9520  -10.8828  -50.2878 H         1 UNK         0.0600 
    128 H128       -0.4493  -12.3009  -51.2119 H         1 UNK         0.0600 
    129 H129       -2.1618  -12.0237  -50.8890 H         1 UNK         0.0600 
    130 H130       -3.0329  -12.9870  -49.0588 H         1 UNK         0.3000 
    131 H131       -1.4231  -14.7180  -47.4563 H         1 UNK         0.0600 
    132 H132       -4.2831  -14.1060  -46.6490 H         1 UNK         0.0800 
    133 H133       -4.0352  -14.8336  -48.1986 H         1 UNK         0.0800 
    134 H134       -4.4777  -17.2091  -48.4071 H         1 UNK         0.0800 
    135 H135       -3.6429  -18.4677  -47.5432 H         1 UNK         0.0800 
    136 H136       -3.3932  -16.0957  -50.2404 H         1 UNK         0.1150 
    137 H137        0.6854  -16.9964  -51.1942 H         1 UNK         0.1150 
    138 H138       -1.0684  -18.4984  -47.5783 H         1 UNK         0.1150 
    139 H139        1.8526  -18.7106  -49.9323 H         1 UNK         0.0800 
    140 H140        1.9238  -17.6660  -48.5401 H         1 UNK         0.0800 
    141 H141        0.0896  -20.6958  -49.8638 H         1 UNK         0.0800 
    142 H142        1.5510  -21.5959  -49.5870 H         1 UNK         0.0800 
    143 H143       -0.2407  -23.0815  -49.1594 H         1 UNK         0.0600 
    144 H144        1.3940  -22.4149  -46.9423 H         1 UNK         0.3000 
    145 H145        0.3942  -25.0466  -44.8032 H         1 UNK         0.0600 
    146 H146        2.7391  -25.7987  -44.9955 H         1 UNK         0.0600 
    147 H147        1.8471  -26.2610  -46.4354 H         1 UNK         0.0600 
    148 H148        2.9446  -24.8863  -46.4915 H         1 UNK         0.0600 
    149 H149        2.5885  -23.3740  -44.4837 H         1 UNK         0.3000 
    150 H150        2.2017  -21.8112  -42.5579 H         1 UNK         0.0600 
    151 H151        3.3060  -21.0369  -44.6331 H         1 UNK         0.0600 
    152 H152        2.9750  -19.6484  -43.6117 H         1 UNK         0.0600 
    153 H153        1.9551  -19.9785  -45.0078 H         1 UNK         0.0600 
    154 H154        0.3010  -19.6355  -43.1801 H         1 UNK         0.3000 
    155 H155       -2.1147  -20.3935  -41.4519 H         1 UNK         0.0600 
    156 H156       -2.2105  -19.0994  -39.3045 H         1 UNK         0.0600 
    157 H157       -0.4644  -19.2742  -39.1296 H         1 UNK         0.0600 
    158 H158       -1.5017  -20.6912  -39.0978 H         1 UNK         0.0600 
    159 H159       -2.0164  -18.4369  -42.4312 H         1 UNK         0.3000 
    160 H160       -1.6148  -16.4322  -43.0194 H         1 UNK         0.0600 
    161 H161        0.2515  -14.8215  -41.1995 H         1 UNK         0.0600 
    162 H162       -1.4589  -15.1083  -40.8922 H         1 UNK         0.0600 
    163 H163       -0.9654  -14.1698  -42.2944 H         1 UNK         0.0600 
    164 H164        0.8699  -15.2816  -43.5465 H         1 UNK         0.3000 
    165 H165        2.0448  -17.5845  -46.0350 H         1 UNK         0.0600 
    166 H166        0.9179  -14.7339  -46.0979 H         1 UNK         0.0600 
    167 H167        1.9798  -15.4508  -47.3054 H         1 UNK         0.0600 
    168 H168        0.3597  -16.0852  -47.0731 H         1 UNK         0.0600 
    169 H169        2.7414  -15.1703  -44.4051 H         1 UNK         0.3000 
    170 H170        5.7518  -16.4789  -43.3612 H         1 UNK         0.0600 
    171 H171        6.6654  -16.1756  -45.6583 H         1 UNK         0.0600 
    172 H172        5.7760  -14.6681  -45.8364 H         1 UNK         0.0600 
    173 H173        7.0698  -14.8008  -44.6441 H         1 UNK         0.0600 
    174 H174        4.7633  -13.7662  -43.8038 H         1 UNK         0.3000 
    175 H175        2.7560  -13.6145  -40.9505 H         1 UNK         0.0600 
    176 H176        5.5591  -12.3887  -41.1549 H         1 UNK         0.0600 
    177 H177        4.2410  -11.8055  -40.1370 H         1 UNK         0.0600 
    178 H178        4.9730  -13.3687  -39.8163 H         1 UNK         0.0600 
    179 H179        3.6809  -11.5009  -42.5503 H         1 UNK         0.3000 
    180 H180        2.1555  -10.5234  -43.9374 H         1 UNK         0.0600 
    181 H181        2.4758  -12.5345  -46.2518 H         1 UNK         0.0600 
    182 H182        3.7766  -11.5717  -45.5562 H         1 UNK         0.0600 
    183 H183        2.4664  -10.7811  -46.4195 H         1 UNK         0.0600 
    184 H184        0.0685  -12.4574  -44.5988 H         1 UNK         0.3000 
    185 H185       -2.1553  -11.2387  -44.1987 H         1 UNK         0.0600 
    186 H186       -2.3773   -9.0938  -46.3745 H         1 UNK         0.0600 
    187 H187       -3.7206   -9.8100  -45.4845 H         1 UNK         0.0600 
    188 H188       -2.5387   -8.8228  -44.6426 H         1 UNK         0.0600 
    189 H189       -2.3514  -11.4239  -47.0981 H         1 UNK         0.3000 
    190 H190       -1.0009  -21.5525  -46.0909 H         1 UNK         0.3000 
    191 H191       -3.7241  -20.7653  -46.9892 H         1 UNK         0.0600 
    192 H192       -3.8409  -19.6610  -44.7858 H         1 UNK         0.0600 
    193 H193       -2.3713  -19.1484  -45.6014 H         1 UNK         0.0600 
    194 H194       -2.2853  -20.3334  -44.3102 H         1 UNK         0.0600 
    195 H195       -1.9918  -22.8291  -44.6243 H         1 UNK         0.3000 
    196 H196       -4.3528  -23.8117  -43.3814 H         1 UNK         0.0600 
    197 H197       -2.7477  -25.2339  -42.1185 H         1 UNK         0.0600 
    198 H198       -2.1738  -23.5761  -42.2237 H         1 UNK         0.0600 
    199 H199       -1.4646  -24.8202  -43.2487 H         1 UNK         0.0600 
    200 H200       -2.2759  -25.2383  -45.9381 H         1 UNK         0.3000 
    201 H201       -3.9877  -27.7018  -45.9484 H         1 UNK         0.0600 
    202 H202       -1.6187  -28.1073  -45.3303 H         1 UNK         0.0600 
    203 H203       -1.0753  -27.3447  -46.8219 H         1 UNK         0.0600 
    204 H204       -2.0096  -28.8317  -46.8820 H         1 UNK         0.0600 
    205 H205       -2.1773  -25.4241  -48.0889 H         1 UNK         0.3000 
    206 H206       -3.4035  -26.5217  -50.4727 H         1 UNK         0.0600 
    207 H207       -1.0330  -25.4416  -50.1889 H         1 UNK         0.0600 
    208 H208       -1.9361  -25.0743  -51.6450 H         1 UNK         0.0600 
    209 H209       -1.8829  -23.9025  -50.3553 H         1 UNK         0.0600 
    210 H210       -4.4059  -24.1424  -48.2300 H         1 UNK         0.3000 
    211 H211       -6.0756  -22.6798  -48.0474 H         1 UNK         0.0600 
    212 H212       -7.4564  -24.4322  -50.1444 H         1 UNK         0.0600 
    213 H213       -8.2493  -23.3782  -48.9798 H         1 UNK         0.0600 
    214 H214       -7.3683  -24.7895  -48.4202 H         1 UNK         0.0600 
    215 H215       -4.0452  -21.7926  -49.7668 H         1 UNK         0.3000 
    216 H216       -3.4148  -20.1732  -51.0660 H         1 UNK         0.0600 
    217 H217       -6.2751  -19.1180  -51.2941 H         1 UNK         0.0600 
    218 H218       -4.7725  -18.2175  -51.4447 H         1 UNK         0.0600 
    219 H219       -5.2555  -18.8534  -49.8853 H         1 UNK         0.0600 
    220 H220       -6.3195  -21.7587  -52.3071 H         1 UNK         0.3000 
    221 H221       -6.1055  -21.1396  -55.0377 H         1 UNK         0.0600 
    222 H222       -7.3724  -23.5671  -53.6575 H         1 UNK         0.0600 
    223 H223       -8.1611  -22.0300  -54.0043 H         1 UNK         0.0600 
    224 H224       -7.6719  -23.0821  -55.3237 H         1 UNK         0.0600 
    225 H225       -4.9109  -24.1141  -53.3259 H         1 UNK         0.3000 
    226 H226       -3.6823  -25.1360  -55.7684 H         1 UNK         0.0600 
    227 H227       -4.6497  -26.6866  -54.1195 H         1 UNK         0.0600 
    228 H228       -2.9300  -26.9872  -54.3099 H         1 UNK         0.0600 
    229 H229       -3.5189  -26.1425  -52.8889 H         1 UNK         0.0600 
    230 H230       -2.7259  -22.8669  -53.4037 H         1 UNK         0.3000 
    231 H231        0.1722  -23.1042  -53.8844 H         1 UNK         0.0600 
    232 H232       -1.4527  -20.9890  -52.3731 H         1 UNK         0.0600 
    233 H233       -0.6506  -22.3815  -51.6490 H         1 UNK         0.0600 
    234 H234        0.2973  -21.1183  -52.4115 H         1 UNK         0.0600 
    235 H235       -2.4691  -21.9612  -55.6211 H         1 UNK         0.3000 
    236 H236       -2.8123  -20.7818  -57.4245 H         1 UNK         0.0600 
    237 H237       -0.8177  -21.9960  -58.3281 H         1 UNK         0.0600 
    238 H238       -1.0189  -20.4120  -59.0572 H         1 UNK         0.0600 
    239 H239        0.2193  -20.6576  -57.8350 H         1 UNK         0.0600 
    240 H240       -2.8575  -19.4073  -54.9759 H         1 UNK         0.3000 
    241 H241       -1.7745  -16.7618  -55.2468 H         1 UNK         0.0600 
    242 H242       -2.6637  -14.9037  -56.2808 H         1 UNK         0.3800 
    243 H243       -4.1781  -14.9369  -57.1385 H         1 UNK         0.3800 
    244 H244       -4.1904  -17.6082  -53.5837 H         1 UNK         0.0800 
    245 H245       -2.5537  -17.9185  -53.0772 H         1 UNK         0.0800 
    246 H246       -1.1552  -14.6041  -51.8776 H         1 UNK         0.0800 
    247 H247       -0.6954  -15.9656  -52.8679 H         1 UNK         0.0800 
@<TRIPOS>BOND
     1    1    2 1    
     2    1  127 1    
     3    1  128 1    
     4    1  129 1    
     5    2    3 2    
     6    2    4 am   BACKBONE|DICT|INTERRES
     7    4    5 1    
     8    4  130 1    
     9    5    6 1    
    10    5   65 1    
    11    5  131 1    
    12    6    7 1    
    13    6  132 1    
    14    6  133 1    
    15    7    8 1    
    16    8    9 1    
    17    8  134 1    
    18    8  135 1    
    19    9   10 ar   
    20    9   14 ar   
    21   10   11 ar   
    22   10  136 1    
    23   11   12 ar   
    24   11  126 1    
    25   12   13 ar   
    26   12  137 1    
    27   13   14 ar   
    28   13   15 1    
    29   14  138 1    
    30   15   16 1    
    31   15  139 1    
    32   15  140 1    
    33   16   17 1    
    34   17   18 1    
    35   17  141 1    
    36   17  142 1    
    37   18   19 1    
    38   18   67 1    
    39   18  143 1    
    40   19   20 am   BACKBONE|DICT|INTERRES
    41   19  144 1    
    42   20   21 2    
    43   20   22 1    
    44   22   23 1    
    45   22   24 1    
    46   22  145 1    
    47   23  146 1    
    48   23  147 1    
    49   23  148 1    
    50   24   25 am   BACKBONE|DICT|INTERRES
    51   24  149 1    
    52   25   26 2    
    53   25   27 1    
    54   27   28 1    
    55   27   29 1    
    56   27  150 1    
    57   28  151 1    
    58   28  152 1    
    59   28  153 1    
    60   29   30 am   BACKBONE|DICT|INTERRES
    61   29  154 1    
    62   30   31 2    
    63   30   32 1    
    64   32   33 1    
    65   32   34 1    
    66   32  155 1    
    67   33  156 1    
    68   33  157 1    
    69   33  158 1    
    70   34   35 am   BACKBONE|DICT|INTERRES
    71   34  159 1    
    72   35   36 2    
    73   35   37 1    
    74   37   38 1    
    75   37   39 1    
    76   37  160 1    
    77   38  161 1    
    78   38  162 1    
    79   38  163 1    
    80   39   40 am   BACKBONE|DICT|INTERRES
    81   39  164 1    
    82   40   41 2    
    83   40   42 1    
    84   42   43 1    
    85   42   44 1    
    86   42  165 1    
    87   43  166 1    
    88   43  167 1    
    89   43  168 1    
    90   44   45 am   BACKBONE|DICT|INTERRES
    91   44  169 1    
    92   45   46 2    
    93   45   47 1    
    94   47   48 1    
    95   47   49 1    
    96   47  170 1    
    97   48  171 1    
    98   48  172 1    
    99   48  173 1    
   100   49   50 am   BACKBONE|DICT|INTERRES
   101   49  174 1    
   102   50   51 2    
   103   50   52 1    
   104   52   53 1    
   105   52   54 1    
   106   52  175 1    
   107   53  176 1    
   108   53  177 1    
   109   53  178 1    
   110   54   55 am   BACKBONE|DICT|INTERRES
   111   54  179 1    
   112   55   56 2    
   113   55   57 1    
   114   57   58 1    
   115   57   59 1    
   116   57  180 1    
   117   58  181 1    
   118   58  182 1    
   119   58  183 1    
   120   59   60 am   BACKBONE|DICT|INTERRES
   121   59  184 1    
   122   60   61 2    
   123   60   62 1    
   124   62   63 1    
   125   62   64 1    
   126   62  185 1    
   127   63  186 1    
   128   63  187 1    
   129   63  188 1    
   130   64   65 am   BACKBONE|DICT|INTERRES
   131   64  189 1    
   132   65   66 2    
   133   67   68 2    
   134   67   69 am   BACKBONE|DICT|INTERRES
   135   69   70 1    
   136   69  190 1    
   137   70   71 1    
   138   70   72 1    
   139   70  191 1    
   140   71  192 1    
   141   71  193 1    
   142   71  194 1    
   143   72   73 2    
   144   72   74 am   BACKBONE|DICT|INTERRES
   145   74   75 1    
   146   74  195 1    
   147   75   76 1    
   148   75   77 1    
   149   75  196 1    
   150   76  197 1    
   151   76  198 1    
   152   76  199 1    
   153   77   78 2    
   154   77   79 am   BACKBONE|DICT|INTERRES
   155   79   80 1    
   156   79  200 1    
   157   80   81 1    
   158   80   82 1    
   159   80  201 1    
   160   81  202 1    
   161   81  203 1    
   162   81  204 1    
   163   82   83 2    
   164   82   84 am   BACKBONE|DICT|INTERRES
   165   84   85 1    
   166   84  205 1    
   167   85   86 1    
   168   85   87 1    
   169   85  206 1    
   170   86  207 1    
   171   86  208 1    
   172   86  209 1    
   173   87   88 2    
   174   87   89 am   BACKBONE|DICT|INTERRES
   175   89   90 1    
   176   89  210 1    
   177   90   91 1    
   178   90   92 1    
   179   90  211 1    
   180   91  212 1    
   181   91  213 1    
   182   91  214 1    
   183   92   93 2    
   184   92   94 am   BACKBONE|DICT|INTERRES
   185   94   95 1    
   186   94  215 1    
   187   95   96 1    
   188   95   97 1    
   189   95  216 1    
   190   96  217 1    
   191   96  218 1    
   192   96  219 1    
   193   97   98 2    
   194   97   99 am   BACKBONE|DICT|INTERRES
   195   99  100 1    
   196   99  220 1    
   197  100  101 1    
   198  100  102 1    
   199  100  221 1    
   200  101  222 1    
   201  101  223 1    
   202  101  224 1    
   203  102  103 2    
   204  102  104 am   BACKBONE|DICT|INTERRES
   205  104  105 1    
   206  104  225 1    
   207  105  106 1    
   208  105  107 1    
   209  105  226 1    
   210  106  227 1    
   211  106  228 1    
   212  106  229 1    
   213  107  108 2    
   214  107  109 am   BACKBONE|DICT|INTERRES
   215  109  110 1    
   216  109  230 1    
   217  110  111 1    
   218  110  112 1    
   219  110  231 1    
   220  111  232 1    
   221  111  233 1    
   222  111  234 1    
   223  112  113 2    
   224  112  114 am   BACKBONE|DICT|INTERRES
   225  114  115 1    
   226  114  235 1    
   227  115  116 1    
   228  115  117 1    
   229  115  236 1    
   230  116  237 1    
   231  116  238 1    
   232  116  239 1    
   233  117  118 2    
   234  117  119 am   BACKBONE|DICT|INTERRES
   235  119  120 1    
   236  119  240 1    
   237  120  121 1    
   238  120  124 1    
   239  120  241 1    
   240  121  122 am   BACKBONE|DICT|INTERRES
   241  121  123 2    
   242  122  242 1    
   243  122  243 1    
   244  124  125 1    
   245  124  244 1    
   246  124  245 1    
   247  125  126 1    
   248  126  246 1    
   249  126  247 1    
@<TRIPOS>SUBSTRUCTURE
     1 UNK         1 GROUP             0       ****    0 ROOT    
