@<TRIPOS>MOLECULE
3R540
247   249    1
SMALL
USER_CHARGES


@<TRIPOS>ATOM
      1 CA          6.4916  -12.1012  -53.6564 C.3       0 UNK        -0.1800 
      2 C           6.2751  -12.1198  -52.1496 C.2       0 UNK         0.5000 
      3 O           6.9378  -11.3754  -51.4262 O.2       0 UNK        -0.5000 
      4 N           5.3582  -12.9718  -51.6744 N.am      1 UNK        -0.5000 
      5 CA          4.9656  -13.0791  -50.2670 C.3       1 UNK         0.1400 
      6 C6          4.1862  -14.3916  -50.0070 C.3       23 UNK        -0.0398 
      7 S7          4.0230  -14.7899  -48.2306 S.3       23 UNK        -0.2404 
      8 C8          3.7488  -16.5922  -48.2987 C.3       23 UNK        -0.0205 
      9 C9          2.5052  -17.0215  -49.0750 C.ar      23 UNK        -0.0193 
     10 C10         1.3378  -16.2479  -49.0914 C.ar      23 UNK        -0.1150 
     11 C11         0.2030  -16.6793  -49.7813 C.ar      23 UNK        -0.0193 
     12 C12         0.2358  -17.9010  -50.4518 C.ar      23 UNK        -0.1150 
     13 C13         1.3811  -18.6992  -50.4279 C.ar      23 UNK        -0.0193 
     14 C14         2.5173  -18.2445  -49.7520 C.ar      23 UNK        -0.1150 
     15 C15         1.3705  -20.0624  -51.1089 C.3       23 UNK        -0.0205 
     16 S16         1.7884  -21.4350  -49.9792 S.3       23 UNK        -0.2404 
     17 C17         0.8352  -21.0279  -48.4758 C.3       23 UNK        -0.0398 
     18 CA          0.4191  -22.2886  -47.6802 C.3       11 UNK         0.1400 
     19 N           0.4289  -22.0491  -46.2367 N.am      11 UNK        -0.5000 
     20 C           0.3692  -23.0103  -45.3055 C.2       10 UNK         0.5000 
     21 O           0.3391  -24.2136  -45.5635 O.2       10 UNK        -0.5000 
     22 CA          0.2843  -22.5430  -43.8414 C.3       10 UNK         0.1400 
     23 CB          1.6873  -22.2592  -43.2854 C.3       10 UNK        -0.1800 
     24 N          -0.5580  -21.3562  -43.6792 N.am      10 UNK        -0.5000 
     25 C          -1.8748  -21.3283  -43.9307 C.2       9 UNK         0.5000 
     26 O          -2.5225  -22.3169  -44.2712 O.2       9 UNK        -0.5000 
     27 CA         -2.5812  -19.9646  -43.8380 C.3       9 UNK         0.1400 
     28 CB         -2.9659  -19.6527  -42.3857 C.3       9 UNK        -0.1800 
     29 N          -1.7907  -18.8627  -44.3901 N.am      9 UNK        -0.5000 
     30 C          -1.4005  -18.7689  -45.6703 C.2       8 UNK         0.5000 
     31 O          -1.6284  -19.6277  -46.5222 O.2       8 UNK        -0.5000 
     32 CA         -0.5945  -17.5188  -46.0536 C.3       8 UNK         0.1400 
     33 CB         -1.5209  -16.3092  -46.2496 C.3       8 UNK        -0.1800 
     34 N           0.4087  -17.2036  -45.0402 N.am      8 UNK        -0.5000 
     35 C           1.5796  -17.8437  -44.9187 C.2       7 UNK         0.5000 
     36 O           1.9585  -18.7324  -45.6816 O.2       7 UNK        -0.5000 
     37 CA          2.4601  -17.4414  -43.7199 C.3       7 UNK         0.1400 
     38 CB          3.2847  -16.1889  -44.0559 C.3       7 UNK        -0.1800 
     39 N           1.6869  -17.1968  -42.5002 N.am      7 UNK        -0.5000 
     40 C           0.9506  -18.1228  -41.8669 C.2       6 UNK         0.5000 
     41 O           0.8682  -19.2960  -42.2278 O.2       6 UNK        -0.5000 
     42 CA          0.1239  -17.6529  -40.6551 C.3       6 UNK         0.1400 
     43 CB          0.9440  -17.7868  -39.3639 C.3       6 UNK        -0.1800 
     44 N          -0.3668  -16.2797  -40.7704 N.am      6 UNK        -0.5000 
     45 C          -1.0994  -15.7799  -41.7755 C.2       5 UNK         0.5000 
     46 O          -1.4849  -16.4429  -42.7400 O.2       5 UNK        -0.5000 
     47 CA         -1.4136  -14.2730  -41.7164 C.3       5 UNK         0.1400 
     48 CB         -1.5297  -13.7317  -40.2751 C.3       5 UNK        -0.1800 
     49 N          -0.4602  -13.4611  -42.4806 N.am      5 UNK        -0.5000 
     50 C           0.8775  -13.4354  -42.3912 C.2       4 UNK         0.5000 
     51 O           1.5417  -14.2157  -41.7058 O.2       4 UNK        -0.5000 
     52 CA          1.5873  -12.3489  -43.2253 C.3       4 UNK         0.1400 
     53 CB          3.0650  -12.1750  -42.8303 C.3       4 UNK        -0.1800 
     54 N           1.5249  -12.6134  -44.6606 N.am      4 UNK        -0.5000 
     55 C           0.4479  -12.4848  -45.4462 C.2       3 UNK         0.5000 
     56 O          -0.6662  -12.1539  -45.0357 O.2       3 UNK        -0.5000 
     57 CA          0.6916  -12.7611  -46.9428 C.3       3 UNK         0.1400 
     58 CB         -0.5195  -12.4321  -47.8402 C.3       3 UNK        -0.1800 
     59 N           1.9122  -12.1078  -47.4331 N.am      3 UNK        -0.5000 
     60 C           2.1713  -10.7890  -47.4644 C.2       2 UNK         0.5000 
     61 O           1.3645   -9.9213  -47.1291 O.2       2 UNK        -0.5000 
     62 CA          3.5812  -10.3566  -47.9200 C.3       2 UNK         0.1400 
     63 CB          4.3938   -9.8476  -46.7183 C.3       2 UNK        -0.1800 
     64 N           4.3367  -11.4292  -48.5705 N.am      2 UNK        -0.5000 
     65 C           4.1465  -11.8448  -49.8289 C.2       1 UNK         0.5000 
     66 O           3.3416  -11.3280  -50.6079 O.2       1 UNK        -0.5000 
     67 C          -0.9418  -22.8457  -48.1436 C.2       11 UNK         0.5000 
     68 O          -0.9761  -23.8167  -48.8979 O.2       11 UNK        -0.5000 
     69 N          -2.0373  -22.2609  -47.6370 N.am      12 UNK        -0.5000 
     70 CA         -3.4074  -22.7174  -47.8726 C.3       12 UNK         0.1400 
     71 CB         -4.4024  -21.7008  -47.2943 C.3       12 UNK        -0.1800 
     72 C          -3.6704  -24.1257  -47.3172 C.2       12 UNK         0.5000 
     73 O          -4.3084  -24.9268  -47.9985 O.2       12 UNK        -0.5000 
     74 N          -3.1432  -24.4196  -46.1208 N.am      13 UNK        -0.5000 
     75 CA         -3.1893  -25.7418  -45.4973 C.3       13 UNK         0.1400 
     76 CB         -2.6604  -25.6597  -44.0577 C.3       13 UNK        -0.1800 
     77 C          -2.4215  -26.7997  -46.3097 C.2       13 UNK         0.5000 
     78 O          -2.9560  -27.8841  -46.5426 O.2       13 UNK        -0.5000 
     79 N          -1.2111  -26.4515  -46.7718 N.am      14 UNK        -0.5000 
     80 CA         -0.3800  -27.2893  -47.6417 C.3       14 UNK         0.1400 
     81 CB          1.0062  -26.6472  -47.8021 C.3       14 UNK        -0.1800 
     82 C          -1.0235  -27.5536  -49.0173 C.2       14 UNK         0.5000 
     83 O          -0.9261  -28.6680  -49.5318 O.2       14 UNK        -0.5000 
     84 N          -1.7015  -26.5374  -49.5663 N.am      15 UNK        -0.5000 
     85 CA         -2.4741  -26.6087  -50.8072 C.3       15 UNK         0.1400 
     86 CB         -2.6623  -25.1841  -51.3548 C.3       15 UNK        -0.1800 
     87 C          -3.8451  -27.2980  -50.6503 C.2       15 UNK         0.5000 
     88 O          -4.5364  -27.4706  -51.6536 O.2       15 UNK        -0.5000 
     89 N          -4.2467  -27.6326  -49.4139 N.am      16 UNK        -0.5000 
     90 CA         -5.5479  -28.1932  -49.0260 C.3       16 UNK         0.1400 
     91 CB         -5.6825  -29.6447  -49.5302 C.3       16 UNK        -0.1800 
     92 C          -6.7354  -27.2955  -49.4437 C.2       16 UNK         0.5000 
     93 O          -7.7836  -27.7981  -49.8519 O.2       16 UNK        -0.5000 
     94 N          -6.5209  -25.9741  -49.3602 N.am      17 UNK        -0.5000 
     95 CA         -7.4096  -24.8758  -49.7526 C.3       17 UNK         0.1400 
     96 CB         -8.6928  -24.8761  -48.8968 C.3       17 UNK        -0.1800 
     97 C          -7.7113  -24.7913  -51.2668 C.2       17 UNK         0.5000 
     98 O          -8.5927  -24.0248  -51.6588 O.2       17 UNK        -0.5000 
     99 N          -6.9757  -25.5399  -52.1032 N.am      18 UNK        -0.5000 
    100 CA        -7.1215  -25.5311  -53.5631 C.3       18 UNK         0.1400 
    101 CB        -6.6550  -26.8839  -54.1234 C.3       18 UNK        -0.1800 
    102 C         -6.3575  -24.3745  -54.2398 C.2       18 UNK         0.5000 
    103 O         -6.5538  -24.1388  -55.4329 O.2       18 UNK        -0.5000 
    104 N         -5.5014  -23.6808  -53.4822 N.am      19 UNK        -0.5000 
    105 CA        -4.6997  -22.5397  -53.9086 C.3       19 UNK         0.1400 
    106 CB        -3.4192  -23.0303  -54.6165 C.3       19 UNK        -0.1800 
    107 C         -4.4070  -21.6518  -52.6853 C.2       19 UNK         0.5000 
    108 O         -5.0344  -21.8312  -51.6379 O.2       19 UNK        -0.5000 
    109 N         -3.4609  -20.7149  -52.8484 N.am      20 UNK        -0.5000 
    110 CA        -2.9983  -19.7262  -51.8634 C.3       20 UNK         0.1400 
    111 CB        -2.4928  -20.4033  -50.5732 C.3       20 UNK        -0.1800 
    112 C         -4.0240  -18.6096  -51.5761 C.2       20 UNK         0.5000 
    113 O         -3.9883  -17.9955  -50.5083 O.2       20 UNK        -0.5000 
    114 N         -4.9077  -18.3396  -52.5446 N.am      21 UNK        -0.5000 
    115 CA        -5.9453  -17.3109  -52.4844 C.3       21 UNK         0.1400 
    116 CB        -7.0839  -17.7100  -53.4410 C.3       21 UNK        -0.1800 
    117 C         -5.3782  -15.9058  -52.7822 C.2       21 UNK         0.5000 
    118 O         -5.7488  -15.2883  -53.7829 O.2       21 UNK        -0.5000 
    119 N         -4.4699  -15.4345  -51.9192 N.am      22 UNK        -0.5000 
    120 CA        -3.9027  -14.0763  -51.9493 C.3       22 UNK         0.1400 
    121 C         -4.9747  -12.9774  -51.6971 C.2       22 UNK         0.5000 
    122 N         -4.8742  -11.8378  -52.3679 N.am      22 UNK        -0.7600 
    123 O         -5.8692  -13.1317  -50.8680 O.2       22 UNK        -0.5000 
    124 C124       -2.7340  -13.9123  -50.9448 C.3       23 UNK        -0.0398 
    125 S125       -1.2927  -14.9576  -51.3463 S.3       23 UNK        -0.2404 
    126 C126       -1.0693  -15.8480  -49.7788 C.3       23 UNK        -0.0205 
    127 H127        7.5271  -12.3487  -53.8901 H         1 UNK         0.0600 
    128 H128        6.2790  -11.1086  -54.0534 H         1 UNK         0.0600 
    129 H129        5.8474  -12.8169  -54.1679 H         1 UNK         0.0600 
    130 H130        4.8248  -13.5320  -52.3237 H         1 UNK         0.3000 
    131 H131        5.8856  -13.1098  -49.6784 H         1 UNK         0.0600 
    132 H132        4.7067  -15.2228  -50.4854 H         1 UNK         0.0800 
    133 H133        3.1939  -14.3566  -50.4611 H         1 UNK         0.0800 
    134 H134        3.6610  -16.9713  -47.2806 H         1 UNK         0.0800 
    135 H135        4.6386  -17.0587  -48.7243 H         1 UNK         0.0800 
    136 H136        1.3072  -15.3081  -48.5661 H         1 UNK         0.1150 
    137 H137       -0.6411  -18.2270  -50.9860 H         1 UNK         0.1150 
    138 H138        3.4037  -18.8629  -49.7294 H         1 UNK         0.1150 
    139 H139        0.3949  -20.2650  -51.5521 H         1 UNK         0.0800 
    140 H140        2.0845  -20.0531  -51.9333 H         1 UNK         0.0800 
    141 H141       -0.0268  -20.4064  -48.7223 H         1 UNK         0.0800 
    142 H142        1.4833  -20.3951  -47.8674 H         1 UNK         0.0800 
    143 H143        1.1628  -23.0684  -47.8602 H         1 UNK         0.0600 
    144 H144        0.4163  -21.0842  -45.9372 H         1 UNK         0.3000 
    145 H145       -0.1574  -23.3532  -43.2579 H         1 UNK         0.0600 
    146 H146        1.6475  -22.0188  -42.2229 H         1 UNK         0.0600 
    147 H147        2.3370  -23.1280  -43.3980 H         1 UNK         0.0600 
    148 H148        2.1618  -21.4221  -43.7997 H         1 UNK         0.0600 
    149 H149       -0.0969  -20.5128  -43.3474 H         1 UNK         0.3000 
    150 H150       -3.5004  -20.0267  -44.4238 H         1 UNK         0.0600 
    151 H151       -3.6702  -20.3934  -42.0048 H         1 UNK         0.0600 
    152 H152       -3.4405  -18.6751  -42.2987 H         1 UNK         0.0600 
    153 H153       -2.0958  -19.6673  -41.7317 H         1 UNK         0.0600 
    154 H154       -1.5834  -18.0905  -43.7634 H         1 UNK         0.3000 
    155 H155       -0.0914  -17.7216  -47.0013 H         1 UNK         0.0600 
    156 H156       -2.0655  -16.0599  -45.3386 H         1 UNK         0.0600 
    157 H157       -2.2601  -16.5080  -47.0265 H         1 UNK         0.0600 
    158 H158       -0.9574  -15.4273  -46.5499 H         1 UNK         0.0600 
    159 H159        0.1334  -16.5517  -44.3182 H         1 UNK         0.3000 
    160 H160        3.1490  -18.2646  -43.5196 H         1 UNK         0.0600 
    161 H161        2.6455  -15.3368  -44.2875 H         1 UNK         0.0600 
    162 H162        3.9261  -16.3625  -44.9204 H         1 UNK         0.0600 
    163 H163        3.9305  -15.9059  -43.2246 H         1 UNK         0.0600 
    164 H164        1.6843  -16.2481  -42.1390 H         1 UNK         0.3000 
    165 H165       -0.7463  -18.3031  -40.5701 H         1 UNK         0.0600 
    166 H166        0.3429  -17.5451  -38.4871 H         1 UNK         0.0600 
    167 H167        1.3074  -18.8074  -39.2359 H         1 UNK         0.0600 
    168 H168        1.8123  -17.1266  -39.3693 H         1 UNK         0.0600 
    169 H169       -0.0522  -15.6354  -40.0596 H         1 UNK         0.3000 
    170 H170       -2.3854  -14.1453  -42.1954 H         1 UNK         0.0600 
    171 H171       -2.2217  -14.3324  -39.6833 H         1 UNK         0.0600 
    172 H172       -0.5703  -13.7205  -39.7567 H         1 UNK         0.0600 
    173 H173       -1.9117  -12.7107  -40.2756 H         1 UNK         0.0600 
    174 H174       -0.8735  -12.8454  -43.1748 H         1 UNK         0.3000 
    175 H175        1.0795  -11.4027  -43.0262 H         1 UNK         0.0600 
    176 H176        3.6475  -13.0742  -43.0351 H         1 UNK         0.0600 
    177 H177        3.5234  -11.3479  -43.3729 H         1 UNK         0.0600 
    178 H178        3.1619  -11.9563  -41.7661 H         1 UNK         0.0600 
    179 H179        2.3932  -12.8917  -45.0924 H         1 UNK         0.3000 
    180 H180        0.8689  -13.8331  -47.0098 H         1 UNK         0.0600 
    181 H181       -0.7926  -11.3781  -47.7857 H         1 UNK         0.0600 
    182 H182       -1.3953  -13.0096  -47.5421 H         1 UNK         0.0600 
    183 H183       -0.3120  -12.6704  -48.8835 H         1 UNK         0.0600 
    184 H184        2.6515  -12.7299  -47.7299 H         1 UNK         0.3000 
    185 H185        3.4607   -9.5323  -48.6262 H         1 UNK         0.0600 
    186 H186        3.8855   -9.0184  -46.2242 H         1 UNK         0.0600 
    187 H187        4.5447  -10.6297  -45.9730 H         1 UNK         0.0600 
    188 H188        5.3739   -9.4854  -47.0294 H         1 UNK         0.0600 
    189 H189        5.0161  -11.9082  -47.9962 H         1 UNK         0.3000 
    190 H190       -1.9242  -21.4340  -47.0563 H         1 UNK         0.3000 
    191 H191       -3.5614  -22.7711  -48.9513 H         1 UNK         0.0600 
    192 H192       -4.3136  -21.6205  -46.2111 H         1 UNK         0.0600 
    193 H193       -5.4293  -21.9911  -47.5197 H         1 UNK         0.0600 
    194 H194       -4.2443  -20.7079  -47.7158 H         1 UNK         0.0600 
    195 H195       -2.6954  -23.6785  -45.5881 H         1 UNK         0.3000 
    196 H196       -4.2357  -26.0513  -45.4549 H         1 UNK         0.0600 
    197 H197       -2.7097  -26.6328  -43.5677 H         1 UNK         0.0600 
    198 H198       -3.2509  -24.9644  -43.4608 H         1 UNK         0.0600 
    199 H199       -1.6226  -25.3282  -44.0261 H         1 UNK         0.0600 
    200 H200       -0.8240  -25.5515  -46.5047 H         1 UNK         0.3000 
    201 H201       -0.2509  -28.2543  -47.1473 H         1 UNK         0.0600 
    202 H202        1.4997  -26.5294  -46.8372 H         1 UNK         0.0600 
    203 H203        0.9436  -25.6630  -48.2670 H         1 UNK         0.0600 
    204 H204        1.6535  -27.2649  -48.4257 H         1 UNK         0.0600 
    205 H205       -1.6622  -25.6283  -49.1137 H         1 UNK         0.3000 
    206 H206       -1.9043  -27.1828  -51.5405 H         1 UNK         0.0600 
    207 H207       -1.7032  -24.6961  -51.5291 H         1 UNK         0.0600 
    208 H208       -3.1959  -25.2001  -52.3052 H         1 UNK         0.0600 
    209 H209       -3.2349  -24.5606  -50.6674 H         1 UNK         0.0600 
    210 H210       -3.6226  -27.4232  -48.6450 H         1 UNK         0.3000 
    211 H211       -5.5553  -28.2186  -47.9355 H         1 UNK         0.0600 
    212 H212       -5.7361  -29.6924  -50.6183 H         1 UNK         0.0600 
    213 H213       -6.5852  -30.1135  -49.1371 H         1 UNK         0.0600 
    214 H214       -4.8363  -30.2522  -49.2091 H         1 UNK         0.0600 
    215 H215       -5.6262  -25.6748  -48.9726 H         1 UNK         0.3000 
    216 H216       -6.8616  -23.9628  -49.5143 H         1 UNK         0.0600 
    217 H217       -9.2776  -23.9712  -49.0656 H         1 UNK         0.0600 
    218 H218       -8.4569  -24.9128  -47.8332 H         1 UNK         0.0600 
    219 H219       -9.3350  -25.7261  -49.1287 H         1 UNK         0.0600 
    220 H220       -6.2697  -26.1615  -51.7254 H         1 UNK         0.3000 
    221 H221       -8.1785  -25.4156  -53.8120 H         1 UNK         0.0600 
    222 H222       -5.5786  -27.0166  -54.0127 H         1 UNK         0.0600 
    223 H223       -7.1509  -27.7149  -53.6213 H         1 UNK         0.0600 
    224 H224       -6.8830  -26.9633  -55.1870 H         1 UNK         0.0600 
    225 H225       -5.4616  -23.8750  -52.4908 H         1 UNK         0.3000 
    226 H226       -5.2859  -21.9385  -54.6066 H         1 UNK         0.0600 
    227 H227       -3.6509  -23.7400  -55.4108 H         1 UNK         0.0600 
    228 H228       -2.8798  -22.2047  -55.0811 H         1 UNK         0.0600 
    229 H229       -2.7361  -23.5201  -53.9225 H         1 UNK         0.0600 
    230 H230       -3.0044  -20.6640  -53.7486 H         1 UNK         0.3000 
    231 H231       -2.1473  -19.2320  -52.3320 H         1 UNK         0.0600 
    232 H232       -1.7947  -21.2127  -50.7862 H         1 UNK         0.0600 
    233 H233       -3.3219  -20.8103  -50.0004 H         1 UNK         0.0600 
    234 H234       -1.9902  -19.6939  -49.9171 H         1 UNK         0.0600 
    235 H235       -4.8480  -18.8645  -53.4040 H         1 UNK         0.3000 
    236 H236       -6.3603  -17.2841  -51.4744 H         1 UNK         0.0600 
    237 H237       -7.8961  -16.9827  -53.4071 H         1 UNK         0.0600 
    238 H238       -6.7408  -17.7731  -54.4744 H         1 UNK         0.0600 
    239 H239       -7.5057  -18.6776  -53.1684 H         1 UNK         0.0600 
    240 H240       -4.1984  -16.0280  -51.1440 H         1 UNK         0.3000 
    241 H241       -3.5043  -13.9219  -52.9542 H         1 UNK         0.0600 
    242 H242       -5.5538  -11.1112  -52.2030 H         1 UNK         0.3800 
    243 H243       -4.1457  -11.6855  -53.0487 H         1 UNK         0.3800 
    244 H244       -2.3804  -12.8795  -50.9362 H         1 UNK         0.0800 
    245 H245       -3.0780  -14.1190  -49.9298 H         1 UNK         0.0800 
    246 H246       -1.9298  -16.4937  -49.5991 H         1 UNK         0.0800 
    247 H247       -1.0446  -15.1287  -48.9609 H         1 UNK         0.0800 
@<TRIPOS>BOND
     1    1    2 1    
     2    1  127 1    
     3    1  128 1    
     4    1  129 1    
     5    2    3 2    
     6    2    4 am   BACKBONE|DICT|INTERRES
     7    4    5 1    
     8    4  130 1    
     9    5    6 1    
    10    5   65 1    
    11    5  131 1    
    12    6    7 1    
    13    6  132 1    
    14    6  133 1    
    15    7    8 1    
    16    8    9 1    
    17    8  134 1    
    18    8  135 1    
    19    9   10 ar   
    20    9   14 ar   
    21   10   11 ar   
    22   10  136 1    
    23   11   12 ar   
    24   11  126 1    
    25   12   13 ar   
    26   12  137 1    
    27   13   14 ar   
    28   13   15 1    
    29   14  138 1    
    30   15   16 1    
    31   15  139 1    
    32   15  140 1    
    33   16   17 1    
    34   17   18 1    
    35   17  141 1    
    36   17  142 1    
    37   18   19 1    
    38   18   67 1    
    39   18  143 1    
    40   19   20 am   BACKBONE|DICT|INTERRES
    41   19  144 1    
    42   20   21 2    
    43   20   22 1    
    44   22   23 1    
    45   22   24 1    
    46   22  145 1    
    47   23  146 1    
    48   23  147 1    
    49   23  148 1    
    50   24   25 am   BACKBONE|DICT|INTERRES
    51   24  149 1    
    52   25   26 2    
    53   25   27 1    
    54   27   28 1    
    55   27   29 1    
    56   27  150 1    
    57   28  151 1    
    58   28  152 1    
    59   28  153 1    
    60   29   30 am   BACKBONE|DICT|INTERRES
    61   29  154 1    
    62   30   31 2    
    63   30   32 1    
    64   32   33 1    
    65   32   34 1    
    66   32  155 1    
    67   33  156 1    
    68   33  157 1    
    69   33  158 1    
    70   34   35 am   BACKBONE|DICT|INTERRES
    71   34  159 1    
    72   35   36 2    
    73   35   37 1    
    74   37   38 1    
    75   37   39 1    
    76   37  160 1    
    77   38  161 1    
    78   38  162 1    
    79   38  163 1    
    80   39   40 am   BACKBONE|DICT|INTERRES
    81   39  164 1    
    82   40   41 2    
    83   40   42 1    
    84   42   43 1    
    85   42   44 1    
    86   42  165 1    
    87   43  166 1    
    88   43  167 1    
    89   43  168 1    
    90   44   45 am   BACKBONE|DICT|INTERRES
    91   44  169 1    
    92   45   46 2    
    93   45   47 1    
    94   47   48 1    
    95   47   49 1    
    96   47  170 1    
    97   48  171 1    
    98   48  172 1    
    99   48  173 1    
   100   49   50 am   BACKBONE|DICT|INTERRES
   101   49  174 1    
   102   50   51 2    
   103   50   52 1    
   104   52   53 1    
   105   52   54 1    
   106   52  175 1    
   107   53  176 1    
   108   53  177 1    
   109   53  178 1    
   110   54   55 am   BACKBONE|DICT|INTERRES
   111   54  179 1    
   112   55   56 2    
   113   55   57 1    
   114   57   58 1    
   115   57   59 1    
   116   57  180 1    
   117   58  181 1    
   118   58  182 1    
   119   58  183 1    
   120   59   60 am   BACKBONE|DICT|INTERRES
   121   59  184 1    
   122   60   61 2    
   123   60   62 1    
   124   62   63 1    
   125   62   64 1    
   126   62  185 1    
   127   63  186 1    
   128   63  187 1    
   129   63  188 1    
   130   64   65 am   BACKBONE|DICT|INTERRES
   131   64  189 1    
   132   65   66 2    
   133   67   68 2    
   134   67   69 am   BACKBONE|DICT|INTERRES
   135   69   70 1    
   136   69  190 1    
   137   70   71 1    
   138   70   72 1    
   139   70  191 1    
   140   71  192 1    
   141   71  193 1    
   142   71  194 1    
   143   72   73 2    
   144   72   74 am   BACKBONE|DICT|INTERRES
   145   74   75 1    
   146   74  195 1    
   147   75   76 1    
   148   75   77 1    
   149   75  196 1    
   150   76  197 1    
   151   76  198 1    
   152   76  199 1    
   153   77   78 2    
   154   77   79 am   BACKBONE|DICT|INTERRES
   155   79   80 1    
   156   79  200 1    
   157   80   81 1    
   158   80   82 1    
   159   80  201 1    
   160   81  202 1    
   161   81  203 1    
   162   81  204 1    
   163   82   83 2    
   164   82   84 am   BACKBONE|DICT|INTERRES
   165   84   85 1    
   166   84  205 1    
   167   85   86 1    
   168   85   87 1    
   169   85  206 1    
   170   86  207 1    
   171   86  208 1    
   172   86  209 1    
   173   87   88 2    
   174   87   89 am   BACKBONE|DICT|INTERRES
   175   89   90 1    
   176   89  210 1    
   177   90   91 1    
   178   90   92 1    
   179   90  211 1    
   180   91  212 1    
   181   91  213 1    
   182   91  214 1    
   183   92   93 2    
   184   92   94 am   BACKBONE|DICT|INTERRES
   185   94   95 1    
   186   94  215 1    
   187   95   96 1    
   188   95   97 1    
   189   95  216 1    
   190   96  217 1    
   191   96  218 1    
   192   96  219 1    
   193   97   98 2    
   194   97   99 am   BACKBONE|DICT|INTERRES
   195   99  100 1    
   196   99  220 1    
   197  100  101 1    
   198  100  102 1    
   199  100  221 1    
   200  101  222 1    
   201  101  223 1    
   202  101  224 1    
   203  102  103 2    
   204  102  104 am   BACKBONE|DICT|INTERRES
   205  104  105 1    
   206  104  225 1    
   207  105  106 1    
   208  105  107 1    
   209  105  226 1    
   210  106  227 1    
   211  106  228 1    
   212  106  229 1    
   213  107  108 2    
   214  107  109 am   BACKBONE|DICT|INTERRES
   215  109  110 1    
   216  109  230 1    
   217  110  111 1    
   218  110  112 1    
   219  110  231 1    
   220  111  232 1    
   221  111  233 1    
   222  111  234 1    
   223  112  113 2    
   224  112  114 am   BACKBONE|DICT|INTERRES
   225  114  115 1    
   226  114  235 1    
   227  115  116 1    
   228  115  117 1    
   229  115  236 1    
   230  116  237 1    
   231  116  238 1    
   232  116  239 1    
   233  117  118 2    
   234  117  119 am   BACKBONE|DICT|INTERRES
   235  119  120 1    
   236  119  240 1    
   237  120  121 1    
   238  120  124 1    
   239  120  241 1    
   240  121  122 am   BACKBONE|DICT|INTERRES
   241  121  123 2    
   242  122  242 1    
   243  122  243 1    
   244  124  125 1    
   245  124  244 1    
   246  124  245 1    
   247  125  126 1    
   248  126  246 1    
   249  126  247 1    
@<TRIPOS>SUBSTRUCTURE
     1 UNK         1 GROUP             0       ****    0 ROOT    
