@<TRIPOS>MOLECULE
3R540
247   249    1
SMALL
USER_CHARGES


@<TRIPOS>ATOM
      1 CA         -2.5753  -13.1096  -49.7437 C.3       0 UNK        -0.1800 
      2 C          -1.2028  -13.2023  -49.0917 C.2       0 UNK         0.5000 
      3 O          -0.1883  -13.1407  -49.7857 O.2       0 UNK        -0.5000 
      4 N          -1.1704  -13.3535  -47.7615 N.am      1 UNK        -0.5000 
      5 CA          0.0557  -13.5085  -46.9661 C.3       1 UNK         0.1400 
      6 C6         -0.2246  -14.1477  -45.5824 C.3       23 UNK        -0.0398 
      7 S7         -0.8762  -15.8428  -45.7431 S.3       23 UNK        -0.2404 
      8 C8         -2.6507  -15.5589  -45.4670 C.3       23 UNK        -0.0205 
      9 C9         -3.4994  -16.5795  -46.2057 C.ar      23 UNK        -0.0193 
     10 C10        -3.6159  -16.5158  -47.5975 C.ar      23 UNK        -0.1150 
     11 C11        -4.4268  -17.4225  -48.2849 C.ar      23 UNK        -0.0193 
     12 C12        -5.1275  -18.3976  -47.5692 C.ar      23 UNK        -0.1150 
     13 C13        -5.0180  -18.4711  -46.1775 C.ar      23 UNK        -0.0193 
     14 C14        -4.1978  -17.5629  -45.5013 C.ar      23 UNK        -0.1150 
     15 C15        -5.8102  -19.5117  -45.4008 C.3       23 UNK        -0.0205 
     16 S16        -5.1715  -21.1967  -45.6466 S.3       23 UNK        -0.2404 
     17 C17        -3.4935  -21.0797  -44.9397 C.3       23 UNK        -0.0398 
     18 CA         -2.3920  -21.3787  -45.9862 C.3       11 UNK         0.1400 
     19 N          -1.0993  -20.8069  -45.5982 N.am      11 UNK        -0.5000 
     20 C           0.0199  -20.8411  -46.3358 C.2       10 UNK         0.5000 
     21 O           0.0734  -21.2934  -47.4772 O.2       10 UNK        -0.5000 
     22 CA          1.3160  -20.3673  -45.6548 C.3       10 UNK         0.1400 
     23 CB          1.4746  -18.8442  -45.7327 C.3       10 UNK        -0.1800 
     24 N           1.3847  -20.8069  -44.2614 N.am      10 UNK        -0.5000 
     25 C           1.5521  -22.0837  -43.8881 C.2       9 UNK         0.5000 
     26 O           1.7586  -23.0032  -44.6796 O.2       9 UNK        -0.5000 
     27 CA          1.4029  -22.3950  -42.3889 C.3       9 UNK         0.1400 
     28 CB          2.7485  -22.2769  -41.6603 C.3       9 UNK        -0.1800 
     29 N           0.4095  -21.5292  -41.7508 N.am      9 UNK        -0.5000 
     30 C          -0.9121  -21.6722  -41.9246 C.2       8 UNK         0.5000 
     31 O          -1.4105  -22.5684  -42.6057 O.2       8 UNK        -0.5000 
     32 CA         -1.8332  -20.6244  -41.2705 C.3       8 UNK         0.1400 
     33 CB         -2.2113  -21.0558  -39.8463 C.3       8 UNK        -0.1800 
     34 N          -1.2598  -19.2780  -41.2301 N.am      8 UNK        -0.5000 
     35 C          -0.9436  -18.5438  -42.3056 C.2       7 UNK         0.5000 
     36 O          -1.1118  -18.9363  -43.4586 O.2       7 UNK        -0.5000 
     37 CA         -0.3153  -17.1540  -42.0612 C.3       7 UNK         0.1400 
     38 CB         -0.5750  -16.6046  -40.6421 C.3       7 UNK        -0.1800 
     39 N           1.1238  -17.0972  -42.3492 N.am      7 UNK        -0.5000 
     40 C           2.0837  -17.9325  -41.9292 C.2       6 UNK         0.5000 
     41 O           1.8498  -18.9799  -41.3236 O.2       6 UNK        -0.5000 
     42 CA          3.5526  -17.5257  -42.2041 C.3       6 UNK         0.1400 
     43 CB          4.5291  -18.7033  -42.0295 C.3       6 UNK        -0.1800 
     44 N           3.8157  -16.9132  -43.5110 N.am      6 UNK        -0.5000 
     45 C           3.4878  -15.6745  -43.8943 C.2       5 UNK         0.5000 
     46 O           2.7472  -14.9308  -43.2460 O.2       5 UNK        -0.5000 
     47 CA          4.0836  -15.2014  -45.2339 C.3       5 UNK         0.1400 
     48 CB          3.2429  -15.6856  -46.4244 C.3       5 UNK        -0.1800 
     49 N           4.1838  -13.7429  -45.2715 N.am      5 UNK        -0.5000 
     50 C           5.1590  -13.0436  -44.6734 C.2       4 UNK         0.5000 
     51 O           6.1108  -13.5609  -44.0864 O.2       4 UNK        -0.5000 
     52 CA          5.0497  -11.5133  -44.7278 C.3       4 UNK         0.1400 
     53 CB          5.4403  -10.9895  -46.1193 C.3       4 UNK        -0.1800 
     54 N           3.6885  -11.0835  -44.4225 N.am      4 UNK        -0.5000 
     55 C           3.2847  -10.5337  -43.2695 C.2       3 UNK         0.5000 
     56 O           4.0364  -10.3387  -42.3127 O.2       3 UNK        -0.5000 
     57 CA          1.7908  -10.1420  -43.1547 C.3       3 UNK         0.1400 
     58 CB          1.5835   -8.8289  -42.3715 C.3       3 UNK        -0.1800 
     59 N           1.0828  -10.1043  -44.4420 N.am      3 UNK        -0.5000 
     60 C           1.3324   -9.3119  -45.4971 C.2       2 UNK         0.5000 
     61 O           2.1287   -8.3724  -45.4736 O.2       2 UNK        -0.5000 
     62 CA          0.5967   -9.6611  -46.8123 C.3       2 UNK         0.1400 
     63 CB          1.4537   -9.3416  -48.0548 C.3       2 UNK        -0.1800 
     64 N           0.1053  -11.0468  -46.8897 N.am      2 UNK        -0.5000 
     65 C           0.8203  -12.1811  -46.7924 C.2       1 UNK         0.5000 
     66 O           2.0264  -12.2146  -46.5397 O.2       1 UNK        -0.5000 
     67 C          -2.2856  -22.8944  -46.2621 C.2       11 UNK         0.5000 
     68 O          -2.7787  -23.3635  -47.2885 O.2       11 UNK        -0.5000 
     69 N          -1.6107  -23.6243  -45.3610 N.am      12 UNK        -0.5000 
     70 CA         -1.3344  -25.0550  -45.4898 C.3       12 UNK         0.1400 
     71 CB         -0.7227  -25.5866  -44.1853 C.3       12 UNK        -0.1800 
     72 C          -0.4354  -25.3800  -46.6964 C.2       12 UNK         0.5000 
     73 O          -0.7478  -26.3047  -47.4466 O.2       12 UNK        -0.5000 
     74 N           0.6289  -24.5885  -46.8976 N.am      13 UNK        -0.5000 
     75 CA          1.5316  -24.6844  -48.0500 C.3       13 UNK         0.1400 
     76 CB          2.7285  -23.7440  -47.8460 C.3       13 UNK        -0.1800 
     77 C           0.8303  -24.3938  -49.3923 C.2       13 UNK         0.5000 
     78 O           1.1352  -25.0433  -50.3927 O.2       13 UNK        -0.5000 
     79 N          -0.1293  -23.4598  -49.3756 N.am      14 UNK        -0.5000 
     80 CA         -1.0132  -23.1235  -50.4918 C.3       14 UNK         0.1400 
     81 CB         -1.5466  -21.6966  -50.2878 C.3       14 UNK        -0.1800 
     82 C          -2.1800  -24.1163  -50.6817 C.2       14 UNK         0.5000 
     83 O          -3.0127  -23.8897  -51.5611 O.2       14 UNK        -0.5000 
     84 N          -2.2464  -25.1736  -49.8576 N.am      15 UNK        -0.5000 
     85 CA         -3.2548  -26.2372  -49.8547 C.3       15 UNK         0.1400 
     86 CB         -3.1355  -27.0931  -51.1337 C.3       15 UNK        -0.1800 
     87 C          -4.6810  -25.7023  -49.6142 C.2       15 UNK         0.5000 
     88 O          -5.6166  -26.1061  -50.3040 O.2       15 UNK        -0.5000 
     89 N          -4.8126  -24.7655  -48.6634 N.am      16 UNK        -0.5000 
     90 CA         -6.0275  -24.0074  -48.3427 C.3       16 UNK         0.1400 
     91 CB         -7.1301  -24.9242  -47.7728 C.3       16 UNK        -0.1800 
     92 C          -6.4957  -23.1439  -49.5331 C.2       16 UNK         0.5000 
     93 O          -7.6890  -23.0818  -49.8310 O.2       16 UNK        -0.5000 
     94 N          -5.5140  -22.5219  -50.2021 N.am      17 UNK        -0.5000 
     95 CA         -5.6041  -21.6878  -51.4049 C.3       17 UNK         0.1400 
     96 CB         -6.5812  -20.5101  -51.2131 C.3       17 UNK        -0.1800 
     97 C          -5.8820  -22.4609  -52.7109 C.2       17 UNK         0.5000 
     98 O          -5.9820  -21.8265  -53.7622 O.2       17 UNK        -0.5000 
     99 N          -5.9613  -23.7990  -52.6617 N.am      18 UNK        -0.5000 
    100 CA        -6.1965  -24.6521  -53.8303 C.3       18 UNK         0.1400 
    101 CB        -6.5340  -26.0781  -53.3737 C.3       18 UNK        -0.1800 
    102 C         -5.0261  -24.6721  -54.8329 C.2       18 UNK         0.5000 
    103 O         -5.2489  -24.9847  -56.0040 O.2       18 UNK        -0.5000 
    104 N         -3.8108  -24.3309  -54.3801 N.am      19 UNK        -0.5000 
    105 CA        -2.6163  -24.1947  -55.2114 C.3       19 UNK         0.1400 
    106 CB        -1.3687  -24.2148  -54.3120 C.3       19 UNK        -0.1800 
    107 C         -2.6826  -22.9223  -56.0803 C.2       19 UNK         0.5000 
    108 O         -2.0936  -21.9003  -55.7248 O.2       19 UNK        -0.5000 
    109 N         -3.4200  -23.0104  -57.1957 N.am      20 UNK        -0.5000 
    110 CA        -3.5563  -22.0037  -58.2553 C.3       20 UNK         0.1400 
    111 CB        -2.2355  -21.8871  -59.0451 C.3       20 UNK        -0.1800 
    112 C         -4.0773  -20.6392  -57.7535 C.2       20 UNK         0.5000 
    113 O         -3.5526  -19.5967  -58.1491 O.2       20 UNK        -0.5000 
    114 N         -5.1023  -20.6826  -56.8885 N.am      21 UNK        -0.5000 
    115 CA        -5.7431  -19.5406  -56.2253 C.3       21 UNK         0.1400 
    116 CB        -6.4459  -18.6209  -57.2471 C.3       21 UNK        -0.1800 
    117 C         -4.7665  -18.7923  -55.2941 C.2       21 UNK         0.5000 
    118 O         -4.5996  -17.5760  -55.4050 O.2       21 UNK        -0.5000 
    119 N         -4.1504  -19.5533  -54.3816 N.am      22 UNK        -0.5000 
    120 CA        -3.1912  -19.0850  -53.3689 C.3       22 UNK         0.1400 
    121 C         -1.8228  -18.6232  -53.9578 C.2       22 UNK         0.5000 
    122 N         -1.2928  -19.3059  -54.9639 N.am      22 UNK        -0.7600 
    123 O         -1.2236  -17.6505  -53.5067 O.2       22 UNK        -0.5000 
    124 C124       -3.8310  -18.0680  -52.3756 C.3       23 UNK        -0.0398 
    125 S125       -3.3335  -18.3579  -50.6460 S.3       23 UNK        -0.2404 
    126 C126       -4.5672  -17.3293  -49.7951 C.3       23 UNK        -0.0205 
    127 H127       -3.3790  -13.1627  -49.0088 H         1 UNK         0.0600 
    128 H128       -2.7091  -13.9278  -50.4515 H         1 UNK         0.0600 
    129 H129       -2.6713  -12.1687  -50.2855 H         1 UNK         0.0600 
    130 H130       -2.0384  -13.4000  -47.2496 H         1 UNK         0.3000 
    131 H131        0.7225  -14.1758  -47.5159 H         1 UNK         0.0600 
    132 H132       -0.9132  -13.5358  -44.9974 H         1 UNK         0.0800 
    133 H133        0.6905  -14.2087  -44.9911 H         1 UNK         0.0800 
    134 H134       -2.9367  -14.5633  -45.8062 H         1 UNK         0.0800 
    135 H135       -2.8510  -15.5859  -44.3949 H         1 UNK         0.0800 
    136 H136       -3.0750  -15.7578  -48.1459 H         1 UNK         0.1150 
    137 H137       -5.7615  -19.0990  -48.0927 H         1 UNK         0.1150 
    138 H138       -4.1126  -17.6124  -44.4248 H         1 UNK         0.1150 
    139 H139       -5.8150  -19.2820  -44.3340 H         1 UNK         0.0800 
    140 H140       -6.8520  -19.4805  -45.7228 H         1 UNK         0.0800 
    141 H141       -3.4310  -21.7547  -44.0855 H         1 UNK         0.0800 
    142 H142       -3.3536  -20.0805  -44.5281 H         1 UNK         0.0800 
    143 H143       -2.6680  -20.8905  -46.9237 H         1 UNK         0.0600 
    144 H144       -1.0649  -20.3259  -44.7031 H         1 UNK         0.3000 
    145 H145        2.1543  -20.8144  -46.1930 H         1 UNK         0.0600 
    146 H146        2.4344  -18.5368  -45.3222 H         1 UNK         0.0600 
    147 H147        1.4327  -18.4985  -46.7662 H         1 UNK         0.0600 
    148 H148        0.6939  -18.3221  -45.1826 H         1 UNK         0.0600 
    149 H149        1.1687  -20.1218  -43.5514 H         1 UNK         0.3000 
    150 H150        1.0682  -23.4305  -42.2978 H         1 UNK         0.0600 
    151 H151        3.4904  -22.9429  -42.1027 H         1 UNK         0.0600 
    152 H152        2.6521  -22.5489  -40.6092 H         1 UNK         0.0600 
    153 H153        3.1475  -21.2654  -41.7081 H         1 UNK         0.0600 
    154 H154        0.7622  -20.7220  -41.2461 H         1 UNK         0.3000 
    155 H155       -2.7480  -20.5763  -41.8645 H         1 UNK         0.0600 
    156 H156       -1.3394  -21.0925  -39.1920 H         1 UNK         0.0600 
    157 H157       -2.6642  -22.0483  -39.8462 H         1 UNK         0.0600 
    158 H158       -2.9348  -20.3701  -39.4049 H         1 UNK         0.0600 
    159 H159       -1.0597  -18.8986  -40.3163 H         1 UNK         0.3000 
    160 H160       -0.7988  -16.4778  -42.7668 H         1 UNK         0.0600 
    161 H161       -0.0520  -17.1784  -39.8761 H         1 UNK         0.0600 
    162 H162       -1.6392  -16.6132  -40.4021 H         1 UNK         0.0600 
    163 H163       -0.2389  -15.5708  -40.5613 H         1 UNK         0.0600 
    164 H164        1.4421  -16.2590  -42.8266 H         1 UNK         0.3000 
    165 H165        3.8009  -16.7856  -41.4408 H         1 UNK         0.0600 
    166 H166        4.4357  -19.1565  -41.0417 H         1 UNK         0.0600 
    167 H167        4.3515  -19.4820  -42.7720 H         1 UNK         0.0600 
    168 H168        5.5639  -18.3753  -42.1301 H         1 UNK         0.0600 
    169 H169        4.3936  -17.4616  -44.1311 H         1 UNK         0.3000 
    170 H170        5.0880  -15.6175  -45.3389 H         1 UNK         0.0600 
    171 H171        3.3941  -16.7512  -46.5936 H         1 UNK         0.0600 
    172 H172        2.1786  -15.5323  -46.2613 H         1 UNK         0.0600 
    173 H173        3.5206  -15.1742  -47.3464 H         1 UNK         0.0600 
    174 H174        3.4208  -13.2426  -45.7162 H         1 UNK         0.3000 
    175 H175        5.7530  -11.0987  -44.0027 H         1 UNK         0.0600 
    176 H176        4.7711  -11.3620  -46.8962 H         1 UNK         0.0600 
    177 H177        5.4102   -9.9001  -46.1498 H         1 UNK         0.0600 
    178 H178        6.4536  -11.2955  -46.3820 H         1 UNK         0.0600 
    179 H179        2.9984  -11.2511  -45.1472 H         1 UNK         0.3000 
    180 H180        1.3209  -10.9417  -42.5804 H         1 UNK         0.0600 
    181 H181        2.1023   -7.9911  -42.8376 H         1 UNK         0.0600 
    182 H182        1.9609   -8.9174  -41.3522 H         1 UNK         0.0600 
    183 H183        0.5262   -8.5733  -42.3023 H         1 UNK         0.0600 
    184 H184        0.3984  -10.8341  -44.5759 H         1 UNK         0.3000 
    185 H185       -0.2853   -9.0201  -46.8432 H         1 UNK         0.0600 
    186 H186        2.3907   -9.8998  -48.0522 H         1 UNK         0.0600 
    187 H187        0.9214   -9.5859  -48.9741 H         1 UNK         0.0600 
    188 H188        1.7043   -8.2812  -48.0999 H         1 UNK         0.0600 
    189 H189       -0.8815  -11.1418  -47.0852 H         1 UNK         0.3000 
    190 H190       -1.2878  -23.1745  -44.5105 H         1 UNK         0.3000 
    191 H191       -2.2897  -25.5613  -45.6438 H         1 UNK         0.0600 
    192 H192        0.2378  -25.1200  -43.9683 H         1 UNK         0.0600 
    193 H193       -0.5579  -26.6631  -44.2432 H         1 UNK         0.0600 
    194 H194       -1.3825  -25.4033  -43.3370 H         1 UNK         0.0600 
    195 H195        0.8487  -23.8773  -46.2067 H         1 UNK         0.3000 
    196 H196        1.9085  -25.7084  -48.0900 H         1 UNK         0.0600 
    197 H197        3.4373  -23.8300  -48.6704 H         1 UNK         0.0600 
    198 H198        3.2660  -23.9825  -46.9280 H         1 UNK         0.0600 
    199 H199        2.4160  -22.7014  -47.7898 H         1 UNK         0.0600 
    200 H200       -0.2608  -22.9185  -48.5258 H         1 UNK         0.3000 
    201 H201       -0.4267  -23.1359  -51.4120 H         1 UNK         0.0600 
    202 H202       -0.7317  -20.9780  -50.1999 H         1 UNK         0.0600 
    203 H203       -2.1586  -21.6182  -49.3888 H         1 UNK         0.0600 
    204 H204       -2.1601  -21.3835  -51.1312 H         1 UNK         0.0600 
    205 H205       -1.5383  -25.2574  -49.1383 H         1 UNK         0.3000 
    206 H206       -3.0243  -26.8799  -49.0042 H         1 UNK         0.0600 
    207 H207       -3.8146  -27.9457  -51.1001 H         1 UNK         0.0600 
    208 H208       -2.1260  -27.4877  -51.2483 H         1 UNK         0.0600 
    209 H209       -3.3729  -26.5205  -52.0306 H         1 UNK         0.0600 
    210 H210       -3.9739  -24.4495  -48.1784 H         1 UNK         0.3000 
    211 H211       -5.7465  -23.3100  -47.5547 H         1 UNK         0.0600 
    212 H212       -6.7576  -25.5132  -46.9348 H         1 UNK         0.0600 
    213 H213       -7.5173  -25.6139  -48.5230 H         1 UNK         0.0600 
    214 H214       -7.9721  -24.3360  -47.4066 H         1 UNK         0.0600 
    215 H215       -4.5703  -22.7065  -49.8919 H         1 UNK         0.3000 
    216 H216       -4.6092  -21.2607  -51.5286 H         1 UNK         0.0600 
    217 H217       -6.5242  -19.8141  -52.0498 H         1 UNK         0.0600 
    218 H218       -6.3504  -19.9512  -50.3074 H         1 UNK         0.0600 
    219 H219       -7.6168  -20.8434  -51.1491 H         1 UNK         0.0600 
    220 H220       -5.8313  -24.2671  -51.7742 H         1 UNK         0.3000 
    221 H221       -7.0669  -24.2554  -54.3570 H         1 UNK         0.0600 
    222 H222       -5.6771  -26.5640  -52.9076 H         1 UNK         0.0600 
    223 H223       -7.3559  -26.0825  -52.6574 H         1 UNK         0.0600 
    224 H224       -6.8362  -26.6960  -54.2201 H         1 UNK         0.0600 
    225 H225       -3.7026  -24.0975  -53.3967 H         1 UNK         0.3000 
    226 H226       -2.5542  -25.0577  -55.8775 H         1 UNK         0.0600 
    227 H227       -1.3309  -25.1202  -53.7058 H         1 UNK         0.0600 
    228 H228       -0.4577  -24.1835  -54.9105 H         1 UNK         0.0600 
    229 H229       -1.3454  -23.3578  -53.6390 H         1 UNK         0.0600 
    230 H230       -3.9498  -23.8644  -57.3289 H         1 UNK         0.3000 
    231 H231       -4.3156  -22.3817  -58.9413 H         1 UNK         0.0600 
    232 H232       -1.9109  -22.8591  -59.4165 H         1 UNK         0.0600 
    233 H233       -1.4326  -21.4778  -58.4309 H         1 UNK         0.0600 
    234 H234       -2.3518  -21.2338  -59.9107 H         1 UNK         0.0600 
    235 H235       -5.4365  -21.5921  -56.6014 H         1 UNK         0.3000 
    236 H236       -6.5219  -19.9543  -55.5835 H         1 UNK         0.0600 
    237 H237       -7.0218  -17.8468  -56.7386 H         1 UNK         0.0600 
    238 H238       -5.7362  -18.1174  -57.9038 H         1 UNK         0.0600 
    239 H239       -7.1400  -19.1834  -57.8714 H         1 UNK         0.0600 
    240 H240       -4.3747  -20.5403  -54.3654 H         1 UNK         0.3000 
    241 H241       -2.9484  -19.9870  -52.8094 H         1 UNK         0.0600 
    242 H242       -0.4113  -19.0095  -55.3496 H         1 UNK         0.3800 
    243 H243       -1.7238  -20.1637  -55.3055 H         1 UNK         0.3800 
    244 H244       -3.6105  -17.0360  -52.6536 H         1 UNK         0.0800 
    245 H245       -4.9177  -18.1444  -52.4094 H         1 UNK         0.0800 
    246 H246       -5.5710  -17.6360  -50.0919 H         1 UNK         0.0800 
    247 H247       -4.4554  -16.2928  -50.1175 H         1 UNK         0.0800 
@<TRIPOS>BOND
     1    1    2 1    
     2    1  127 1    
     3    1  128 1    
     4    1  129 1    
     5    2    3 2    
     6    2    4 am   BACKBONE|DICT|INTERRES
     7    4    5 1    
     8    4  130 1    
     9    5    6 1    
    10    5   65 1    
    11    5  131 1    
    12    6    7 1    
    13    6  132 1    
    14    6  133 1    
    15    7    8 1    
    16    8    9 1    
    17    8  134 1    
    18    8  135 1    
    19    9   10 ar   
    20    9   14 ar   
    21   10   11 ar   
    22   10  136 1    
    23   11   12 ar   
    24   11  126 1    
    25   12   13 ar   
    26   12  137 1    
    27   13   14 ar   
    28   13   15 1    
    29   14  138 1    
    30   15   16 1    
    31   15  139 1    
    32   15  140 1    
    33   16   17 1    
    34   17   18 1    
    35   17  141 1    
    36   17  142 1    
    37   18   19 1    
    38   18   67 1    
    39   18  143 1    
    40   19   20 am   BACKBONE|DICT|INTERRES
    41   19  144 1    
    42   20   21 2    
    43   20   22 1    
    44   22   23 1    
    45   22   24 1    
    46   22  145 1    
    47   23  146 1    
    48   23  147 1    
    49   23  148 1    
    50   24   25 am   BACKBONE|DICT|INTERRES
    51   24  149 1    
    52   25   26 2    
    53   25   27 1    
    54   27   28 1    
    55   27   29 1    
    56   27  150 1    
    57   28  151 1    
    58   28  152 1    
    59   28  153 1    
    60   29   30 am   BACKBONE|DICT|INTERRES
    61   29  154 1    
    62   30   31 2    
    63   30   32 1    
    64   32   33 1    
    65   32   34 1    
    66   32  155 1    
    67   33  156 1    
    68   33  157 1    
    69   33  158 1    
    70   34   35 am   BACKBONE|DICT|INTERRES
    71   34  159 1    
    72   35   36 2    
    73   35   37 1    
    74   37   38 1    
    75   37   39 1    
    76   37  160 1    
    77   38  161 1    
    78   38  162 1    
    79   38  163 1    
    80   39   40 am   BACKBONE|DICT|INTERRES
    81   39  164 1    
    82   40   41 2    
    83   40   42 1    
    84   42   43 1    
    85   42   44 1    
    86   42  165 1    
    87   43  166 1    
    88   43  167 1    
    89   43  168 1    
    90   44   45 am   BACKBONE|DICT|INTERRES
    91   44  169 1    
    92   45   46 2    
    93   45   47 1    
    94   47   48 1    
    95   47   49 1    
    96   47  170 1    
    97   48  171 1    
    98   48  172 1    
    99   48  173 1    
   100   49   50 am   BACKBONE|DICT|INTERRES
   101   49  174 1    
   102   50   51 2    
   103   50   52 1    
   104   52   53 1    
   105   52   54 1    
   106   52  175 1    
   107   53  176 1    
   108   53  177 1    
   109   53  178 1    
   110   54   55 am   BACKBONE|DICT|INTERRES
   111   54  179 1    
   112   55   56 2    
   113   55   57 1    
   114   57   58 1    
   115   57   59 1    
   116   57  180 1    
   117   58  181 1    
   118   58  182 1    
   119   58  183 1    
   120   59   60 am   BACKBONE|DICT|INTERRES
   121   59  184 1    
   122   60   61 2    
   123   60   62 1    
   124   62   63 1    
   125   62   64 1    
   126   62  185 1    
   127   63  186 1    
   128   63  187 1    
   129   63  188 1    
   130   64   65 am   BACKBONE|DICT|INTERRES
   131   64  189 1    
   132   65   66 2    
   133   67   68 2    
   134   67   69 am   BACKBONE|DICT|INTERRES
   135   69   70 1    
   136   69  190 1    
   137   70   71 1    
   138   70   72 1    
   139   70  191 1    
   140   71  192 1    
   141   71  193 1    
   142   71  194 1    
   143   72   73 2    
   144   72   74 am   BACKBONE|DICT|INTERRES
   145   74   75 1    
   146   74  195 1    
   147   75   76 1    
   148   75   77 1    
   149   75  196 1    
   150   76  197 1    
   151   76  198 1    
   152   76  199 1    
   153   77   78 2    
   154   77   79 am   BACKBONE|DICT|INTERRES
   155   79   80 1    
   156   79  200 1    
   157   80   81 1    
   158   80   82 1    
   159   80  201 1    
   160   81  202 1    
   161   81  203 1    
   162   81  204 1    
   163   82   83 2    
   164   82   84 am   BACKBONE|DICT|INTERRES
   165   84   85 1    
   166   84  205 1    
   167   85   86 1    
   168   85   87 1    
   169   85  206 1    
   170   86  207 1    
   171   86  208 1    
   172   86  209 1    
   173   87   88 2    
   174   87   89 am   BACKBONE|DICT|INTERRES
   175   89   90 1    
   176   89  210 1    
   177   90   91 1    
   178   90   92 1    
   179   90  211 1    
   180   91  212 1    
   181   91  213 1    
   182   91  214 1    
   183   92   93 2    
   184   92   94 am   BACKBONE|DICT|INTERRES
   185   94   95 1    
   186   94  215 1    
   187   95   96 1    
   188   95   97 1    
   189   95  216 1    
   190   96  217 1    
   191   96  218 1    
   192   96  219 1    
   193   97   98 2    
   194   97   99 am   BACKBONE|DICT|INTERRES
   195   99  100 1    
   196   99  220 1    
   197  100  101 1    
   198  100  102 1    
   199  100  221 1    
   200  101  222 1    
   201  101  223 1    
   202  101  224 1    
   203  102  103 2    
   204  102  104 am   BACKBONE|DICT|INTERRES
   205  104  105 1    
   206  104  225 1    
   207  105  106 1    
   208  105  107 1    
   209  105  226 1    
   210  106  227 1    
   211  106  228 1    
   212  106  229 1    
   213  107  108 2    
   214  107  109 am   BACKBONE|DICT|INTERRES
   215  109  110 1    
   216  109  230 1    
   217  110  111 1    
   218  110  112 1    
   219  110  231 1    
   220  111  232 1    
   221  111  233 1    
   222  111  234 1    
   223  112  113 2    
   224  112  114 am   BACKBONE|DICT|INTERRES
   225  114  115 1    
   226  114  235 1    
   227  115  116 1    
   228  115  117 1    
   229  115  236 1    
   230  116  237 1    
   231  116  238 1    
   232  116  239 1    
   233  117  118 2    
   234  117  119 am   BACKBONE|DICT|INTERRES
   235  119  120 1    
   236  119  240 1    
   237  120  121 1    
   238  120  124 1    
   239  120  241 1    
   240  121  122 am   BACKBONE|DICT|INTERRES
   241  121  123 2    
   242  122  242 1    
   243  122  243 1    
   244  124  125 1    
   245  124  244 1    
   246  124  245 1    
   247  125  126 1    
   248  126  246 1    
   249  126  247 1    
@<TRIPOS>SUBSTRUCTURE
     1 UNK         1 GROUP             0       ****    0 ROOT    
