@<TRIPOS>MOLECULE
3R540
247   249    1
SMALL
USER_CHARGES


@<TRIPOS>ATOM
      1 CA         -4.0565  -17.5348  -44.4120 C.3       0 UNK        -0.1800 
      2 C          -3.2829  -17.1605  -45.6683 C.2       0 UNK         0.5000 
      3 O          -3.8026  -17.2994  -46.7730 O.2       0 UNK        -0.5000 
      4 N          -2.0409  -16.6928  -45.5026 N.am      1 UNK        -0.5000 
      5 CA         -1.1719  -16.2250  -46.5847 C.3       1 UNK         0.1400 
      6 C6          0.3035  -16.1813  -46.0951 C.3       23 UNK        -0.0398 
      7 S7          1.4933  -15.2150  -47.0940 S.3       23 UNK        -0.2404 
      8 C8          2.2577  -16.4861  -48.1434 C.3       23 UNK        -0.0205 
      9 C9          1.2889  -17.0097  -49.1907 C.ar      23 UNK        -0.0193 
     10 C10         1.1064  -16.3197  -50.3933 C.ar      23 UNK        -0.1150 
     11 C11         0.2225  -16.8074  -51.3605 C.ar      23 UNK        -0.0193 
     12 C12        -0.4888  -17.9831  -51.1086 C.ar      23 UNK        -0.1150 
     13 C13        -0.3011  -18.6921  -49.9213 C.ar      23 UNK        -0.0193 
     14 C14         0.5877  -18.1962  -48.9631 C.ar      23 UNK        -0.1150 
     15 C15        -1.0559  -19.9921  -49.6910 C.3       23 UNK        -0.0205 
     16 S16         0.0711  -21.4193  -49.5767 S.3       23 UNK        -0.2404 
     17 C17         0.2124  -21.6002  -47.7629 C.3       23 UNK        -0.0398 
     18 CA         -0.5764  -22.7839  -47.1482 C.3       11 UNK         0.1400 
     19 N          -0.4431  -22.7862  -45.6895 N.am      11 UNK        -0.5000 
     20 C          -0.9757  -23.6887  -44.8509 C.2       10 UNK         0.5000 
     21 O          -1.5778  -24.6943  -45.2275 O.2       10 UNK        -0.5000 
     22 CA         -0.8782  -23.3917  -43.3395 C.3       10 UNK         0.1400 
     23 CB          0.2658  -24.1992  -42.7098 C.3       10 UNK        -0.1800 
     24 N          -0.6928  -21.9721  -43.0205 N.am      10 UNK        -0.5000 
     25 C          -1.5252  -20.9776  -43.3641 C.2       9 UNK         0.5000 
     26 O          -2.5947  -21.1561  -43.9473 O.2       9 UNK        -0.5000 
     27 CA         -1.0558  -19.5379  -43.0769 C.3       9 UNK         0.1400 
     28 CB         -1.7239  -18.9935  -41.8073 C.3       9 UNK        -0.1800 
     29 N           0.3992  -19.3719  -42.9739 N.am      9 UNK        -0.5000 
     30 C           1.2805  -19.6407  -43.9507 C.2       8 UNK         0.5000 
     31 O           0.9525  -20.1322  -45.0305 O.2       8 UNK        -0.5000 
     32 CA          2.7671  -19.3284  -43.6951 C.3       8 UNK         0.1400 
     33 CB          3.3313  -18.4139  -44.7943 C.3       8 UNK        -0.1800 
     34 N           2.9870  -18.6883  -42.3986 N.am      8 UNK        -0.5000 
     35 C           3.4753  -19.2967  -41.3089 C.2       7 UNK         0.5000 
     36 O           3.7877  -20.4873  -41.2752 O.2       7 UNK        -0.5000 
     37 CA          3.6462  -18.4389  -40.0372 C.3       7 UNK         0.1400 
     38 CB          5.1120  -18.0069  -39.8777 C.3       7 UNK        -0.1800 
     39 N           2.7989  -17.2448  -40.0163 N.am      7 UNK        -0.5000 
     40 C           1.4641  -17.2563  -39.9036 C.2       6 UNK         0.5000 
     41 O           0.8032  -18.2835  -39.7551 O.2       6 UNK        -0.5000 
     42 CA          0.7435  -15.8995  -40.0303 C.3       6 UNK         0.1400 
     43 CB          0.5248  -15.2759  -38.6440 C.3       6 UNK        -0.1800 
     44 N           1.4290  -14.9285  -40.8919 N.am      6 UNK        -0.5000 
     45 C           1.7171  -15.1124  -42.1869 C.2       5 UNK         0.5000 
     46 O           1.4811  -16.1573  -42.7959 O.2       5 UNK        -0.5000 
     47 CA          2.3561  -13.9257  -42.9284 C.3       5 UNK         0.1400 
     48 CB          3.4866  -14.3836  -43.8646 C.3       5 UNK        -0.1800 
     49 N           1.3397  -13.2227  -43.7068 N.am      5 UNK        -0.5000 
     50 C           0.4205  -12.3960  -43.1888 C.2       4 UNK         0.5000 
     51 O           0.3941  -12.0797  -41.9978 O.2       4 UNK        -0.5000 
     52 CA         -0.6615  -11.8569  -44.1488 C.3       4 UNK         0.1400 
     53 CB         -1.2064  -10.4756  -43.7279 C.3       4 UNK        -0.1800 
     54 N          -0.2659  -11.8656  -45.5623 N.am      4 UNK        -0.5000 
     55 C           0.6827  -11.1235  -46.1568 C.2       3 UNK         0.5000 
     56 O           1.3831  -10.3076  -45.5568 O.2       3 UNK        -0.5000 
     57 CA          0.9063  -11.3285  -47.6718 C.3       3 UNK         0.1400 
     58 CB          2.3759  -11.6713  -47.9708 C.3       3 UNK        -0.1800 
     59 N           0.0528  -12.3753  -48.2398 N.am      3 UNK        -0.5000 
     60 C          -1.1910  -12.1899  -48.7034 C.2       2 UNK         0.5000 
     61 O          -1.7427  -11.0908  -48.7586 O.2       2 UNK        -0.5000 
     62 CA         -1.9592  -13.4485  -49.1585 C.3       2 UNK         0.1400 
     63 CB         -1.7656  -13.6634  -50.6663 C.3       2 UNK        -0.1800 
     64 N          -1.5760  -14.6750  -48.4507 N.am      2 UNK        -0.5000 
     65 C          -1.6849  -14.8735  -47.1293 C.2       1 UNK         0.5000 
     66 O          -2.1126  -14.0238  -46.3443 O.2       1 UNK        -0.5000 
     67 C          -2.0548  -22.7893  -47.5991 C.2       11 UNK         0.5000 
     68 O          -2.3774  -23.4773  -48.5666 O.2       11 UNK        -0.5000 
     69 N          -2.9254  -22.0555  -46.8889 N.am      12 UNK        -0.5000 
     70 CA         -4.3558  -21.9747  -47.1895 C.3       12 UNK         0.1400 
     71 CB         -4.9751  -20.8027  -46.4167 C.3       12 UNK        -0.1800 
     72 C          -5.1048  -23.2811  -46.8746 C.2       12 UNK         0.5000 
     73 O          -6.0406  -23.6303  -47.5938 O.2       12 UNK        -0.5000 
     74 N          -4.6707  -23.9832  -45.8191 N.am      13 UNK        -0.5000 
     75 CA         -5.2080  -25.2819  -45.4155 C.3       13 UNK         0.1400 
     76 CB         -4.8140  -25.5679  -43.9578 C.3       13 UNK        -0.1800 
     77 C          -4.7311  -26.4097  -46.3470 C.2       13 UNK         0.5000 
     78 O          -5.5287  -27.2688  -46.7239 O.2       13 UNK        -0.5000 
     79 N          -3.4418  -26.3761  -46.7094 N.am      14 UNK        -0.5000 
     80 CA         -2.8050  -27.3391  -47.6077 C.3       14 UNK         0.1400 
     81 CB         -1.2815  -27.2327  -47.4352 C.3       14 UNK        -0.1800 
     82 C          -3.1809  -27.1431  -49.0893 C.2       14 UNK         0.5000 
     83 O          -3.0970  -28.1004  -49.8591 O.2       14 UNK        -0.5000 
     84 N          -3.5407  -25.9047  -49.4614 N.am      15 UNK        -0.5000 
     85 CA         -3.6961  -25.3895  -50.8271 C.3       15 UNK         0.1400 
     86 CB         -4.8806  -26.0587  -51.5532 C.3       15 UNK        -0.1800 
     87 C          -2.3685  -25.4696  -51.6109 C.2       15 UNK         0.5000 
     88 O          -2.3556  -25.8412  -52.7855 O.2       15 UNK        -0.5000 
     89 N          -1.2623  -25.1403  -50.9272 N.am      16 UNK        -0.5000 
     90 CA          0.1093  -25.3307  -51.4097 C.3       16 UNK         0.1400 
     91 CB          1.0913  -25.1435  -50.2436 C.3       16 UNK        -0.1800 
     92 C           0.4839  -24.4324  -52.6040 C.2       16 UNK         0.5000 
     93 O           1.2980  -24.8386  -53.4336 O.2       16 UNK        -0.5000 
     94 N          -0.1457  -23.2547  -52.6911 N.am      17 UNK        -0.5000 
     95 CA         -0.0387  -22.3164  -53.8106 C.3       17 UNK         0.1400 
     96 CB          0.1919  -20.9028  -53.2524 C.3       17 UNK        -0.1800 
     97 C          -1.2923  -22.3757  -54.7078 C.2       17 UNK         0.5000 
     98 O          -1.6313  -21.3799  -55.3482 O.2       17 UNK        -0.5000 
     99 N          -1.9965  -23.5184  -54.6975 N.am      18 UNK        -0.5000 
    100 CA        -3.2662  -23.8381  -55.3681 C.3       18 UNK         0.1400 
    101 CB        -3.1897  -23.6007  -56.8888 C.3       18 UNK        -0.1800 
    102 C         -4.5010  -23.1491  -54.7523 C.2       18 UNK         0.5000 
    103 O         -5.5992  -23.7002  -54.8340 O.2       18 UNK        -0.5000 
    104 N         -4.3074  -21.9875  -54.1236 N.am      19 UNK        -0.5000 
    105 CA        -5.3041  -21.2083  -53.4070 C.3       19 UNK         0.1400 
    106 CB        -6.1198  -20.3629  -54.4017 C.3       19 UNK        -0.1800 
    107 C         -4.5739  -20.3075  -52.4044 C.2       19 UNK         0.5000 
    108 O         -3.3963  -19.9971  -52.6022 O.2       19 UNK        -0.5000 
    109 N         -5.3016  -19.8542  -51.3764 N.am      20 UNK        -0.5000 
    110 CA        -4.8286  -18.9217  -50.3454 C.3       20 UNK         0.1400 
    111 CB        -5.9488  -18.7394  -49.3110 C.3       20 UNK        -0.1800 
    112 C         -4.3898  -17.5513  -50.9036 C.2       20 UNK         0.5000 
    113 O         -3.5192  -16.9023  -50.3273 O.2       20 UNK        -0.5000 
    114 N         -4.9936  -17.1558  -52.0311 N.am      21 UNK        -0.5000 
    115 CA        -4.7063  -15.9272  -52.7678 C.3       21 UNK         0.1400 
    116 CB        -6.0236  -15.4236  -53.3830 C.3       21 UNK        -0.1800 
    117 C         -3.6243  -16.1066  -53.8555 C.2       21 UNK         0.5000 
    118 O         -3.3856  -15.1542  -54.5979 O.2       21 UNK        -0.5000 
    119 N         -3.0054  -17.2968  -53.9383 N.am      22 UNK        -0.5000 
    120 CA        -2.1025  -17.7767  -55.0016 C.3       22 UNK         0.1400 
    121 C         -2.8846  -18.0701  -56.3123 C.2       22 UNK         0.5000 
    122 N         -2.9281  -19.3214  -56.7469 N.am      22 UNK        -0.7600 
    123 O         -3.4206  -17.1758  -56.9615 O.2       22 UNK        -0.5000 
    124 C124       -0.8579  -16.8729  -55.2648 C.3       23 UNK        -0.0398 
    125 S125        0.5000  -17.1523  -54.0815 S.3       23 UNK        -0.2404 
    126 C126        0.0351  -16.0819  -52.6841 C.3       23 UNK        -0.0205 
    127 H127       -4.1354  -18.6187  -44.3285 H         1 UNK         0.0600 
    128 H128       -3.5724  -17.1558  -43.5118 H         1 UNK         0.0600 
    129 H129       -5.0638  -17.1205  -44.4529 H         1 UNK         0.0600 
    130 H130       -1.6894  -16.5504  -44.5676 H         1 UNK         0.3000 
    131 H131       -1.2396  -16.9504  -47.3967 H         1 UNK         0.0600 
    132 H132        0.3353  -15.7404  -45.0990 H         1 UNK         0.0800 
    133 H133        0.6764  -17.1986  -45.9724 H         1 UNK         0.0800 
    134 H134        2.6353  -17.3000  -47.5241 H         1 UNK         0.0800 
    135 H135        3.1290  -16.0542  -48.6380 H         1 UNK         0.0800 
    136 H136        1.6582  -15.4082  -50.5762 H         1 UNK         0.1150 
    137 H137       -1.1769  -18.3557  -51.8541 H         1 UNK         0.1150 
    138 H138        0.7416  -18.7337  -48.0396 H         1 UNK         0.1150 
    139 H139       -1.6757  -19.9039  -48.7980 H         1 UNK         0.0800 
    140 H140       -1.7455  -20.1805  -50.5137 H         1 UNK         0.0800 
    141 H141        1.2714  -21.7035  -47.5227 H         1 UNK         0.0800 
    142 H142       -0.1063  -20.6715  -47.2914 H         1 UNK         0.0800 
    143 H143       -0.1293  -23.7113  -47.5113 H         1 UNK         0.0600 
    144 H144        0.0295  -21.9816  -45.2916 H         1 UNK         0.3000 
    145 H145       -1.8179  -23.7127  -42.8857 H         1 UNK         0.0600 
    146 H146        0.2906  -24.0712  -41.6275 H         1 UNK         0.0600 
    147 H147        0.1462  -25.2656  -42.9066 H         1 UNK         0.0600 
    148 H148        1.2362  -23.8985  -43.1070 H         1 UNK         0.0600 
    149 H149        0.1658  -21.7248  -42.5509 H         1 UNK         0.3000 
    150 H150       -1.3854  -18.9311  -43.9205 H         1 UNK         0.0600 
    151 H151       -2.8096  -19.0818  -41.8655 H         1 UNK         0.0600 
    152 H152       -1.4919  -17.9387  -41.6615 H         1 UNK         0.0600 
    153 H153       -1.3984  -19.5363  -40.9192 H         1 UNK         0.0600 
    154 H154        0.7481  -18.9825  -42.1089 H         1 UNK         0.3000 
    155 H155        3.3026  -20.2784  -43.7451 H         1 UNK         0.0600 
    156 H156        4.3900  -18.2108  -44.6326 H         1 UNK         0.0600 
    157 H157        2.8104  -17.4576  -44.8293 H         1 UNK         0.0600 
    158 H158        3.2382  -18.8786  -45.7764 H         1 UNK         0.0600 
    159 H159        2.6981  -17.7176  -42.3386 H         1 UNK         0.3000 
    160 H160        3.3773  -19.0627  -39.1821 H         1 UNK         0.0600 
    161 H161        5.4342  -17.3661  -40.6994 H         1 UNK         0.0600 
    162 H162        5.7751  -18.8729  -39.8574 H         1 UNK         0.0600 
    163 H163        5.2640  -17.4619  -38.9458 H         1 UNK         0.0600 
    164 H164        3.2615  -16.3558  -40.1368 H         1 UNK         0.3000 
    165 H165       -0.2350  -16.0936  -40.4738 H         1 UNK         0.0600 
    166 H166        1.4705  -15.0249  -38.1620 H         1 UNK         0.0600 
    167 H167       -0.0711  -14.3653  -38.7105 H         1 UNK         0.0600 
    168 H168       -0.0078  -15.9633  -37.9853 H         1 UNK         0.0600 
    169 H169        1.6169  -14.0238  -40.4827 H         1 UNK         0.3000 
    170 H170        2.7869  -13.2385  -42.1971 H         1 UNK         0.0600 
    171 H171        4.2645  -14.9081  -43.3085 H         1 UNK         0.0600 
    172 H172        3.1271  -15.0608  -44.6384 H         1 UNK         0.0600 
    173 H173        3.9563  -13.5334  -44.3593 H         1 UNK         0.0600 
    174 H174        1.2887  -13.4438  -44.6899 H         1 UNK         0.3000 
    175 H175       -1.4902  -12.5621  -44.0737 H         1 UNK         0.0600 
    176 H176       -1.9714  -10.1258  -44.4211 H         1 UNK         0.0600 
    177 H177       -1.6641  -10.5205  -42.7391 H         1 UNK         0.0600 
    178 H178       -0.4193   -9.7224  -43.6869 H         1 UNK         0.0600 
    179 H179       -0.7976  -12.5109  -46.1372 H         1 UNK         0.3000 
    180 H180        0.6805  -10.3788  -48.1609 H         1 UNK         0.0600 
    181 H181        2.5340  -11.8428  -49.0357 H         1 UNK         0.0600 
    182 H182        3.0349  -10.8543  -47.6748 H         1 UNK         0.0600 
    183 H183        2.7034  -12.5615  -47.4342 H         1 UNK         0.0600 
    184 H184        0.4227  -13.3163  -48.2168 H         1 UNK         0.3000 
    185 H185       -3.0206  -13.2780  -48.9675 H         1 UNK         0.0600 
    186 H186       -2.3074  -14.5420  -51.0133 H         1 UNK         0.0600 
    187 H187       -2.1334  -12.8081  -51.2344 H         1 UNK         0.0600 
    188 H188       -0.7132  -13.7967  -50.9184 H         1 UNK         0.0600 
    189 H189       -1.2293  -15.4289  -49.0282 H         1 UNK         0.3000 
    190 H190       -2.6092  -21.5687  -46.0582 H         1 UNK         0.3000 
    191 H191       -4.4697  -21.7747  -48.2575 H         1 UNK         0.0600 
    192 H192       -6.0391  -20.7064  -46.6354 H         1 UNK         0.0600 
    193 H193       -4.5005  -19.8621  -46.6910 H         1 UNK         0.0600 
    194 H194       -4.8755  -20.9300  -45.3385 H         1 UNK         0.0600 
    195 H195       -3.8785  -23.6341  -45.2994 H         1 UNK         0.3000 
    196 H196       -6.2981  -25.2396  -45.4684 H         1 UNK         0.0600 
    197 H197       -5.2302  -26.5186  -43.6224 H         1 UNK         0.0600 
    198 H198       -5.1912  -24.7942  -43.2889 H         1 UNK         0.0600 
    199 H199       -3.7323  -25.6217  -43.8313 H         1 UNK         0.0600 
    200 H200       -2.8376  -25.6686  -46.2999 H         1 UNK         0.3000 
    201 H201       -3.1142  -28.3450  -47.3161 H         1 UNK         0.0600 
    202 H202       -0.9855  -27.4474  -46.4081 H         1 UNK         0.0600 
    203 H203       -0.9193  -26.2346  -47.6841 H         1 UNK         0.0600 
    204 H204       -0.7612  -27.9426  -48.0795 H         1 UNK         0.0600 
    205 H205       -3.5089  -25.1846  -48.7491 H         1 UNK         0.3000 
    206 H206       -3.9295  -24.3282  -50.7303 H         1 UNK         0.0600 
    207 H207       -5.7949  -25.9844  -50.9644 H         1 UNK         0.0600 
    208 H208       -5.0718  -25.5752  -52.5119 H         1 UNK         0.0600 
    209 H209       -4.6940  -27.1140  -51.7528 H         1 UNK         0.0600 
    210 H210       -1.3780  -24.7845  -49.9860 H         1 UNK         0.3000 
    211 H211        0.1935  -26.3648  -51.7508 H         1 UNK         0.0600 
    212 H212        1.0384  -24.1393  -49.8263 H         1 UNK         0.0600 
    213 H213        2.1192  -25.3078  -50.5693 H         1 UNK         0.0600 
    214 H214        0.8899  -25.8522  -49.4404 H         1 UNK         0.0600 
    215 H215       -0.7904  -23.0039  -51.9548 H         1 UNK         0.3000 
    216 H216        0.8157  -22.5701  -54.4407 H         1 UNK         0.0600 
    217 H217        0.3819  -20.1908  -54.0556 H         1 UNK         0.0600 
    218 H218        1.0528  -20.8725  -52.5846 H         1 UNK         0.0600 
    219 H219       -0.6758  -20.5484  -52.6973 H         1 UNK         0.0600 
    220 H220       -1.6615  -24.2599  -54.0936 H         1 UNK         0.3000 
    221 H221       -3.4092  -24.9089  -55.2155 H         1 UNK         0.0600 
    222 H222       -3.1252  -22.5413  -57.1369 H         1 UNK         0.0600 
    223 H223       -2.3260  -24.1028  -57.3246 H         1 UNK         0.0600 
    224 H224       -4.0783  -23.9927  -57.3850 H         1 UNK         0.0600 
    225 H225       -3.3751  -21.5884  -54.1063 H         1 UNK         0.3000 
    226 H226       -5.9649  -21.8822  -52.8577 H         1 UNK         0.0600 
    227 H227       -6.8746  -19.7668  -53.8878 H         1 UNK         0.0600 
    228 H228       -5.4819  -19.6772  -54.9614 H         1 UNK         0.0600 
    229 H229       -6.6426  -20.9929  -55.1215 H         1 UNK         0.0600 
    230 H230       -6.2638  -20.1507  -51.2952 H         1 UNK         0.3000 
    231 H231       -3.9683  -19.3713  -49.8476 H         1 UNK         0.0600 
    232 H232       -5.6289  -18.0892  -48.4969 H         1 UNK         0.0600 
    233 H233       -6.2399  -19.6927  -48.8711 H         1 UNK         0.0600 
    234 H234       -6.8381  -18.2909  -49.7555 H         1 UNK         0.0600 
    235 H235       -5.6962  -17.7608  -52.4292 H         1 UNK         0.3000 
    236 H236       -4.3477  -15.1640  -52.0750 H         1 UNK         0.0600 
    237 H237       -6.4190  -16.1270  -54.1169 H         1 UNK         0.0600 
    238 H238       -6.7847  -15.2731  -52.6171 H         1 UNK         0.0600 
    239 H239       -5.8833  -14.4669  -53.8877 H         1 UNK         0.0600 
    240 H240       -3.2731  -18.0143  -53.2752 H         1 UNK         0.3000 
    241 H241       -1.7330  -18.7358  -54.6360 H         1 UNK         0.0600 
    242 H242       -3.4154  -19.5279  -57.6037 H         1 UNK         0.3800 
    243 H243       -2.4569  -20.0734  -56.2436 H         1 UNK         0.3800 
    244 H244       -1.1040  -15.8131  -55.3036 H         1 UNK         0.0800 
    245 H245       -0.4342  -17.0992  -56.2450 H         1 UNK         0.0800 
    246 H246        0.6356  -15.1721  -52.7225 H         1 UNK         0.0800 
    247 H247       -1.0036  -15.7685  -52.7668 H         1 UNK         0.0800 
@<TRIPOS>BOND
     1    1    2 1    
     2    1  127 1    
     3    1  128 1    
     4    1  129 1    
     5    2    3 2    
     6    2    4 am   BACKBONE|DICT|INTERRES
     7    4    5 1    
     8    4  130 1    
     9    5    6 1    
    10    5   65 1    
    11    5  131 1    
    12    6    7 1    
    13    6  132 1    
    14    6  133 1    
    15    7    8 1    
    16    8    9 1    
    17    8  134 1    
    18    8  135 1    
    19    9   10 ar   
    20    9   14 ar   
    21   10   11 ar   
    22   10  136 1    
    23   11   12 ar   
    24   11  126 1    
    25   12   13 ar   
    26   12  137 1    
    27   13   14 ar   
    28   13   15 1    
    29   14  138 1    
    30   15   16 1    
    31   15  139 1    
    32   15  140 1    
    33   16   17 1    
    34   17   18 1    
    35   17  141 1    
    36   17  142 1    
    37   18   19 1    
    38   18   67 1    
    39   18  143 1    
    40   19   20 am   BACKBONE|DICT|INTERRES
    41   19  144 1    
    42   20   21 2    
    43   20   22 1    
    44   22   23 1    
    45   22   24 1    
    46   22  145 1    
    47   23  146 1    
    48   23  147 1    
    49   23  148 1    
    50   24   25 am   BACKBONE|DICT|INTERRES
    51   24  149 1    
    52   25   26 2    
    53   25   27 1    
    54   27   28 1    
    55   27   29 1    
    56   27  150 1    
    57   28  151 1    
    58   28  152 1    
    59   28  153 1    
    60   29   30 am   BACKBONE|DICT|INTERRES
    61   29  154 1    
    62   30   31 2    
    63   30   32 1    
    64   32   33 1    
    65   32   34 1    
    66   32  155 1    
    67   33  156 1    
    68   33  157 1    
    69   33  158 1    
    70   34   35 am   BACKBONE|DICT|INTERRES
    71   34  159 1    
    72   35   36 2    
    73   35   37 1    
    74   37   38 1    
    75   37   39 1    
    76   37  160 1    
    77   38  161 1    
    78   38  162 1    
    79   38  163 1    
    80   39   40 am   BACKBONE|DICT|INTERRES
    81   39  164 1    
    82   40   41 2    
    83   40   42 1    
    84   42   43 1    
    85   42   44 1    
    86   42  165 1    
    87   43  166 1    
    88   43  167 1    
    89   43  168 1    
    90   44   45 am   BACKBONE|DICT|INTERRES
    91   44  169 1    
    92   45   46 2    
    93   45   47 1    
    94   47   48 1    
    95   47   49 1    
    96   47  170 1    
    97   48  171 1    
    98   48  172 1    
    99   48  173 1    
   100   49   50 am   BACKBONE|DICT|INTERRES
   101   49  174 1    
   102   50   51 2    
   103   50   52 1    
   104   52   53 1    
   105   52   54 1    
   106   52  175 1    
   107   53  176 1    
   108   53  177 1    
   109   53  178 1    
   110   54   55 am   BACKBONE|DICT|INTERRES
   111   54  179 1    
   112   55   56 2    
   113   55   57 1    
   114   57   58 1    
   115   57   59 1    
   116   57  180 1    
   117   58  181 1    
   118   58  182 1    
   119   58  183 1    
   120   59   60 am   BACKBONE|DICT|INTERRES
   121   59  184 1    
   122   60   61 2    
   123   60   62 1    
   124   62   63 1    
   125   62   64 1    
   126   62  185 1    
   127   63  186 1    
   128   63  187 1    
   129   63  188 1    
   130   64   65 am   BACKBONE|DICT|INTERRES
   131   64  189 1    
   132   65   66 2    
   133   67   68 2    
   134   67   69 am   BACKBONE|DICT|INTERRES
   135   69   70 1    
   136   69  190 1    
   137   70   71 1    
   138   70   72 1    
   139   70  191 1    
   140   71  192 1    
   141   71  193 1    
   142   71  194 1    
   143   72   73 2    
   144   72   74 am   BACKBONE|DICT|INTERRES
   145   74   75 1    
   146   74  195 1    
   147   75   76 1    
   148   75   77 1    
   149   75  196 1    
   150   76  197 1    
   151   76  198 1    
   152   76  199 1    
   153   77   78 2    
   154   77   79 am   BACKBONE|DICT|INTERRES
   155   79   80 1    
   156   79  200 1    
   157   80   81 1    
   158   80   82 1    
   159   80  201 1    
   160   81  202 1    
   161   81  203 1    
   162   81  204 1    
   163   82   83 2    
   164   82   84 am   BACKBONE|DICT|INTERRES
   165   84   85 1    
   166   84  205 1    
   167   85   86 1    
   168   85   87 1    
   169   85  206 1    
   170   86  207 1    
   171   86  208 1    
   172   86  209 1    
   173   87   88 2    
   174   87   89 am   BACKBONE|DICT|INTERRES
   175   89   90 1    
   176   89  210 1    
   177   90   91 1    
   178   90   92 1    
   179   90  211 1    
   180   91  212 1    
   181   91  213 1    
   182   91  214 1    
   183   92   93 2    
   184   92   94 am   BACKBONE|DICT|INTERRES
   185   94   95 1    
   186   94  215 1    
   187   95   96 1    
   188   95   97 1    
   189   95  216 1    
   190   96  217 1    
   191   96  218 1    
   192   96  219 1    
   193   97   98 2    
   194   97   99 am   BACKBONE|DICT|INTERRES
   195   99  100 1    
   196   99  220 1    
   197  100  101 1    
   198  100  102 1    
   199  100  221 1    
   200  101  222 1    
   201  101  223 1    
   202  101  224 1    
   203  102  103 2    
   204  102  104 am   BACKBONE|DICT|INTERRES
   205  104  105 1    
   206  104  225 1    
   207  105  106 1    
   208  105  107 1    
   209  105  226 1    
   210  106  227 1    
   211  106  228 1    
   212  106  229 1    
   213  107  108 2    
   214  107  109 am   BACKBONE|DICT|INTERRES
   215  109  110 1    
   216  109  230 1    
   217  110  111 1    
   218  110  112 1    
   219  110  231 1    
   220  111  232 1    
   221  111  233 1    
   222  111  234 1    
   223  112  113 2    
   224  112  114 am   BACKBONE|DICT|INTERRES
   225  114  115 1    
   226  114  235 1    
   227  115  116 1    
   228  115  117 1    
   229  115  236 1    
   230  116  237 1    
   231  116  238 1    
   232  116  239 1    
   233  117  118 2    
   234  117  119 am   BACKBONE|DICT|INTERRES
   235  119  120 1    
   236  119  240 1    
   237  120  121 1    
   238  120  124 1    
   239  120  241 1    
   240  121  122 am   BACKBONE|DICT|INTERRES
   241  121  123 2    
   242  122  242 1    
   243  122  243 1    
   244  124  125 1    
   245  124  244 1    
   246  124  245 1    
   247  125  126 1    
   248  126  246 1    
   249  126  247 1    
@<TRIPOS>SUBSTRUCTURE
     1 UNK         1 GROUP             0       ****    0 ROOT    
