@<TRIPOS>MOLECULE
3R540
247   249    1
SMALL
USER_CHARGES


@<TRIPOS>ATOM
      1 CA         -3.0488  -11.5818  -49.1831 C.3       0 UNK        -0.1800 
      2 C          -2.2583  -12.3329  -48.1218 C.2       0 UNK         0.5000 
      3 O          -2.2624  -11.9345  -46.9572 O.2       0 UNK        -0.5000 
      4 N          -1.5940  -13.4293  -48.5134 N.am      1 UNK        -0.5000 
      5 CA         -0.7313  -14.2585  -47.6561 C.3       1 UNK         0.1400 
      6 C6          0.0511  -15.3206  -48.4649 C.3       23 UNK        -0.0398 
      7 S7          1.0990  -14.5741  -49.7557 S.3       23 UNK        -0.2404 
      8 C8          2.3669  -15.8619  -49.9729 C.3       23 UNK        -0.0205 
      9 C9          1.8037  -17.1245  -50.6110 C.ar      23 UNK        -0.0193 
     10 C10         1.3958  -17.1081  -51.9476 C.ar      23 UNK        -0.1150 
     11 C11         0.9123  -18.2677  -52.5577 C.ar      23 UNK        -0.0193 
     12 C12         0.8334  -19.4492  -51.8140 C.ar      23 UNK        -0.1150 
     13 C13         1.2598  -19.4933  -50.4818 C.ar      23 UNK        -0.0193 
     14 C14         1.7342  -18.3171  -49.8836 C.ar      23 UNK        -0.1150 
     15 C15         1.2611  -20.8493  -49.7729 C.3       23 UNK        -0.0205 
     16 S16         1.5115  -20.8216  -47.9590 S.3       23 UNK        -0.2404 
     17 C17         1.9729  -22.5698  -47.6607 C.3       23 UNK        -0.0398 
     18 CA          1.0639  -23.3897  -46.7045 C.3       11 UNK         0.1400 
     19 N           1.3814  -23.1251  -45.3006 N.am      11 UNK        -0.5000 
     20 C           1.8312  -24.0394  -44.4311 C.2       10 UNK         0.5000 
     21 O           1.9985  -25.2285  -44.7115 O.2       10 UNK        -0.5000 
     22 CA          2.1762  -23.5230  -43.0193 C.3       10 UNK         0.1400 
     23 CB          2.7979  -24.5969  -42.1025 C.3       10 UNK        -0.1800 
     24 N           3.0190  -22.3270  -43.0662 N.am      10 UNK        -0.5000 
     25 C           4.2444  -22.1869  -43.5918 C.2       9 UNK         0.5000 
     26 O           4.9063  -23.1104  -44.0666 O.2       9 UNK        -0.5000 
     27 CA          4.8270  -20.7580  -43.6013 C.3       9 UNK         0.1400 
     28 CB          4.6202  -20.1168  -44.9825 C.3       9 UNK        -0.1800 
     29 N           4.2409  -19.8871  -42.5773 N.am      9 UNK        -0.5000 
     30 C           4.4685  -20.0004  -41.2602 C.2       8 UNK         0.5000 
     31 O           5.2711  -20.7960  -40.7708 O.2       8 UNK        -0.5000 
     32 CA          3.6272  -19.1033  -40.3318 C.3       8 UNK         0.1400 
     33 CB          4.2306  -17.6942  -40.2287 C.3       8 UNK        -0.1800 
     34 N           2.2337  -19.0067  -40.7677 N.am      8 UNK        -0.5000 
     35 C           1.3573  -20.0219  -40.7637 C.2       7 UNK         0.5000 
     36 O           1.6036  -21.1397  -40.3122 O.2       7 UNK        -0.5000 
     37 CA         -0.0036  -19.7616  -41.4314 C.3       7 UNK         0.1400 
     38 CB         -0.9873  -19.0916  -40.4607 C.3       7 UNK        -0.1800 
     39 N           0.1421  -18.9458  -42.6367 N.am      7 UNK        -0.5000 
     40 C           0.6292  -19.4058  -43.7971 C.2       6 UNK         0.5000 
     41 O           0.9358  -20.5800  -43.9898 O.2       6 UNK        -0.5000 
     42 CA          0.8025  -18.3958  -44.9393 C.3       6 UNK         0.1400 
     43 CB         -0.4427  -18.4144  -45.8241 C.3       6 UNK        -0.1800 
     44 N           1.0463  -17.0329  -44.4761 N.am      6 UNK        -0.5000 
     45 C           2.1702  -16.6262  -43.8758 C.2       5 UNK         0.5000 
     46 O           3.1319  -17.3631  -43.6571 O.2       5 UNK        -0.5000 
     47 CA          2.1890  -15.1680  -43.3820 C.3       5 UNK         0.1400 
     48 CB          2.4265  -14.1946  -44.5467 C.3       5 UNK        -0.1800 
     49 N           0.9693  -14.7874  -42.6611 N.am      5 UNK        -0.5000 
     50 C           0.5258  -15.3763  -41.5434 C.2       4 UNK         0.5000 
     51 O           1.0841  -16.3478  -41.0336 O.2       4 UNK        -0.5000 
     52 CA         -0.7498  -14.8300  -40.8707 C.3       4 UNK         0.1400 
     53 CB         -0.3896  -13.8976  -39.6990 C.3       4 UNK        -0.1800 
     54 N          -1.7421  -14.2063  -41.7565 N.am      4 UNK        -0.5000 
     55 C          -1.6718  -13.0633  -42.4503 C.2       3 UNK         0.5000 
     56 O          -0.6499  -12.3821  -42.5476 O.2       3 UNK        -0.5000 
     57 CA         -2.9683  -12.6388  -43.1743 C.3       3 UNK         0.1400 
     58 CB         -2.9244  -11.1770  -43.6524 C.3       3 UNK        -0.1800 
     59 N          -3.2436  -13.5027  -44.3205 N.am      3 UNK        -0.5000 
     60 C          -3.6830  -14.7690  -44.2572 C.2       2 UNK         0.5000 
     61 O          -4.0222  -15.3156  -43.2064 O.2       2 UNK        -0.5000 
     62 CA         -3.7197  -15.5756  -45.5738 C.3       2 UNK         0.1400 
     63 CB         -5.1479  -15.6067  -46.1385 C.3       2 UNK        -0.1800 
     64 N          -2.8138  -15.0715  -46.6101 N.am      2 UNK        -0.5000 
     65 C          -1.4858  -14.9278  -46.4875 C.2       1 UNK         0.5000 
     66 O          -0.8586  -15.2675  -45.4851 O.2       1 UNK        -0.5000 
     67 C          -0.4451  -23.2186  -46.9728 C.2       11 UNK         0.5000 
     68 O          -1.1775  -22.6725  -46.1434 O.2       11 UNK        -0.5000 
     69 N          -0.8772  -23.6781  -48.1561 N.am      12 UNK        -0.5000 
     70 CA         -2.2684  -23.7488  -48.6182 C.3       12 UNK         0.1400 
     71 CB         -2.2825  -24.4120  -50.0040 C.3       12 UNK        -0.1800 
     72 C          -3.0313  -22.4111  -48.6726 C.2       12 UNK         0.5000 
     73 O          -4.2587  -22.4211  -48.7835 O.2       12 UNK        -0.5000 
     74 N          -2.3223  -21.2768  -48.6122 N.am      13 UNK        -0.5000 
     75 CA         -2.9253  -19.9458  -48.5243 C.3       13 UNK         0.1400 
     76 CB         -1.9030  -18.8739  -48.9295 C.3       13 UNK        -0.1800 
     77 C          -3.5628  -19.6655  -47.1497 C.2       13 UNK         0.5000 
     78 O          -4.4564  -18.8252  -47.0743 O.2       13 UNK        -0.5000 
     79 N          -3.1706  -20.4150  -46.1061 N.am      14 UNK        -0.5000 
     80 CA         -3.8199  -20.3908  -44.7907 C.3       14 UNK         0.1400 
     81 CB         -2.9431  -21.1380  -43.7760 C.3       14 UNK        -0.1800 
     82 C          -5.2367  -20.9994  -44.8266 C.2       14 UNK         0.5000 
     83 O          -6.0974  -20.5903  -44.0479 O.2       14 UNK        -0.5000 
     84 N          -5.4560  -21.9393  -45.7570 N.am      15 UNK        -0.5000 
     85 CA         -6.7525  -22.5425  -46.0703 C.3       15 UNK         0.1400 
     86 CB         -6.5155  -24.0004  -46.5004 C.3       15 UNK        -0.1800 
     87 C          -7.5107  -21.7658  -47.1687 C.2       15 UNK         0.5000 
     88 O          -8.6041  -22.1825  -47.5511 O.2       15 UNK        -0.5000 
     89 N          -6.9097  -20.6765  -47.6747 N.am      16 UNK        -0.5000 
     90 CA         -7.3701  -19.8005  -48.7587 C.3       16 UNK         0.1400 
     91 CB         -8.7063  -19.1208  -48.3953 C.3       16 UNK        -0.1800 
     92 C          -7.4040  -20.4684  -50.1515 C.2       16 UNK         0.5000 
     93 O          -7.9614  -19.8878  -51.0841 O.2       16 UNK        -0.5000 
     94 N          -6.7904  -21.6522  -50.2887 N.am      17 UNK        -0.5000 
     95 CA         -6.6411  -22.3632  -51.5591 C.3       17 UNK         0.1400 
     96 CB         -6.4852  -23.8661  -51.2832 C.3       17 UNK        -0.1800 
     97 C          -5.4407  -21.8264  -52.3554 C.2       17 UNK         0.5000 
     98 O          -5.5220  -21.6929  -53.5778 O.2       17 UNK        -0.5000 
     99 N          -4.3488  -21.5257  -51.6343 N.am      18 UNK        -0.5000 
    100 CA        -3.1191  -20.8734  -52.1028 C.3       18 UNK         0.1400 
    101 CB        -3.4004  -19.3833  -52.3832 C.3       18 UNK        -0.1800 
    102 C         -2.4269  -21.5848  -53.2827 C.2       18 UNK         0.5000 
    103 O         -1.7959  -20.9230  -54.1037 O.2       18 UNK        -0.5000 
    104 N         -2.5830  -22.9152  -53.3671 N.am      19 UNK        -0.5000 
    105 CA        -2.1159  -23.7773  -54.4610 C.3       19 UNK         0.1400 
    106 CB        -0.5751  -23.8720  -54.4549 C.3       19 UNK        -0.1800 
    107 C         -2.6924  -23.3487  -55.8303 C.2       19 UNK         0.5000 
    108 O         -1.9635  -23.3031  -56.8223 O.2       19 UNK        -0.5000 
    109 N         -3.9904  -23.0026  -55.8314 N.am      20 UNK        -0.5000 
    110 CA        -4.7514  -22.4004  -56.9312 C.3       20 UNK         0.1400 
    111 CB        -4.8437  -23.3498  -58.1447 C.3       20 UNK        -0.1800 
    112 C         -4.2117  -20.9994  -57.2819 C.2       20 UNK         0.5000 
    113 O         -3.9172  -20.7149  -58.4449 O.2       20 UNK        -0.5000 
    114 N         -4.0555  -20.1659  -56.2407 N.am      21 UNK        -0.5000 
    115 CA        -3.5164  -18.7981  -56.2679 C.3       21 UNK         0.1400 
    116 CB        -4.5327  -17.8400  -56.9218 C.3       21 UNK        -0.1800 
    117 C         -2.1098  -18.7067  -56.9002 C.2       21 UNK         0.5000 
    118 O         -1.8132  -17.7482  -57.6159 O.2       21 UNK        -0.5000 
    119 N         -1.2834  -19.7285  -56.6409 N.am      22 UNK        -0.5000 
    120 CA         0.0452  -19.9595  -57.2293 C.3       22 UNK         0.1400 
    121 C          0.0477  -20.1565  -58.7804 C.2       22 UNK         0.5000 
    122 N         -1.0808  -20.4337  -59.4247 N.am      22 UNK        -0.7600 
    123 O          1.0968  -20.0964  -59.4164 O.2       22 UNK        -0.5000 
    124 C124        1.0978  -18.9250  -56.7316 C.3       23 UNK        -0.0398 
    125 S125        1.6513  -19.2613  -55.0251 S.3       23 UNK        -0.2404 
    126 C126        0.5097  -18.2535  -54.0267 C.3       23 UNK        -0.0205 
    127 H127       -2.9606  -12.0517  -50.1630 H         1 UNK         0.0600 
    128 H128       -4.1044  -11.5520  -48.9131 H         1 UNK         0.0600 
    129 H129       -2.6872  -10.5568  -49.2635 H         1 UNK         0.0600 
    130 H130       -1.6178  -13.6969  -49.4874 H         1 UNK         0.3000 
    131 H131       -0.0020  -13.5860  -47.1995 H         1 UNK         0.0600 
    132 H132       -0.6277  -16.0308  -48.9395 H         1 UNK         0.0800 
    133 H133        0.6943  -15.9005  -47.8002 H         1 UNK         0.0800 
    134 H134        2.8330  -16.0813  -49.0110 H         1 UNK         0.0800 
    135 H135        3.1597  -15.4680  -50.6104 H         1 UNK         0.0800 
    136 H136        1.4683  -16.1904  -52.5144 H         1 UNK         0.1150 
    137 H137        0.4784  -20.3499  -52.2959 H         1 UNK         0.1150 
    138 H138        2.0817  -18.3253  -48.8612 H         1 UNK         0.1150 
    139 H139        0.3293  -21.3730  -49.9892 H         1 UNK         0.0800 
    140 H140        2.0597  -21.4382  -50.2260 H         1 UNK         0.0800 
    141 H141        2.9983  -22.5811  -47.2876 H         1 UNK         0.0800 
    142 H142        2.0253  -23.0887  -48.6184 H         1 UNK         0.0800 
    143 H143        1.2701  -24.4406  -46.9169 H         1 UNK         0.0600 
    144 H144        1.2020  -22.1795  -44.9690 H         1 UNK         0.3000 
    145 H145        1.2324  -23.2123  -42.5685 H         1 UNK         0.0600 
    146 H146        3.0035  -24.1933  -41.1109 H         1 UNK         0.0600 
    147 H147        2.1189  -25.4407  -41.9752 H         1 UNK         0.0600 
    148 H148        3.7324  -24.9870  -42.5066 H         1 UNK         0.0600 
    149 H149        2.5534  -21.4786  -42.7739 H         1 UNK         0.3000 
    150 H150        5.9002  -20.8330  -43.4147 H         1 UNK         0.0600 
    151 H151        5.1116  -20.7008  -45.7616 H         1 UNK         0.0600 
    152 H152        5.0349  -19.1093  -45.0194 H         1 UNK         0.0600 
    153 H153        3.5631  -20.0557  -45.2410 H         1 UNK         0.0600 
    154 H154        3.6322  -19.1428  -42.9042 H         1 UNK         0.3000 
    155 H155        3.6380  -19.5506  -39.3357 H         1 UNK         0.0600 
    156 H156        4.2339  -17.1835  -41.1918 H         1 UNK         0.0600 
    157 H157        5.2614  -17.7360  -39.8750 H         1 UNK         0.0600 
    158 H158        3.6694  -17.0767  -39.5271 H         1 UNK         0.0600 
    159 H159        1.9235  -18.0982  -41.1003 H         1 UNK         0.3000 
    160 H160       -0.4244  -20.7282  -41.7175 H         1 UNK         0.0600 
    161 H161       -1.9512  -18.9118  -40.9373 H         1 UNK         0.0600 
    162 H162       -0.6112  -18.1387  -40.0900 H         1 UNK         0.0600 
    163 H163       -1.1674  -19.7283  -39.5937 H         1 UNK         0.0600 
    164 H164       -0.0487  -17.9587  -42.5504 H         1 UNK         0.3000 
    165 H165        1.6550  -18.7102  -45.5436 H         1 UNK         0.0600 
    166 H166       -0.3184  -17.7582  -46.6826 H         1 UNK         0.0600 
    167 H167       -0.6198  -19.4220  -46.1988 H         1 UNK         0.0600 
    168 H168       -1.3341  -18.0988  -45.2807 H         1 UNK         0.0600 
    169 H169        0.3110  -16.3503  -44.6549 H         1 UNK         0.3000 
    170 H170        3.0242  -15.0712  -42.6853 H         1 UNK         0.0600 
    171 H171        3.3400  -14.4471  -45.0866 H         1 UNK         0.0600 
    172 H172        2.5334  -13.1709  -44.1877 H         1 UNK         0.0600 
    173 H173        1.6063  -14.2122  -45.2640 H         1 UNK         0.0600 
    174 H174        0.4653  -13.9726  -42.9937 H         1 UNK         0.3000 
    175 H175       -1.2570  -15.6974  -40.4459 H         1 UNK         0.0600 
    176 H176       -1.2815  -13.5780  -39.1600 H         1 UNK         0.0600 
    177 H177        0.2575  -14.4054  -38.9826 H         1 UNK         0.0600 
    178 H178        0.1380  -13.0049  -40.0361 H         1 UNK         0.0600 
    179 H179       -2.6088  -14.7262  -41.8550 H         1 UNK         0.3000 
    180 H180       -3.7910  -12.7284  -42.4618 H         1 UNK         0.0600 
    181 H181       -2.1253  -11.0121  -44.3761 H         1 UNK         0.0600 
    182 H182       -2.7550  -10.4980  -42.8158 H         1 UNK         0.0600 
    183 H183       -3.8645  -10.8870  -44.1218 H         1 UNK         0.0600 
    184 H184       -2.9591  -13.1391  -45.2225 H         1 UNK         0.3000 
    185 H185       -3.4181  -16.5988  -45.3412 H         1 UNK         0.0600 
    186 H186       -5.5056  -14.6057  -46.3830 H         1 UNK         0.0600 
    187 H187       -5.2041  -16.2130  -47.0426 H         1 UNK         0.0600 
    188 H188       -5.8429  -16.0388  -45.4174 H         1 UNK         0.0600 
    189 H189       -3.2450  -14.7502  -47.4642 H         1 UNK         0.3000 
    190 H190       -0.2019  -24.1046  -48.7738 H         1 UNK         0.3000 
    191 H191       -2.8127  -24.3910  -47.9232 H         1 UNK         0.0600 
    192 H192       -1.8606  -25.4165  -49.9640 H         1 UNK         0.0600 
    193 H193       -1.7063  -23.8365  -50.7294 H         1 UNK         0.0600 
    194 H194       -3.2979  -24.5090  -50.3885 H         1 UNK         0.0600 
    195 H195       -1.3223  -21.3385  -48.4899 H         1 UNK         0.3000 
    196 H196       -3.7455  -19.8903  -49.2425 H         1 UNK         0.0600 
    197 H197       -2.2448  -17.8740  -48.6593 H         1 UNK         0.0600 
    198 H198       -1.7382  -18.8762  -50.0062 H         1 UNK         0.0600 
    199 H199       -0.9348  -19.0371  -48.4638 H         1 UNK         0.0600 
    200 H200       -2.4370  -21.1070  -46.2301 H         1 UNK         0.3000 
    201 H201       -3.9060  -19.3503  -44.4701 H         1 UNK         0.0600 
    202 H202       -1.9349  -20.7301  -43.7533 H         1 UNK         0.0600 
    203 H203       -2.8654  -22.1995  -44.0138 H         1 UNK         0.0600 
    204 H204       -3.3522  -21.0545  -42.7685 H         1 UNK         0.0600 
    205 H205       -4.6905  -22.2028  -46.3607 H         1 UNK         0.3000 
    206 H206       -7.3815  -22.5471  -45.1778 H         1 UNK         0.0600 
    207 H207       -5.9895  -24.5592  -45.7262 H         1 UNK         0.0600 
    208 H208       -7.4601  -24.5143  -46.6830 H         1 UNK         0.0600 
    209 H209       -5.9276  -24.0622  -47.4167 H         1 UNK         0.0600 
    210 H210       -6.0242  -20.4070  -47.2676 H         1 UNK         0.3000 
    211 H211       -6.6200  -19.0122  -48.8343 H         1 UNK         0.0600 
    212 H212       -9.5336  -19.8306  -48.3809 H         1 UNK         0.0600 
    213 H213       -8.9590  -18.3430  -49.1168 H         1 UNK         0.0600 
    214 H214       -8.6529  -18.6457  -47.4156 H         1 UNK         0.0600 
    215 H215       -6.3184  -22.0473  -49.4852 H         1 UNK         0.3000 
    216 H216       -7.5385  -22.2207  -52.1650 H         1 UNK         0.0600 
    217 H217       -6.3427  -24.4230  -52.2103 H         1 UNK         0.0600 
    218 H218       -7.3746  -24.2674  -50.7970 H         1 UNK         0.0600 
    219 H219       -5.6330  -24.0747  -50.6367 H         1 UNK         0.0600 
    220 H220       -4.3922  -21.7205  -50.6399 H         1 UNK         0.3000 
    221 H221       -2.3987  -20.9228  -51.2883 H         1 UNK         0.0600 
    222 H222       -4.1234  -19.2573  -53.1881 H         1 UNK         0.0600 
    223 H223       -3.8061  -18.8871  -51.5022 H         1 UNK         0.0600 
    224 H224       -2.4914  -18.8486  -52.6605 H         1 UNK         0.0600 
    225 H225       -3.1405  -23.3683  -52.6586 H         1 UNK         0.3000 
    226 H226       -2.5091  -24.7752  -54.2621 H         1 UNK         0.0600 
    227 H227       -0.2038  -24.1823  -53.4782 H         1 UNK         0.0600 
    228 H228       -0.2263  -24.6057  -55.1824 H         1 UNK         0.0600 
    229 H229       -0.1071  -22.9188  -54.7035 H         1 UNK         0.0600 
    230 H230       -4.4760  -23.0071  -54.9423 H         1 UNK         0.3000 
    231 H231       -5.7651  -22.2520  -56.5562 H         1 UNK         0.0600 
    232 H232       -5.2320  -24.3255  -57.8529 H         1 UNK         0.0600 
    233 H233       -3.8756  -23.5026  -58.6221 H         1 UNK         0.0600 
    234 H234       -5.5169  -22.9454  -58.9014 H         1 UNK         0.0600 
    235 H235       -4.3053  -20.5180  -55.3257 H         1 UNK         0.3000 
    236 H236       -3.3926  -18.4877  -55.2311 H         1 UNK         0.0600 
    237 H237       -4.2026  -16.8035  -56.8427 H         1 UNK         0.0600 
    238 H238       -4.6711  -18.0604  -57.9808 H         1 UNK         0.0600 
    239 H239       -5.5058  -17.9064  -56.4353 H         1 UNK         0.0600 
    240 H240       -1.5872  -20.4240  -55.9658 H         1 UNK         0.3000 
    241 H241        0.3491  -20.9382  -56.8560 H         1 UNK         0.0600 
    242 H242       -1.0571  -20.5712  -60.4223 H         1 UNK         0.3800 
    243 H243       -1.9660  -20.5012  -58.9332 H         1 UNK         0.3800 
    244 H244        2.0007  -18.9592  -57.3426 H         1 UNK         0.0800 
    245 H245        0.7285  -17.9027  -56.8155 H         1 UNK         0.0800 
    246 H246        0.4962  -17.2332  -54.4128 H         1 UNK         0.0800 
    247 H247       -0.5044  -18.6378  -54.1279 H         1 UNK         0.0800 
@<TRIPOS>BOND
     1    1    2 1    
     2    1  127 1    
     3    1  128 1    
     4    1  129 1    
     5    2    3 2    
     6    2    4 am   BACKBONE|DICT|INTERRES
     7    4    5 1    
     8    4  130 1    
     9    5    6 1    
    10    5   65 1    
    11    5  131 1    
    12    6    7 1    
    13    6  132 1    
    14    6  133 1    
    15    7    8 1    
    16    8    9 1    
    17    8  134 1    
    18    8  135 1    
    19    9   10 ar   
    20    9   14 ar   
    21   10   11 ar   
    22   10  136 1    
    23   11   12 ar   
    24   11  126 1    
    25   12   13 ar   
    26   12  137 1    
    27   13   14 ar   
    28   13   15 1    
    29   14  138 1    
    30   15   16 1    
    31   15  139 1    
    32   15  140 1    
    33   16   17 1    
    34   17   18 1    
    35   17  141 1    
    36   17  142 1    
    37   18   19 1    
    38   18   67 1    
    39   18  143 1    
    40   19   20 am   BACKBONE|DICT|INTERRES
    41   19  144 1    
    42   20   21 2    
    43   20   22 1    
    44   22   23 1    
    45   22   24 1    
    46   22  145 1    
    47   23  146 1    
    48   23  147 1    
    49   23  148 1    
    50   24   25 am   BACKBONE|DICT|INTERRES
    51   24  149 1    
    52   25   26 2    
    53   25   27 1    
    54   27   28 1    
    55   27   29 1    
    56   27  150 1    
    57   28  151 1    
    58   28  152 1    
    59   28  153 1    
    60   29   30 am   BACKBONE|DICT|INTERRES
    61   29  154 1    
    62   30   31 2    
    63   30   32 1    
    64   32   33 1    
    65   32   34 1    
    66   32  155 1    
    67   33  156 1    
    68   33  157 1    
    69   33  158 1    
    70   34   35 am   BACKBONE|DICT|INTERRES
    71   34  159 1    
    72   35   36 2    
    73   35   37 1    
    74   37   38 1    
    75   37   39 1    
    76   37  160 1    
    77   38  161 1    
    78   38  162 1    
    79   38  163 1    
    80   39   40 am   BACKBONE|DICT|INTERRES
    81   39  164 1    
    82   40   41 2    
    83   40   42 1    
    84   42   43 1    
    85   42   44 1    
    86   42  165 1    
    87   43  166 1    
    88   43  167 1    
    89   43  168 1    
    90   44   45 am   BACKBONE|DICT|INTERRES
    91   44  169 1    
    92   45   46 2    
    93   45   47 1    
    94   47   48 1    
    95   47   49 1    
    96   47  170 1    
    97   48  171 1    
    98   48  172 1    
    99   48  173 1    
   100   49   50 am   BACKBONE|DICT|INTERRES
   101   49  174 1    
   102   50   51 2    
   103   50   52 1    
   104   52   53 1    
   105   52   54 1    
   106   52  175 1    
   107   53  176 1    
   108   53  177 1    
   109   53  178 1    
   110   54   55 am   BACKBONE|DICT|INTERRES
   111   54  179 1    
   112   55   56 2    
   113   55   57 1    
   114   57   58 1    
   115   57   59 1    
   116   57  180 1    
   117   58  181 1    
   118   58  182 1    
   119   58  183 1    
   120   59   60 am   BACKBONE|DICT|INTERRES
   121   59  184 1    
   122   60   61 2    
   123   60   62 1    
   124   62   63 1    
   125   62   64 1    
   126   62  185 1    
   127   63  186 1    
   128   63  187 1    
   129   63  188 1    
   130   64   65 am   BACKBONE|DICT|INTERRES
   131   64  189 1    
   132   65   66 2    
   133   67   68 2    
   134   67   69 am   BACKBONE|DICT|INTERRES
   135   69   70 1    
   136   69  190 1    
   137   70   71 1    
   138   70   72 1    
   139   70  191 1    
   140   71  192 1    
   141   71  193 1    
   142   71  194 1    
   143   72   73 2    
   144   72   74 am   BACKBONE|DICT|INTERRES
   145   74   75 1    
   146   74  195 1    
   147   75   76 1    
   148   75   77 1    
   149   75  196 1    
   150   76  197 1    
   151   76  198 1    
   152   76  199 1    
   153   77   78 2    
   154   77   79 am   BACKBONE|DICT|INTERRES
   155   79   80 1    
   156   79  200 1    
   157   80   81 1    
   158   80   82 1    
   159   80  201 1    
   160   81  202 1    
   161   81  203 1    
   162   81  204 1    
   163   82   83 2    
   164   82   84 am   BACKBONE|DICT|INTERRES
   165   84   85 1    
   166   84  205 1    
   167   85   86 1    
   168   85   87 1    
   169   85  206 1    
   170   86  207 1    
   171   86  208 1    
   172   86  209 1    
   173   87   88 2    
   174   87   89 am   BACKBONE|DICT|INTERRES
   175   89   90 1    
   176   89  210 1    
   177   90   91 1    
   178   90   92 1    
   179   90  211 1    
   180   91  212 1    
   181   91  213 1    
   182   91  214 1    
   183   92   93 2    
   184   92   94 am   BACKBONE|DICT|INTERRES
   185   94   95 1    
   186   94  215 1    
   187   95   96 1    
   188   95   97 1    
   189   95  216 1    
   190   96  217 1    
   191   96  218 1    
   192   96  219 1    
   193   97   98 2    
   194   97   99 am   BACKBONE|DICT|INTERRES
   195   99  100 1    
   196   99  220 1    
   197  100  101 1    
   198  100  102 1    
   199  100  221 1    
   200  101  222 1    
   201  101  223 1    
   202  101  224 1    
   203  102  103 2    
   204  102  104 am   BACKBONE|DICT|INTERRES
   205  104  105 1    
   206  104  225 1    
   207  105  106 1    
   208  105  107 1    
   209  105  226 1    
   210  106  227 1    
   211  106  228 1    
   212  106  229 1    
   213  107  108 2    
   214  107  109 am   BACKBONE|DICT|INTERRES
   215  109  110 1    
   216  109  230 1    
   217  110  111 1    
   218  110  112 1    
   219  110  231 1    
   220  111  232 1    
   221  111  233 1    
   222  111  234 1    
   223  112  113 2    
   224  112  114 am   BACKBONE|DICT|INTERRES
   225  114  115 1    
   226  114  235 1    
   227  115  116 1    
   228  115  117 1    
   229  115  236 1    
   230  116  237 1    
   231  116  238 1    
   232  116  239 1    
   233  117  118 2    
   234  117  119 am   BACKBONE|DICT|INTERRES
   235  119  120 1    
   236  119  240 1    
   237  120  121 1    
   238  120  124 1    
   239  120  241 1    
   240  121  122 am   BACKBONE|DICT|INTERRES
   241  121  123 2    
   242  122  242 1    
   243  122  243 1    
   244  124  125 1    
   245  124  244 1    
   246  124  245 1    
   247  125  126 1    
   248  126  246 1    
   249  126  247 1    
@<TRIPOS>SUBSTRUCTURE
     1 UNK         1 GROUP             0       ****    0 ROOT    
