@<TRIPOS>MOLECULE
3R540
247   249    1
SMALL
USER_CHARGES


@<TRIPOS>ATOM
      1 CA          1.7080  -10.8203  -45.8094 C.3       0 UNK        -0.1800 
      2 C           2.0517  -11.7313  -46.9795 C.2       0 UNK         0.5000 
      3 O           3.1261  -11.6022  -47.5661 O.2       0 UNK        -0.5000 
      4 N           1.1396  -12.6512  -47.3156 N.am      1 UNK        -0.5000 
      5 CA          1.3001  -13.6734  -48.3568 C.3       1 UNK         0.1400 
      6 C6         -0.0290  -14.4065  -48.6629 C.3       23 UNK        -0.0398 
      7 S7         -1.3924  -13.2771  -49.1171 S.3       23 UNK        -0.2404 
      8 C8         -1.7360  -13.7647  -50.8417 C.3       23 UNK        -0.0205 
      9 C9         -2.7698  -14.8816  -50.9808 C.ar      23 UNK        -0.0193 
     10 C10        -3.7651  -14.7775  -51.9578 C.ar      23 UNK        -0.1150 
     11 C11        -4.6844  -15.8121  -52.1586 C.ar      23 UNK        -0.0193 
     12 C12        -4.6179  -16.9560  -51.3596 C.ar      23 UNK        -0.1150 
     13 C13        -3.6257  -17.0788  -50.3844 C.ar      23 UNK        -0.0193 
     14 C14        -2.7130  -16.0379  -50.1944 C.ar      23 UNK        -0.1150 
     15 C15        -3.5096  -18.3518  -49.5646 C.3       23 UNK        -0.0205 
     16 S16        -2.0008  -19.2671  -50.0189 S.3       23 UNK        -0.2404 
     17 C17        -1.0187  -19.1650  -48.4836 C.3       23 UNK        -0.0398 
     18 CA         -0.7754  -20.5472  -47.8336 C.3       11 UNK         0.1400 
     19 N           0.2063  -20.4592  -46.7523 N.am      11 UNK        -0.5000 
     20 C           0.8508  -21.5054  -46.2193 C.2       10 UNK         0.5000 
     21 O           0.7118  -22.6647  -46.6067 O.2       10 UNK        -0.5000 
     22 CA          1.7762  -21.2046  -45.0260 C.3       10 UNK         0.1400 
     23 CB          3.1755  -20.8017  -45.5144 C.3       10 UNK        -0.1800 
     24 N           1.2402  -20.1625  -44.1446 N.am      10 UNK        -0.5000 
     25 C           0.1457  -20.3241  -43.3882 C.2       9 UNK         0.5000 
     26 O          -0.5223  -21.3573  -43.3674 O.2       9 UNK        -0.5000 
     27 CA         -0.2985  -19.1209  -42.5368 C.3       9 UNK         0.1400 
     28 CB          0.5676  -19.0242  -41.2723 C.3       9 UNK        -0.1800 
     29 N          -0.3067  -17.8298  -43.2406 N.am      9 UNK        -0.5000 
     30 C          -0.9576  -17.5801  -44.3892 C.2       8 UNK         0.5000 
     31 O          -1.5305  -18.4497  -45.0447 O.2       8 UNK        -0.5000 
     32 CA         -0.9714  -16.1285  -44.9018 C.3       8 UNK         0.1400 
     33 CB         -2.2435  -15.8014  -45.7063 C.3       8 UNK        -0.1800 
     34 N          -0.8358  -15.1648  -43.8087 N.am      8 UNK        -0.5000 
     35 C           0.0428  -14.1570  -43.7870 C.2       7 UNK         0.5000 
     36 O           0.8773  -13.9583  -44.6680 O.2       7 UNK        -0.5000 
     37 CA          0.0307  -13.2342  -42.5566 C.3       7 UNK         0.1400 
     38 CB         -1.0016  -12.1131  -42.7434 C.3       7 UNK        -0.1800 
     39 N          -0.2128  -13.9122  -41.2807 N.am      7 UNK        -0.5000 
     40 C           0.4760  -14.9585  -40.8092 C.2       6 UNK         0.5000 
     41 O           1.3453  -15.5629  -41.4527 O.2       6 UNK        -0.5000 
     42 CA          0.1236  -15.4098  -39.3835 C.3       6 UNK         0.1400 
     43 CB         -1.2836  -16.0286  -39.3057 C.3       6 UNK        -0.1800 
     44 N           1.1295  -16.3831  -38.9946 N.am      6 UNK        -0.5000 
     45 C           1.6257  -16.5933  -37.7738 C.2       5 UNK         0.5000 
     46 O           1.1523  -16.1139  -36.7430 O.2       5 UNK        -0.5000 
     47 CA          2.8966  -17.4672  -37.7096 C.3       5 UNK         0.1400 
     48 CB          2.5291  -18.9230  -37.3837 C.3       5 UNK        -0.1800 
     49 N           3.6811  -17.4414  -38.9528 N.am      5 UNK        -0.5000 
     50 C           4.2969  -16.3598  -39.4551 C.2       4 UNK         0.5000 
     51 O           4.3253  -15.2704  -38.8793 O.2       4 UNK        -0.5000 
     52 CA          4.9770  -16.4984  -40.8305 C.3       4 UNK         0.1400 
     53 CB          4.8219  -17.8867  -41.4847 C.3       4 UNK        -0.1800 
     54 N           4.4242  -15.4960  -41.7388 N.am      4 UNK        -0.5000 
     55 C           5.0605  -14.3926  -42.1516 C.2       3 UNK         0.5000 
     56 O           6.1937  -14.0753  -41.7833 O.2       3 UNK        -0.5000 
     57 CA          4.3035  -13.5234  -43.1819 C.3       3 UNK         0.1400 
     58 CB          5.1662  -12.3856  -43.7662 C.3       3 UNK        -0.1800 
     59 N           3.7075  -14.3173  -44.2644 N.am      3 UNK        -0.5000 
     60 C           4.3397  -15.1690  -45.0905 C.2       2 UNK         0.5000 
     61 O           5.5540  -15.3718  -45.0858 O.2       2 UNK        -0.5000 
     62 CA          3.4600  -15.9283  -46.0944 C.3       2 UNK         0.1400 
     63 CB          2.7377  -17.0866  -45.3865 C.3       2 UNK        -0.1800 
     64 N           2.4695  -15.0342  -46.6884 N.am      2 UNK        -0.5000 
     65 C           2.3858  -14.7066  -47.9837 C.2       1 UNK         0.5000 
     66 O           3.1075  -15.1768  -48.8640 O.2       1 UNK        -0.5000 
     67 C          -2.0768  -21.2186  -47.3457 C.2       11 UNK         0.5000 
     68 O          -2.6175  -22.0740  -48.0474 O.2       11 UNK        -0.5000 
     69 N          -2.5265  -20.8583  -46.1356 N.am      12 UNK        -0.5000 
     70 CA         -3.6752  -21.4573  -45.4583 C.3       12 UNK         0.1400 
     71 CB         -3.9983  -20.6576  -44.1875 C.3       12 UNK        -0.1800 
     72 C          -3.4565  -22.9469  -45.1376 C.2       12 UNK         0.5000 
     73 O          -4.3507  -23.7542  -45.3896 O.2       12 UNK        -0.5000 
     74 N          -2.2573  -23.2948  -44.6474 N.am      13 UNK        -0.5000 
     75 CA         -1.8284  -24.6721  -44.3855 C.3       13 UNK         0.1400 
     76 CB         -0.4750  -24.6585  -43.6594 C.3       13 UNK        -0.1800 
     77 C          -1.7513  -25.5338  -45.6612 C.2       13 UNK         0.5000 
     78 O          -2.0997  -26.7140  -45.6207 O.2       13 UNK        -0.5000 
     79 N          -1.3360  -24.9187  -46.7765 N.am      14 UNK        -0.5000 
     80 CA         -1.3164  -25.5194  -48.1116 C.3       14 UNK         0.1400 
     81 CB         -0.3052  -24.7536  -48.9810 C.3       14 UNK        -0.1800 
     82 C          -2.6986  -25.5438  -48.7977 C.2       14 UNK         0.5000 
     83 O          -2.8017  -26.0785  -49.9023 O.2       14 UNK        -0.5000 
     84 N          -3.7189  -24.9333  -48.1734 N.am      15 UNK        -0.5000 
     85 CA         -5.0895  -24.7499  -48.6653 C.3       15 UNK         0.1400 
     86 CB         -5.8348  -26.1002  -48.6950 C.3       15 UNK        -0.1800 
     87 C          -5.1426  -24.0065  -50.0172 C.2       15 UNK         0.5000 
     88 O          -5.9247  -24.3742  -50.8954 O.2       15 UNK        -0.5000 
     89 N          -4.2561  -23.0120  -50.1823 N.am      16 UNK        -0.5000 
     90 CA         -4.0052  -22.2408  -51.4067 C.3       16 UNK         0.1400 
     91 CB         -5.1959  -21.3110  -51.7125 C.3       16 UNK        -0.1800 
     92 C          -3.6047  -23.1192  -52.6136 C.2       16 UNK         0.5000 
     93 O          -3.9165  -22.7790  -53.7572 O.2       16 UNK        -0.5000 
     94 N          -2.9487  -24.2539  -52.3237 N.am      17 UNK        -0.5000 
     95 CA         -2.5661  -25.3306  -53.2421 C.3       17 UNK         0.1400 
     96 CB         -1.5747  -24.8229  -54.3097 C.3       17 UNK        -0.1800 
     97 C          -3.7763  -26.0678  -53.8565 C.2       17 UNK         0.5000 
     98 O          -3.6413  -26.6668  -54.9244 O.2       17 UNK        -0.5000 
     99 N          -4.9430  -25.9924  -53.1943 N.am      18 UNK        -0.5000 
    100 CA        -6.2605  -26.5451  -53.5453 C.3       18 UNK         0.1400 
    101 CB        -6.2141  -28.0802  -53.6591 C.3       18 UNK        -0.1800 
    102 C         -6.9155  -25.9117  -54.7908 C.2       18 UNK         0.5000 
    103 O         -8.1326  -25.7271  -54.8081 O.2       18 UNK        -0.5000 
    104 N         -6.1052  -25.5700  -55.7975 N.am      19 UNK        -0.5000 
    105 CA        -6.4994  -24.9285  -57.0508 C.3       19 UNK         0.1400 
    106 CB        -5.3936  -25.1892  -58.0871 C.3       19 UNK        -0.1800 
    107 C         -6.7665  -23.4145  -56.9209 C.2       19 UNK         0.5000 
    108 O         -7.2237  -22.8121  -57.8928 O.2       19 UNK        -0.5000 
    109 N         -6.4597  -22.8293  -55.7518 N.am      20 UNK        -0.5000 
    110 CA        -6.4736  -21.3954  -55.4424 C.3       20 UNK         0.1400 
    111 CB        -7.8863  -20.7882  -55.5741 C.3       20 UNK        -0.1800 
    112 C         -5.3988  -20.6561  -56.2600 C.2       20 UNK         0.5000 
    113 O         -5.7097  -19.7717  -57.0600 O.2       20 UNK        -0.5000 
    114 N         -4.1448  -21.0866  -56.0673 N.am      21 UNK        -0.5000 
    115 CA        -2.9672  -20.5811  -56.7728 C.3       21 UNK         0.1400 
    116 CB        -1.7811  -21.5209  -56.5086 C.3       21 UNK        -0.1800 
    117 C         -2.6103  -19.1318  -56.3952 C.2       21 UNK         0.5000 
    118 O         -2.1821  -18.3715  -57.2643 O.2       21 UNK        -0.5000 
    119 N         -2.8059  -18.7810  -55.1157 N.am      22 UNK        -0.5000 
    120 CA        -2.6174  -17.4325  -54.5454 C.3       22 UNK         0.1400 
    121 C         -1.1519  -16.8954  -54.5788 C.2       22 UNK         0.5000 
    122 N         -0.1421  -17.7479  -54.7065 N.am      22 UNK        -0.7600 
    123 O         -0.9158  -15.6963  -54.4582 O.2       22 UNK        -0.5000 
    124 C124       -3.6556  -16.4082  -55.0923 C.3       23 UNK        -0.0398 
    125 S125       -5.3678  -16.8660  -54.6419 S.3       23 UNK        -0.2404 
    126 C126       -5.7195  -15.7143  -53.2705 C.3       23 UNK        -0.0205 
    127 H127        0.6434  -10.8511  -45.5778 H         1 UNK         0.0600 
    128 H128        1.9741   -9.7888  -46.0401 H         1 UNK         0.0600 
    129 H129        2.2584  -11.1282  -44.9207 H         1 UNK         0.0600 
    130 H130        0.2858  -12.7101  -46.7793 H         1 UNK         0.3000 
    131 H131        1.6272  -13.1684  -49.2682 H         1 UNK         0.0600 
    132 H132       -0.3551  -14.9836  -47.7974 H         1 UNK         0.0800 
    133 H133        0.1263  -15.1298  -49.4653 H         1 UNK         0.0800 
    134 H134       -0.8140  -14.0625  -51.3427 H         1 UNK         0.0800 
    135 H135       -2.0849  -12.8732  -51.3651 H         1 UNK         0.0800 
    136 H136       -3.8068  -13.8991  -52.5865 H         1 UNK         0.1150 
    137 H137       -5.3172  -17.7636  -51.5253 H         1 UNK         0.1150 
    138 H138       -1.9446  -16.1527  -49.4466 H         1 UNK         0.1150 
    139 H139       -3.5301  -18.1042  -48.5030 H         1 UNK         0.0800 
    140 H140       -4.3710  -18.9976  -49.7342 H         1 UNK         0.0800 
    141 H141       -1.4736  -18.4760  -47.7722 H         1 UNK         0.0800 
    142 H142       -0.0609  -18.7172  -48.7522 H         1 UNK         0.0800 
    143 H143       -0.3496  -21.1982  -48.6006 H         1 UNK         0.0600 
    144 H144        0.3252  -19.5548  -46.3219 H         1 UNK         0.3000 
    145 H145        1.8742  -22.1222  -44.4418 H         1 UNK         0.0600 
    146 H146        3.8410  -20.5849  -44.6786 H         1 UNK         0.0600 
    147 H147        3.6304  -21.6093  -46.0895 H         1 UNK         0.0600 
    148 H148        3.1440  -19.9238  -46.1596 H         1 UNK         0.0600 
    149 H149        1.7377  -19.2868  -44.1028 H         1 UNK         0.3000 
    150 H150       -1.3250  -19.3206  -42.2228 H         1 UNK         0.0600 
    151 H151        0.7004  -20.0012  -40.8051 H         1 UNK         0.0600 
    152 H152        0.1020  -18.3839  -40.5283 H         1 UNK         0.0600 
    153 H153        1.5569  -18.6263  -41.4912 H         1 UNK         0.0600 
    154 H154        0.1675  -17.0628  -42.7820 H         1 UNK         0.3000 
    155 H155       -0.1215  -16.0541  -45.5812 H         1 UNK         0.0600 
    156 H156       -3.1422  -15.9296  -45.1022 H         1 UNK         0.0600 
    157 H157       -2.3396  -16.4458  -46.5807 H         1 UNK         0.0600 
    158 H158       -2.2282  -14.7727  -46.0669 H         1 UNK         0.0600 
    159 H159       -1.4711  -15.2715  -43.0302 H         1 UNK         0.3000 
    160 H160        1.0181  -12.7739  -42.4921 H         1 UNK         0.0600 
    161 H161       -2.0202  -12.5026  -42.7632 H         1 UNK         0.0600 
    162 H162       -0.8367  -11.5790  -43.6799 H         1 UNK         0.0600 
    163 H163       -0.9379  -11.3797  -41.9393 H         1 UNK         0.0600 
    164 H164       -0.9162  -13.4944  -40.6887 H         1 UNK         0.3000 
    165 H165        0.1845  -14.5426  -38.7226 H         1 UNK         0.0600 
    166 H166       -1.4660  -16.4746  -38.3278 H         1 UNK         0.0600 
    167 H167       -2.0510  -15.2697  -39.4604 H         1 UNK         0.0600 
    168 H168       -1.4372  -16.8001  -40.0597 H         1 UNK         0.0600 
    169 H169        1.6356  -16.7611  -39.7848 H         1 UNK         0.3000 
    170 H170        3.5239  -17.0797  -36.9042 H         1 UNK         0.0600 
    171 H171        1.9668  -18.9842  -36.4511 H         1 UNK         0.0600 
    172 H172        1.9144  -19.3679  -38.1673 H         1 UNK         0.0600 
    173 H173        3.4209  -19.5386  -37.2646 H         1 UNK         0.0600 
    174 H174        3.7211  -18.3042  -39.4754 H         1 UNK         0.3000 
    175 H175        6.0431  -16.3275  -40.6694 H         1 UNK         0.0600 
    176 H176        3.7804  -18.1276  -41.6927 H         1 UNK         0.0600 
    177 H177        5.3580  -17.9252  -42.4334 H         1 UNK         0.0600 
    178 H178        5.2369  -18.6751  -40.8554 H         1 UNK         0.0600 
    179 H179        3.4584  -15.6286  -42.0145 H         1 UNK         0.3000 
    180 H180        3.4747  -13.0642  -42.6421 H         1 UNK         0.0600 
    181 H181        6.0466  -12.7697  -44.2822 H         1 UNK         0.0600 
    182 H182        5.5137  -11.7150  -42.9796 H         1 UNK         0.0600 
    183 H183        4.5998  -11.7852  -44.4777 H         1 UNK         0.0600 
    184 H184        2.7018  -14.2228  -44.3627 H         1 UNK         0.3000 
    185 H185        4.1120  -16.3467  -46.8639 H         1 UNK         0.0600 
    186 H186        3.4582  -17.7833  -44.9566 H         1 UNK         0.0600 
    187 H187        2.1053  -16.7302  -44.5731 H         1 UNK         0.0600 
    188 H188        2.1119  -17.6435  -46.0836 H         1 UNK         0.0600 
    189 H189        1.8487  -14.5560  -46.0387 H         1 UNK         0.3000 
    190 H190       -2.0518  -20.1062  -45.6412 H         1 UNK         0.3000 
    191 H191       -4.5317  -21.3845  -46.1317 H         1 UNK         0.0600 
    192 H192       -3.1717  -20.6759  -43.4772 H         1 UNK         0.0600 
    193 H193       -4.8751  -21.0646  -43.6825 H         1 UNK         0.0600 
    194 H194       -4.2116  -19.6147  -44.4229 H         1 UNK         0.0600 
    195 H195       -1.5943  -22.5613  -44.4104 H         1 UNK         0.3000 
    196 H196       -2.5656  -25.1292  -43.7224 H         1 UNK         0.0600 
    197 H197       -0.1411  -25.6722  -43.4345 H         1 UNK         0.0600 
    198 H198       -0.5408  -24.1206  -42.7135 H         1 UNK         0.0600 
    199 H199        0.2995  -24.1828  -44.2615 H         1 UNK         0.0600 
    200 H200       -1.0107  -23.9611  -46.7107 H         1 UNK         0.3000 
    201 H201       -0.9774  -26.5538  -48.0275 H         1 UNK         0.0600 
    202 H202        0.6885  -24.7665  -48.5330 H         1 UNK         0.0600 
    203 H203       -0.5981  -23.7118  -49.1143 H         1 UNK         0.0600 
    204 H204       -0.2179  -25.1998  -49.9725 H         1 UNK         0.0600 
    205 H205       -3.5278  -24.4996  -47.2789 H         1 UNK         0.3000 
    206 H206       -5.5932  -24.1063  -47.9430 H         1 UNK         0.0600 
    207 H207       -6.8886  -25.9605  -48.9389 H         1 UNK         0.0600 
    208 H208       -5.7901  -26.5951  -47.7249 H         1 UNK         0.0600 
    209 H209       -5.4145  -26.7791  -49.4379 H         1 UNK         0.0600 
    210 H210       -3.6539  -22.7784  -49.3935 H         1 UNK         0.3000 
    211 H211       -3.1383  -21.6168  -51.1963 H         1 UNK         0.0600 
    212 H212       -4.9369  -20.5869  -52.4855 H         1 UNK         0.0600 
    213 H213       -5.4940  -20.7474  -50.8295 H         1 UNK         0.0600 
    214 H214       -6.0664  -21.8716  -52.0543 H         1 UNK         0.0600 
    215 H215       -2.7989  -24.4716  -51.3457 H         1 UNK         0.3000 
    216 H216       -2.0430  -26.0699  -52.6342 H         1 UNK         0.0600 
    217 H217       -1.1402  -25.6544  -54.8655 H         1 UNK         0.0600 
    218 H218       -0.7512  -24.2714  -53.8563 H         1 UNK         0.0600 
    219 H219       -2.0603  -24.1691  -55.0336 H         1 UNK         0.0600 
    220 H220       -4.9578  -25.4294  -52.3500 H         1 UNK         0.3000 
    221 H221       -6.9085  -26.3021  -52.7018 H         1 UNK         0.0600 
    222 H222       -5.6074  -28.4103  -54.5026 H         1 UNK         0.0600 
    223 H223       -5.8055  -28.5298  -52.7542 H         1 UNK         0.0600 
    224 H224       -7.2155  -28.4884  -53.8013 H         1 UNK         0.0600 
    225 H225       -5.1231  -25.8116  -55.6964 H         1 UNK         0.3000 
    226 H226       -7.4211  -25.3942  -57.4055 H         1 UNK         0.0600 
    227 H227       -5.2298  -26.2576  -58.2291 H         1 UNK         0.0600 
    228 H228       -5.6575  -24.7708  -59.0592 H         1 UNK         0.0600 
    229 H229       -4.4462  -24.7420  -57.7825 H         1 UNK         0.0600 
    230 H230       -6.0511  -23.4176  -55.0389 H         1 UNK         0.3000 
    231 H231       -6.1857  -21.3033  -54.3967 H         1 UNK         0.0600 
    232 H232       -8.6089  -21.3398  -54.9730 H         1 UNK         0.0600 
    233 H233       -8.2409  -20.7826  -56.6048 H         1 UNK         0.0600 
    234 H234       -7.8933  -19.7549  -55.2252 H         1 UNK         0.0600 
    235 H235       -3.9867  -21.8070  -55.3660 H         1 UNK         0.3000 
    236 H236       -3.1826  -20.5994  -57.8432 H         1 UNK         0.0600 
    237 H237       -0.8806  -21.1673  -57.0125 H         1 UNK         0.0600 
    238 H238       -1.5559  -21.5973  -55.4440 H         1 UNK         0.0600 
    239 H239       -1.9870  -22.5244  -56.8810 H         1 UNK         0.0600 
    240 H240       -3.1617  -19.4808  -54.4820 H         1 UNK         0.3000 
    241 H241       -2.8121  -17.5496  -53.4798 H         1 UNK         0.0600 
    242 H242        0.8027  -17.3976  -54.7193 H         1 UNK         0.3800 
    243 H243       -0.3130  -18.7358  -54.8000 H         1 UNK         0.3800 
    244 H244       -3.4567  -15.4023  -54.7216 H         1 UNK         0.0800 
    245 H245       -3.5886  -16.3359  -56.1782 H         1 UNK         0.0800 
    246 H246       -6.7072  -15.9367  -52.8644 H         1 UNK         0.0800 
    247 H247       -5.7718  -14.6977  -53.6632 H         1 UNK         0.0800 
@<TRIPOS>BOND
     1    1    2 1    
     2    1  127 1    
     3    1  128 1    
     4    1  129 1    
     5    2    3 2    
     6    2    4 am   BACKBONE|DICT|INTERRES
     7    4    5 1    
     8    4  130 1    
     9    5    6 1    
    10    5   65 1    
    11    5  131 1    
    12    6    7 1    
    13    6  132 1    
    14    6  133 1    
    15    7    8 1    
    16    8    9 1    
    17    8  134 1    
    18    8  135 1    
    19    9   10 ar   
    20    9   14 ar   
    21   10   11 ar   
    22   10  136 1    
    23   11   12 ar   
    24   11  126 1    
    25   12   13 ar   
    26   12  137 1    
    27   13   14 ar   
    28   13   15 1    
    29   14  138 1    
    30   15   16 1    
    31   15  139 1    
    32   15  140 1    
    33   16   17 1    
    34   17   18 1    
    35   17  141 1    
    36   17  142 1    
    37   18   19 1    
    38   18   67 1    
    39   18  143 1    
    40   19   20 am   BACKBONE|DICT|INTERRES
    41   19  144 1    
    42   20   21 2    
    43   20   22 1    
    44   22   23 1    
    45   22   24 1    
    46   22  145 1    
    47   23  146 1    
    48   23  147 1    
    49   23  148 1    
    50   24   25 am   BACKBONE|DICT|INTERRES
    51   24  149 1    
    52   25   26 2    
    53   25   27 1    
    54   27   28 1    
    55   27   29 1    
    56   27  150 1    
    57   28  151 1    
    58   28  152 1    
    59   28  153 1    
    60   29   30 am   BACKBONE|DICT|INTERRES
    61   29  154 1    
    62   30   31 2    
    63   30   32 1    
    64   32   33 1    
    65   32   34 1    
    66   32  155 1    
    67   33  156 1    
    68   33  157 1    
    69   33  158 1    
    70   34   35 am   BACKBONE|DICT|INTERRES
    71   34  159 1    
    72   35   36 2    
    73   35   37 1    
    74   37   38 1    
    75   37   39 1    
    76   37  160 1    
    77   38  161 1    
    78   38  162 1    
    79   38  163 1    
    80   39   40 am   BACKBONE|DICT|INTERRES
    81   39  164 1    
    82   40   41 2    
    83   40   42 1    
    84   42   43 1    
    85   42   44 1    
    86   42  165 1    
    87   43  166 1    
    88   43  167 1    
    89   43  168 1    
    90   44   45 am   BACKBONE|DICT|INTERRES
    91   44  169 1    
    92   45   46 2    
    93   45   47 1    
    94   47   48 1    
    95   47   49 1    
    96   47  170 1    
    97   48  171 1    
    98   48  172 1    
    99   48  173 1    
   100   49   50 am   BACKBONE|DICT|INTERRES
   101   49  174 1    
   102   50   51 2    
   103   50   52 1    
   104   52   53 1    
   105   52   54 1    
   106   52  175 1    
   107   53  176 1    
   108   53  177 1    
   109   53  178 1    
   110   54   55 am   BACKBONE|DICT|INTERRES
   111   54  179 1    
   112   55   56 2    
   113   55   57 1    
   114   57   58 1    
   115   57   59 1    
   116   57  180 1    
   117   58  181 1    
   118   58  182 1    
   119   58  183 1    
   120   59   60 am   BACKBONE|DICT|INTERRES
   121   59  184 1    
   122   60   61 2    
   123   60   62 1    
   124   62   63 1    
   125   62   64 1    
   126   62  185 1    
   127   63  186 1    
   128   63  187 1    
   129   63  188 1    
   130   64   65 am   BACKBONE|DICT|INTERRES
   131   64  189 1    
   132   65   66 2    
   133   67   68 2    
   134   67   69 am   BACKBONE|DICT|INTERRES
   135   69   70 1    
   136   69  190 1    
   137   70   71 1    
   138   70   72 1    
   139   70  191 1    
   140   71  192 1    
   141   71  193 1    
   142   71  194 1    
   143   72   73 2    
   144   72   74 am   BACKBONE|DICT|INTERRES
   145   74   75 1    
   146   74  195 1    
   147   75   76 1    
   148   75   77 1    
   149   75  196 1    
   150   76  197 1    
   151   76  198 1    
   152   76  199 1    
   153   77   78 2    
   154   77   79 am   BACKBONE|DICT|INTERRES
   155   79   80 1    
   156   79  200 1    
   157   80   81 1    
   158   80   82 1    
   159   80  201 1    
   160   81  202 1    
   161   81  203 1    
   162   81  204 1    
   163   82   83 2    
   164   82   84 am   BACKBONE|DICT|INTERRES
   165   84   85 1    
   166   84  205 1    
   167   85   86 1    
   168   85   87 1    
   169   85  206 1    
   170   86  207 1    
   171   86  208 1    
   172   86  209 1    
   173   87   88 2    
   174   87   89 am   BACKBONE|DICT|INTERRES
   175   89   90 1    
   176   89  210 1    
   177   90   91 1    
   178   90   92 1    
   179   90  211 1    
   180   91  212 1    
   181   91  213 1    
   182   91  214 1    
   183   92   93 2    
   184   92   94 am   BACKBONE|DICT|INTERRES
   185   94   95 1    
   186   94  215 1    
   187   95   96 1    
   188   95   97 1    
   189   95  216 1    
   190   96  217 1    
   191   96  218 1    
   192   96  219 1    
   193   97   98 2    
   194   97   99 am   BACKBONE|DICT|INTERRES
   195   99  100 1    
   196   99  220 1    
   197  100  101 1    
   198  100  102 1    
   199  100  221 1    
   200  101  222 1    
   201  101  223 1    
   202  101  224 1    
   203  102  103 2    
   204  102  104 am   BACKBONE|DICT|INTERRES
   205  104  105 1    
   206  104  225 1    
   207  105  106 1    
   208  105  107 1    
   209  105  226 1    
   210  106  227 1    
   211  106  228 1    
   212  106  229 1    
   213  107  108 2    
   214  107  109 am   BACKBONE|DICT|INTERRES
   215  109  110 1    
   216  109  230 1    
   217  110  111 1    
   218  110  112 1    
   219  110  231 1    
   220  111  232 1    
   221  111  233 1    
   222  111  234 1    
   223  112  113 2    
   224  112  114 am   BACKBONE|DICT|INTERRES
   225  114  115 1    
   226  114  235 1    
   227  115  116 1    
   228  115  117 1    
   229  115  236 1    
   230  116  237 1    
   231  116  238 1    
   232  116  239 1    
   233  117  118 2    
   234  117  119 am   BACKBONE|DICT|INTERRES
   235  119  120 1    
   236  119  240 1    
   237  120  121 1    
   238  120  124 1    
   239  120  241 1    
   240  121  122 am   BACKBONE|DICT|INTERRES
   241  121  123 2    
   242  122  242 1    
   243  122  243 1    
   244  124  125 1    
   245  124  244 1    
   246  124  245 1    
   247  125  126 1    
   248  126  246 1    
   249  126  247 1    
@<TRIPOS>SUBSTRUCTURE
     1 UNK         1 GROUP             0       ****    0 ROOT    
