@<TRIPOS>MOLECULE
3R540
247   249    1
SMALL
USER_CHARGES


@<TRIPOS>ATOM
      1 CA         -0.9728   -9.9790  -50.5695 C.3       0 UNK        -0.1800 
      2 C           0.4179  -10.5981  -50.5518 C.2       0 UNK         0.5000 
      3 O           1.3947   -9.9194  -50.8709 O.2       0 UNK        -0.5000 
      4 N           0.5091  -11.8834  -50.1885 N.am      1 UNK        -0.5000 
      5 CA          1.7626  -12.6293  -50.0475 C.3       1 UNK         0.1400 
      6 C6          1.4940  -14.1517  -49.9948 C.3       23 UNK        -0.0398 
      7 S7          2.9690  -15.1557  -50.3935 S.3       23 UNK        -0.2404 
      8 C8          2.9490  -16.4075  -49.0680 C.3       23 UNK        -0.0205 
      9 C9          2.0968  -17.6299  -49.3974 C.ar      23 UNK        -0.0193 
     10 C10         0.7329  -17.4979  -49.6749 C.ar      23 UNK        -0.1150 
     11 C11        -0.0674  -18.6205  -49.8944 C.ar      23 UNK        -0.0193 
     12 C12         0.5064  -19.8925  -49.8293 C.ar      23 UNK        -0.1150 
     13 C13         1.8707  -20.0451  -49.5688 C.ar      23 UNK        -0.0193 
     14 C14         2.6620  -18.9095  -49.3635 C.ar      23 UNK        -0.1150 
     15 C15         2.4731  -21.4424  -49.4827 C.3       23 UNK        -0.0205 
     16 S16         3.2059  -21.8172  -47.8522 S.3       23 UNK        -0.2404 
     17 C17         1.8711  -21.3703  -46.6882 C.3       23 UNK        -0.0398 
     18 CA          1.0358  -22.5640  -46.1723 C.3       11 UNK         0.1400 
     19 N           0.2395  -22.1717  -45.0094 N.am      11 UNK        -0.5000 
     20 C          -0.4932  -22.9905  -44.2448 C.2       10 UNK         0.5000 
     21 O          -0.5473  -24.2101  -44.4013 O.2       10 UNK        -0.5000 
     22 CA         -1.3420  -22.3209  -43.1478 C.3       10 UNK         0.1400 
     23 CB         -0.4858  -21.9794  -41.9191 C.3       10 UNK        -0.1800 
     24 N          -2.0180  -21.1123  -43.6247 N.am      10 UNK        -0.5000 
     25 C          -2.9846  -21.1074  -44.5540 C.2       9 UNK         0.5000 
     26 O          -3.4297  -22.1263  -45.0821 O.2       9 UNK        -0.5000 
     27 CA         -3.5158  -19.7324  -44.9992 C.3       9 UNK         0.1400 
     28 CB         -4.5281  -19.1831  -43.9838 C.3       9 UNK        -0.1800 
     29 N          -2.4522  -18.7504  -45.2132 N.am      9 UNK        -0.5000 
     30 C          -1.4820  -18.8770  -46.1295 C.2       8 UNK         0.5000 
     31 O          -1.3991  -19.8251  -46.9069 O.2       8 UNK        -0.5000 
     32 CA         -0.3864  -17.7977  -46.1421 C.3       8 UNK         0.1400 
     33 CB         -0.8862  -16.5198  -46.8312 C.3       8 UNK        -0.1800 
     34 N           0.1008  -17.4720  -44.8022 N.am      8 UNK        -0.5000 
     35 C           0.6485  -18.3476  -43.9472 C.2       7 UNK         0.5000 
     36 O           0.8405  -19.5330  -44.2090 O.2       7 UNK        -0.5000 
     37 CA          1.0014  -17.8259  -42.5473 C.3       7 UNK         0.1400 
     38 CB          2.3640  -17.1271  -42.5574 C.3       7 UNK        -0.1800 
     39 N          -0.0174  -16.9087  -42.0438 N.am      7 UNK        -0.5000 
     40 C          -1.2169  -17.3001  -41.5950 C.2       6 UNK         0.5000 
     41 O          -1.5749  -18.4773  -41.5289 O.2       6 UNK        -0.5000 
     42 CA         -2.1881  -16.1793  -41.1834 C.3       6 UNK         0.1400 
     43 CB         -1.8506  -15.6520  -39.7806 C.3       6 UNK        -0.1800 
     44 N          -2.2026  -15.0639  -42.1328 N.am      6 UNK        -0.5000 
     45 C          -2.6433  -15.1600  -43.3942 C.2       5 UNK         0.5000 
     46 O          -3.0571  -16.2049  -43.8964 O.2       5 UNK        -0.5000 
     47 CA         -2.6042  -13.8794  -44.2475 C.3       5 UNK         0.1400 
     48 CB         -3.8430  -13.0150  -43.9671 C.3       5 UNK        -0.1800 
     49 N          -1.3996  -13.0552  -44.1002 N.am      5 UNK        -0.5000 
     50 C          -0.1325  -13.4646  -44.2541 C.2       4 UNK         0.5000 
     51 O           0.1982  -14.6476  -44.3643 O.2       4 UNK        -0.5000 
     52 CA          0.9191  -12.3404  -44.3342 C.3       4 UNK         0.1400 
     53 CB          1.0977  -11.6150  -42.9842 C.3       4 UNK        -0.1800 
     54 N           2.1926  -12.8022  -44.8995 N.am      4 UNK        -0.5000 
     55 C           3.1546  -13.5360  -44.3162 C.2       3 UNK         0.5000 
     56 O           3.1761  -13.8271  -43.1204 O.2       3 UNK        -0.5000 
     57 CA          4.3009  -14.0413  -45.2208 C.3       3 UNK         0.1400 
     58 CB          4.1267  -15.5392  -45.5208 C.3       3 UNK        -0.1800 
     59 N           4.4116  -13.3159  -46.4887 N.am      3 UNK        -0.5000 
     60 C           4.8576  -12.0583  -46.6080 C.2       2 UNK         0.5000 
     61 O           5.2818  -11.3948  -45.6610 O.2       2 UNK        -0.5000 
     62 CA          4.8174  -11.4227  -48.0125 C.3       2 UNK         0.1400 
     63 CB          6.2217  -11.4220  -48.6365 C.3       2 UNK        -0.1800 
     64 N           3.8825  -12.0366  -48.9635 N.am      2 UNK        -0.5000 
     65 C           2.5535  -12.1289  -48.8178 C.2       1 UNK         0.5000 
     66 O           1.9552  -11.8486  -47.7751 O.2       1 UNK        -0.5000 
     67 C           0.1540  -23.1816  -47.2767 C.2       11 UNK         0.5000 
     68 O           0.4799  -24.2562  -47.7801 O.2       11 UNK        -0.5000 
     69 N          -0.9712  -22.5259  -47.5958 N.am      12 UNK        -0.5000 
     70 CA         -1.9710  -23.0093  -48.5459 C.3       12 UNK         0.1400 
     71 CB         -3.0432  -21.9375  -48.7678 C.3       12 UNK        -0.1800 
     72 C          -2.6131  -24.3348  -48.1107 C.2       12 UNK         0.5000 
     73 O          -2.7351  -25.2363  -48.9371 O.2       12 UNK        -0.5000 
     74 N          -2.9635  -24.4546  -46.8221 N.am      13 UNK        -0.5000 
     75 CA         -3.5009  -25.6794  -46.2273 C.3       13 UNK         0.1400 
     76 CB         -3.9420  -25.4078  -44.7814 C.3       13 UNK        -0.1800 
     77 C          -2.5122  -26.8590  -46.2904 C.2       13 UNK         0.5000 
     78 O          -2.9219  -27.9713  -46.6234 O.2       13 UNK        -0.5000 
     79 N          -1.2280  -26.5896  -46.0149 N.am      14 UNK        -0.5000 
     80 CA         -0.1343  -27.5572  -46.1230 C.3       14 UNK         0.1400 
     81 CB          1.1309  -26.9741  -45.4752 C.3       14 UNK        -0.1800 
     82 C           0.1425  -27.9888  -47.5766 C.2       14 UNK         0.5000 
     83 O           0.3872  -29.1703  -47.8237 O.2       14 UNK        -0.5000 
     84 N           0.0781  -27.0317  -48.5118 N.am      15 UNK        -0.5000 
     85 CA          0.2476  -27.2486  -49.9508 C.3       15 UNK         0.1400 
     86 CB          0.5429  -25.8962  -50.6203 C.3       15 UNK        -0.1800 
     87 C          -0.9657  -27.9194  -50.6282 C.2       15 UNK         0.5000 
     88 O          -0.8275  -28.4054  -51.7514 O.2       15 UNK        -0.5000 
     89 N          -2.1245  -27.9069  -49.9528 N.am      16 UNK        -0.5000 
     90 CA         -3.4528  -28.2954  -50.4396 C.3       16 UNK         0.1400 
     91 CB         -3.5126  -29.8008  -50.7731 C.3       16 UNK        -0.1800 
     92 C          -3.9337  -27.3862  -51.5926 C.2       16 UNK         0.5000 
     93 O          -4.5084  -27.8656  -52.5722 O.2       16 UNK        -0.5000 
     94 N          -3.6730  -26.0831  -51.4465 N.am      17 UNK        -0.5000 
     95 CA         -4.0380  -25.0166  -52.3722 C.3       17 UNK         0.1400 
     96 CB         -2.7880  -24.1567  -52.6260 C.3       17 UNK        -0.1800 
     97 C          -5.1589  -24.1539  -51.7693 C.2       17 UNK         0.5000 
     98 O          -5.3941  -24.1914  -50.5589 O.2       17 UNK        -0.5000 
     99 N          -5.8174  -23.3633  -52.6238 N.am      18 UNK        -0.5000 
    100 CA        -6.7860  -22.3500  -52.2154 C.3       18 UNK         0.1400 
    101 CB        -7.7307  -22.0463  -53.3898 C.3       18 UNK        -0.1800 
    102 C         -6.0409  -21.0813  -51.7725 C.2       18 UNK         0.5000 
    103 O         -5.3508  -20.4725  -52.5924 O.2       18 UNK        -0.5000 
    104 N         -6.2084  -20.6870  -50.5028 N.am      19 UNK        -0.5000 
    105 CA        -5.5661  -19.5091  -49.9061 C.3       19 UNK         0.1400 
    106 CB        -5.9047  -19.4458  -48.4091 C.3       19 UNK        -0.1800 
    107 C         -5.9367  -18.1850  -50.6020 C.2       19 UNK         0.5000 
    108 O         -5.1095  -17.2770  -50.6734 O.2       19 UNK        -0.5000 
    109 N         -7.1618  -18.1183  -51.1396 N.am      20 UNK        -0.5000 
    110 CA        -7.6819  -16.9867  -51.9053 C.3       20 UNK         0.1400 
    111 CB        -9.1971  -17.1681  -52.0850 C.3       20 UNK        -0.1800 
    112 C         -6.9985  -16.7907  -53.2741 C.2       20 UNK         0.5000 
    113 O         -7.0436  -15.6802  -53.8049 O.2       20 UNK        -0.5000 
    114 N         -6.3933  -17.8519  -53.8295 N.am      21 UNK        -0.5000 
    115 CA        -5.6809  -17.8013  -55.1058 C.3       21 UNK         0.1400 
    116 CB        -5.6238  -19.2049  -55.7300 C.3       21 UNK        -0.1800 
    117 C         -4.2710  -17.2105  -54.9412 C.2       21 UNK         0.5000 
    118 O         -3.8792  -16.3489  -55.7298 O.2       21 UNK        -0.5000 
    119 N         -3.5400  -17.6808  -53.9231 N.am      22 UNK        -0.5000 
    120 CA        -2.1869  -17.2112  -53.5843 C.3       22 UNK         0.1400 
    121 C         -2.1492  -15.9112  -52.7316 C.2       22 UNK         0.5000 
    122 N         -3.1814  -15.5813  -51.9659 N.am      22 UNK        -0.7600 
    123 O         -1.1667  -15.1768  -52.7786 O.2       22 UNK        -0.5000 
    124 C124       -1.3082  -18.3348  -52.9742 C.3       23 UNK        -0.0398 
    125 S125       -2.1215  -19.3066  -51.6589 S.3       23 UNK        -0.2404 
    126 C126       -1.5579  -18.4500  -50.1550 C.3       23 UNK        -0.0205 
    127 H127       -1.0166   -9.1358  -49.8802 H         1 UNK         0.0600 
    128 H128       -1.7403  -10.6966  -50.2781 H         1 UNK         0.0600 
    129 H129       -1.2094   -9.6160  -51.5697 H         1 UNK         0.0600 
    130 H130       -0.3281  -12.3751  -49.9123 H         1 UNK         0.3000 
    131 H131        2.3534  -12.4223  -50.9429 H         1 UNK         0.0600 
    132 H132        1.0780  -14.4335  -49.0260 H         1 UNK         0.0800 
    133 H133        0.7361  -14.4140  -50.7350 H         1 UNK         0.0800 
    134 H134        3.9801  -16.7094  -48.8780 H         1 UNK         0.0800 
    135 H135        2.5900  -15.9632  -48.1405 H         1 UNK         0.0800 
    136 H136        0.2795  -16.5201  -49.6989 H         1 UNK         0.1150 
    137 H137       -0.1167  -20.7636  -49.9747 H         1 UNK         0.1150 
    138 H138        3.7134  -19.0299  -49.1429 H         1 UNK         0.1150 
    139 H139        1.7231  -22.2014  -49.7109 H         1 UNK         0.0800 
    140 H140        3.2458  -21.5408  -50.2460 H         1 UNK         0.0800 
    141 H141        2.3731  -20.8983  -45.8431 H         1 UNK         0.0800 
    142 H142        1.2255  -20.5962  -47.1010 H         1 UNK         0.0800 
    143 H143        1.7262  -23.3393  -45.8335 H         1 UNK         0.0600 
    144 H144        0.2586  -21.1819  -44.7730 H         1 UNK         0.3000 
    145 H145       -2.1082  -23.0350  -42.8388 H         1 UNK         0.0600 
    146 H146        0.0035  -22.8710  -41.5252 H         1 UNK         0.0600 
    147 H147        0.2934  -21.2548  -42.1564 H         1 UNK         0.0600 
    148 H148       -1.0960  -21.5614  -41.1181 H         1 UNK         0.0600 
    149 H149       -1.7047  -20.2301  -43.2417 H         1 UNK         0.3000 
    150 H150       -4.0319  -19.8725  -45.9507 H         1 UNK         0.0600 
    151 H151       -5.3307  -19.8994  -43.8035 H         1 UNK         0.0600 
    152 H152       -4.9882  -18.2638  -44.3466 H         1 UNK         0.0600 
    153 H153       -4.0574  -18.9645  -43.0244 H         1 UNK         0.0600 
    154 H154       -2.4784  -17.9163  -44.6332 H         1 UNK         0.3000 
    155 H155        0.4564  -18.1885  -46.7156 H         1 UNK         0.0600 
    156 H156       -0.0763  -15.8033  -46.9693 H         1 UNK         0.0600 
    157 H157       -1.3061  -16.7364  -47.8124 H         1 UNK         0.0600 
    158 H158       -1.6689  -16.0352  -46.2516 H         1 UNK         0.0600 
    159 H159        0.0212  -16.4980  -44.5188 H         1 UNK         0.3000 
    160 H160        1.0654  -18.6828  -41.8730 H         1 UNK         0.0600 
    161 H161        2.3527  -16.2696  -43.2274 H         1 UNK         0.0600 
    162 H162        3.1495  -17.8030  -42.8975 H         1 UNK         0.0600 
    163 H163        2.6399  -16.7751  -41.5634 H         1 UNK         0.0600 
    164 H164        0.1750  -15.9207  -42.1290 H         1 UNK         0.3000 
    165 H165       -3.1922  -16.6081  -41.1523 H         1 UNK         0.0600 
    166 H166       -2.5870  -14.9208  -39.4468 H         1 UNK         0.0600 
    167 H167       -1.8449  -16.4624  -39.0504 H         1 UNK         0.0600 
    168 H168       -0.8690  -15.1772  -39.7521 H         1 UNK         0.0600 
    169 H169       -1.8666  -14.1708  -41.8035 H         1 UNK         0.3000 
    170 H170       -2.6500  -14.1868  -45.2931 H         1 UNK         0.0600 
    171 H171       -4.7599  -13.5940  -44.0869 H         1 UNK         0.0600 
    172 H172       -3.8358  -12.6181  -42.9512 H         1 UNK         0.0600 
    173 H173       -3.9019  -12.1727  -44.6567 H         1 UNK         0.0600 
    174 H174       -1.5657  -12.0648  -43.9955 H         1 UNK         0.3000 
    175 H175        0.5435  -11.6104  -45.0530 H         1 UNK         0.0600 
    176 H176        1.3210  -12.3076  -42.1724 H         1 UNK         0.0600 
    177 H177        1.9024  -10.8812  -43.0329 H         1 UNK         0.0600 
    178 H178        0.1898  -11.0793  -42.7058 H         1 UNK         0.0600 
    179 H179        2.2886  -12.6210  -45.8932 H         1 UNK         0.3000 
    180 H180        5.2377  -13.9110  -44.6748 H         1 UNK         0.0600 
    181 H181        3.1237  -15.7642  -45.8849 H         1 UNK         0.0600 
    182 H182        4.2854  -16.1311  -44.6195 H         1 UNK         0.0600 
    183 H183        4.8461  -15.8885  -46.2617 H         1 UNK         0.0600 
    184 H184        4.0879  -13.7880  -47.3193 H         1 UNK         0.3000 
    185 H185        4.5050  -10.3850  -47.8794 H         1 UNK         0.0600 
    186 H186        6.9456  -10.9435  -47.9752 H         1 UNK         0.0600 
    187 H187        6.5747  -12.4357  -48.8307 H         1 UNK         0.0600 
    188 H188        6.2359  -10.8740  -49.5789 H         1 UNK         0.0600 
    189 H189        4.2857  -12.3247  -49.8438 H         1 UNK         0.3000 
    190 H190       -1.1557  -21.6190  -47.1707 H         1 UNK         0.3000 
    191 H191       -1.4634  -23.1816  -49.4966 H         1 UNK         0.0600 
    192 H192       -2.6029  -21.0344  -49.1819 H         1 UNK         0.0600 
    193 H193       -3.5456  -21.6715  -47.8381 H         1 UNK         0.0600 
    194 H194       -3.8028  -22.2780  -49.4714 H         1 UNK         0.0600 
    195 H195       -2.8738  -23.6498  -46.2088 H         1 UNK         0.3000 
    196 H196       -4.3858  -25.9612  -46.8018 H         1 UNK         0.0600 
    197 H197       -4.3627  -26.3051  -44.3261 H         1 UNK         0.0600 
    198 H198       -4.7086  -24.6338  -44.7430 H         1 UNK         0.0600 
    199 H199       -3.1085  -25.0832  -44.1587 H         1 UNK         0.0600 
    200 H200       -0.9811  -25.6551  -45.7023 H         1 UNK         0.3000 
    201 H201       -0.4202  -28.4492  -45.5617 H         1 UNK         0.0600 
    202 H202        0.9616  -26.7375  -44.4246 H         1 UNK         0.0600 
    203 H203        1.4557  -26.0606  -45.9739 H         1 UNK         0.0600 
    204 H204        1.9566  -27.6852  -45.5205 H         1 UNK         0.0600 
    205 H205       -0.0561  -26.0689  -48.2142 H         1 UNK         0.3000 
    206 H206        1.1103  -27.9004  -50.1023 H         1 UNK         0.0600 
    207 H207        1.4343  -25.4320  -50.1979 H         1 UNK         0.0600 
    208 H208        0.7149  -26.0160  -51.6906 H         1 UNK         0.0600 
    209 H209       -0.2873  -25.1997  -50.4977 H         1 UNK         0.0600 
    210 H210       -2.1221  -27.4253  -49.0626 H         1 UNK         0.3000 
    211 H211       -4.1381  -28.1175  -49.6095 H         1 UNK         0.0600 
    212 H212       -2.9057  -30.0513  -51.6433 H         1 UNK         0.0600 
    213 H213       -4.5355  -30.1098  -50.9907 H         1 UNK         0.0600 
    214 H214       -3.1632  -30.4033  -49.9347 H         1 UNK         0.0600 
    215 H215       -3.2831  -25.7722  -50.5572 H         1 UNK         0.3000 
    216 H216       -4.3852  -25.4316  -53.3205 H         1 UNK         0.0600 
    217 H217       -1.9744  -24.7564  -53.0349 H         1 UNK         0.0600 
    218 H218       -2.4286  -23.6894  -51.7085 H         1 UNK         0.0600 
    219 H219       -2.9945  -23.3586  -53.3401 H         1 UNK         0.0600 
    220 H220       -5.5415  -23.3490  -53.5950 H         1 UNK         0.3000 
    221 H221       -7.3875  -22.7290  -51.3862 H         1 UNK         0.0600 
    222 H222       -7.1888  -21.6838  -54.2643 H         1 UNK         0.0600 
    223 H223       -8.2867  -22.9357  -53.6869 H         1 UNK         0.0600 
    224 H224       -8.4604  -21.2829  -53.1167 H         1 UNK         0.0600 
    225 H225       -6.7828  -21.2462  -49.8886 H         1 UNK         0.3000 
    226 H226       -4.4883  -19.6382  -50.0027 H         1 UNK         0.0600 
    227 H227       -5.6070  -20.3599  -47.8959 H         1 UNK         0.0600 
    228 H228       -5.3824  -18.6183  -47.9267 H         1 UNK         0.0600 
    229 H229       -6.9731  -19.3024  -48.2436 H         1 UNK         0.0600 
    230 H230       -7.7729  -18.9145  -51.0349 H         1 UNK         0.3000 
    231 H231       -7.5125  -16.0785  -51.3230 H         1 UNK         0.0600 
    232 H232       -9.6306  -16.3259  -52.6261 H         1 UNK         0.0600 
    233 H233       -9.7048  -17.2288  -51.1222 H         1 UNK         0.0600 
    234 H234       -9.4298  -18.0737  -52.6467 H         1 UNK         0.0600 
    235 H235       -6.3441  -18.7237  -53.3166 H         1 UNK         0.3000 
    236 H236       -6.2363  -17.1597  -55.7936 H         1 UNK         0.0600 
    237 H237       -6.6228  -19.6236  -55.8518 H         1 UNK         0.0600 
    238 H238       -5.1632  -19.1698  -56.7179 H         1 UNK         0.0600 
    239 H239       -5.0402  -19.8989  -55.1252 H         1 UNK         0.0600 
    240 H240       -3.9289  -18.3899  -53.3157 H         1 UNK         0.3000 
    241 H241       -1.6978  -16.9382  -54.5217 H         1 UNK         0.0600 
    242 H242       -3.9499  -16.2254  -51.8071 H         1 UNK         0.3800 
    243 H243       -3.1438  -14.7253  -51.4382 H         1 UNK         0.3800 
    244 H244       -1.0486  -19.0404  -53.7641 H         1 UNK         0.0800 
    245 H245       -0.3534  -17.9436  -52.6182 H         1 UNK         0.0800 
    246 H246       -1.8239  -17.3956  -50.2276 H         1 UNK         0.0800 
    247 H247       -2.1100  -18.8328  -49.2981 H         1 UNK         0.0800 
@<TRIPOS>BOND
     1    1    2 1    
     2    1  127 1    
     3    1  128 1    
     4    1  129 1    
     5    2    3 2    
     6    2    4 am   BACKBONE|DICT|INTERRES
     7    4    5 1    
     8    4  130 1    
     9    5    6 1    
    10    5   65 1    
    11    5  131 1    
    12    6    7 1    
    13    6  132 1    
    14    6  133 1    
    15    7    8 1    
    16    8    9 1    
    17    8  134 1    
    18    8  135 1    
    19    9   10 ar   
    20    9   14 ar   
    21   10   11 ar   
    22   10  136 1    
    23   11   12 ar   
    24   11  126 1    
    25   12   13 ar   
    26   12  137 1    
    27   13   14 ar   
    28   13   15 1    
    29   14  138 1    
    30   15   16 1    
    31   15  139 1    
    32   15  140 1    
    33   16   17 1    
    34   17   18 1    
    35   17  141 1    
    36   17  142 1    
    37   18   19 1    
    38   18   67 1    
    39   18  143 1    
    40   19   20 am   BACKBONE|DICT|INTERRES
    41   19  144 1    
    42   20   21 2    
    43   20   22 1    
    44   22   23 1    
    45   22   24 1    
    46   22  145 1    
    47   23  146 1    
    48   23  147 1    
    49   23  148 1    
    50   24   25 am   BACKBONE|DICT|INTERRES
    51   24  149 1    
    52   25   26 2    
    53   25   27 1    
    54   27   28 1    
    55   27   29 1    
    56   27  150 1    
    57   28  151 1    
    58   28  152 1    
    59   28  153 1    
    60   29   30 am   BACKBONE|DICT|INTERRES
    61   29  154 1    
    62   30   31 2    
    63   30   32 1    
    64   32   33 1    
    65   32   34 1    
    66   32  155 1    
    67   33  156 1    
    68   33  157 1    
    69   33  158 1    
    70   34   35 am   BACKBONE|DICT|INTERRES
    71   34  159 1    
    72   35   36 2    
    73   35   37 1    
    74   37   38 1    
    75   37   39 1    
    76   37  160 1    
    77   38  161 1    
    78   38  162 1    
    79   38  163 1    
    80   39   40 am   BACKBONE|DICT|INTERRES
    81   39  164 1    
    82   40   41 2    
    83   40   42 1    
    84   42   43 1    
    85   42   44 1    
    86   42  165 1    
    87   43  166 1    
    88   43  167 1    
    89   43  168 1    
    90   44   45 am   BACKBONE|DICT|INTERRES
    91   44  169 1    
    92   45   46 2    
    93   45   47 1    
    94   47   48 1    
    95   47   49 1    
    96   47  170 1    
    97   48  171 1    
    98   48  172 1    
    99   48  173 1    
   100   49   50 am   BACKBONE|DICT|INTERRES
   101   49  174 1    
   102   50   51 2    
   103   50   52 1    
   104   52   53 1    
   105   52   54 1    
   106   52  175 1    
   107   53  176 1    
   108   53  177 1    
   109   53  178 1    
   110   54   55 am   BACKBONE|DICT|INTERRES
   111   54  179 1    
   112   55   56 2    
   113   55   57 1    
   114   57   58 1    
   115   57   59 1    
   116   57  180 1    
   117   58  181 1    
   118   58  182 1    
   119   58  183 1    
   120   59   60 am   BACKBONE|DICT|INTERRES
   121   59  184 1    
   122   60   61 2    
   123   60   62 1    
   124   62   63 1    
   125   62   64 1    
   126   62  185 1    
   127   63  186 1    
   128   63  187 1    
   129   63  188 1    
   130   64   65 am   BACKBONE|DICT|INTERRES
   131   64  189 1    
   132   65   66 2    
   133   67   68 2    
   134   67   69 am   BACKBONE|DICT|INTERRES
   135   69   70 1    
   136   69  190 1    
   137   70   71 1    
   138   70   72 1    
   139   70  191 1    
   140   71  192 1    
   141   71  193 1    
   142   71  194 1    
   143   72   73 2    
   144   72   74 am   BACKBONE|DICT|INTERRES
   145   74   75 1    
   146   74  195 1    
   147   75   76 1    
   148   75   77 1    
   149   75  196 1    
   150   76  197 1    
   151   76  198 1    
   152   76  199 1    
   153   77   78 2    
   154   77   79 am   BACKBONE|DICT|INTERRES
   155   79   80 1    
   156   79  200 1    
   157   80   81 1    
   158   80   82 1    
   159   80  201 1    
   160   81  202 1    
   161   81  203 1    
   162   81  204 1    
   163   82   83 2    
   164   82   84 am   BACKBONE|DICT|INTERRES
   165   84   85 1    
   166   84  205 1    
   167   85   86 1    
   168   85   87 1    
   169   85  206 1    
   170   86  207 1    
   171   86  208 1    
   172   86  209 1    
   173   87   88 2    
   174   87   89 am   BACKBONE|DICT|INTERRES
   175   89   90 1    
   176   89  210 1    
   177   90   91 1    
   178   90   92 1    
   179   90  211 1    
   180   91  212 1    
   181   91  213 1    
   182   91  214 1    
   183   92   93 2    
   184   92   94 am   BACKBONE|DICT|INTERRES
   185   94   95 1    
   186   94  215 1    
   187   95   96 1    
   188   95   97 1    
   189   95  216 1    
   190   96  217 1    
   191   96  218 1    
   192   96  219 1    
   193   97   98 2    
   194   97   99 am   BACKBONE|DICT|INTERRES
   195   99  100 1    
   196   99  220 1    
   197  100  101 1    
   198  100  102 1    
   199  100  221 1    
   200  101  222 1    
   201  101  223 1    
   202  101  224 1    
   203  102  103 2    
   204  102  104 am   BACKBONE|DICT|INTERRES
   205  104  105 1    
   206  104  225 1    
   207  105  106 1    
   208  105  107 1    
   209  105  226 1    
   210  106  227 1    
   211  106  228 1    
   212  106  229 1    
   213  107  108 2    
   214  107  109 am   BACKBONE|DICT|INTERRES
   215  109  110 1    
   216  109  230 1    
   217  110  111 1    
   218  110  112 1    
   219  110  231 1    
   220  111  232 1    
   221  111  233 1    
   222  111  234 1    
   223  112  113 2    
   224  112  114 am   BACKBONE|DICT|INTERRES
   225  114  115 1    
   226  114  235 1    
   227  115  116 1    
   228  115  117 1    
   229  115  236 1    
   230  116  237 1    
   231  116  238 1    
   232  116  239 1    
   233  117  118 2    
   234  117  119 am   BACKBONE|DICT|INTERRES
   235  119  120 1    
   236  119  240 1    
   237  120  121 1    
   238  120  124 1    
   239  120  241 1    
   240  121  122 am   BACKBONE|DICT|INTERRES
   241  121  123 2    
   242  122  242 1    
   243  122  243 1    
   244  124  125 1    
   245  124  244 1    
   246  124  245 1    
   247  125  126 1    
   248  126  246 1    
   249  126  247 1    
@<TRIPOS>SUBSTRUCTURE
     1 UNK         1 GROUP             0       ****    0 ROOT    
