@<TRIPOS>MOLECULE
3R540
247   249    1
SMALL
USER_CHARGES


@<TRIPOS>ATOM
      1 CA          3.9788  -21.2429  -43.3493 C.3       0 UNK        -0.1800 
      2 C           3.7368  -19.7457  -43.4788 C.2       0 UNK         0.5000 
      3 O           3.1507  -19.1417  -42.5817 O.2       0 UNK        -0.5000 
      4 N           4.1776  -19.1551  -44.5956 N.am      1 UNK        -0.5000 
      5 CA          4.0365  -17.7319  -44.9126 C.3       1 UNK         0.1400 
      6 C6          4.2520  -17.4914  -46.4215 C.3       23 UNK        -0.0398 
      7 S7          3.6506  -15.8802  -47.0409 S.3       23 UNK        -0.2404 
      8 C8          4.1143  -15.9710  -48.8076 C.3       23 UNK        -0.0205 
      9 C9          3.2575  -16.9652  -49.5831 C.ar      23 UNK        -0.0193 
     10 C10         2.1762  -16.5337  -50.3582 C.ar      23 UNK        -0.1150 
     11 C11         1.3760  -17.4593  -51.0382 C.ar      23 UNK        -0.0193 
     12 C12         1.6252  -18.8276  -50.8859 C.ar      23 UNK        -0.1150 
     13 C13         2.7089  -19.2698  -50.1210 C.ar      23 UNK        -0.0193 
     14 C14         3.5517  -18.3287  -49.5273 C.ar      23 UNK        -0.1150 
     15 C15         2.9600  -20.7608  -49.9200 C.3       23 UNK        -0.0205 
     16 S16         3.2677  -21.2195  -48.1718 S.3       23 UNK        -0.2404 
     17 C17         1.8057  -20.5345  -47.3125 C.3       23 UNK        -0.0398 
     18 CA          0.6969  -21.5739  -47.0386 C.3       11 UNK         0.1400 
     19 N          -0.2956  -21.0588  -46.0924 N.am      11 UNK        -0.5000 
     20 C          -1.2905  -21.7787  -45.5564 C.2       10 UNK         0.5000 
     21 O          -1.4354  -22.9874  -45.7392 O.2       10 UNK        -0.5000 
     22 CA         -2.3291  -21.0082  -44.7200 C.3       10 UNK         0.1400 
     23 CB         -1.8225  -20.7790  -43.2883 C.3       10 UNK        -0.1800 
     24 N          -2.7029  -19.7289  -45.3281 N.am      10 UNK        -0.5000 
     25 C          -3.3276  -19.6127  -46.5091 C.2       9 UNK         0.5000 
     26 O          -3.7034  -20.5751  -47.1763 O.2       9 UNK        -0.5000 
     27 CA         -3.5390  -18.1920  -47.0616 C.3       9 UNK         0.1400 
     28 CB         -4.7769  -17.5440  -46.4252 C.3       9 UNK        -0.1800 
     29 N          -2.3744  -17.3244  -46.8798 N.am      9 UNK        -0.5000 
     30 C          -1.1616  -17.5550  -47.4048 C.2       8 UNK         0.5000 
     31 O          -0.9067  -18.5152  -48.1290 O.2       8 UNK        -0.5000 
     32 CA         -0.0258  -16.6031  -46.9856 C.3       8 UNK         0.1400 
     33 CB         -0.1029  -15.2640  -47.7323 C.3       8 UNK        -0.1800 
     34 N          -0.0222  -16.3484  -45.5462 N.am      8 UNK        -0.5000 
     35 C           0.1527  -17.2835  -44.6032 C.2       7 UNK         0.5000 
     36 O           0.4045  -18.4632  -44.8495 O.2       7 UNK        -0.5000 
     37 CA         -0.0387  -16.8263  -43.1458 C.3       7 UNK         0.1400 
     38 CB          1.2046  -16.1006  -42.6086 C.3       7 UNK        -0.1800 
     39 N          -1.1974  -15.9457  -43.0100 N.am      7 UNK        -0.5000 
     40 C          -2.4710  -16.3454  -43.1189 C.2       6 UNK         0.5000 
     41 O          -2.8071  -17.5126  -43.3175 O.2       6 UNK        -0.5000 
     42 CA         -3.5449  -15.2461  -43.0217 C.3       6 UNK         0.1400 
     43 CB         -3.8853  -14.9504  -41.5535 C.3       6 UNK        -0.1800 
     44 N          -3.1415  -14.0045  -43.6858 N.am      6 UNK        -0.5000 
     45 C          -2.9885  -13.8763  -45.0112 C.2       5 UNK         0.5000 
     46 O          -3.1918  -14.7864  -45.8125 O.2       5 UNK        -0.5000 
     47 CA         -2.4814  -12.5176  -45.5262 C.3       5 UNK         0.1400 
     48 CB         -3.6511  -11.5392  -45.7091 C.3       5 UNK        -0.1800 
     49 N          -1.4610  -11.9031  -44.6721 N.am      5 UNK        -0.5000 
     50 C          -0.2722  -12.4505  -44.3883 C.2       4 UNK         0.5000 
     51 O           0.0629  -13.5846  -44.7385 O.2       4 UNK        -0.5000 
     52 CA          0.6846  -11.6042  -43.5301 C.3       4 UNK         0.1400 
     53 CB          0.5284  -11.9716  -42.0465 C.3       4 UNK        -0.1800 
     54 N           2.0814  -11.7960  -43.9162 N.am      4 UNK        -0.5000 
     55 C           2.6197  -11.4860  -45.1020 C.2       3 UNK         0.5000 
     56 O           1.9998  -10.9094  -45.9970 O.2       3 UNK        -0.5000 
     57 CA          4.0906  -11.8866  -45.3512 C.3       3 UNK         0.1400 
     58 CB          5.0365  -10.6938  -45.1134 C.3       3 UNK        -0.1800 
     59 N           4.5519  -13.0857  -44.6319 N.am      3 UNK        -0.5000 
     60 C           4.7349  -13.2694  -43.3148 C.2       2 UNK         0.5000 
     61 O           4.5036  -12.4079  -42.4662 O.2       2 UNK        -0.5000 
     62 CA          5.1868  -14.6757  -42.8838 C.3       2 UNK         0.1400 
     63 CB          4.9502  -14.9578  -41.3872 C.3       2 UNK        -0.1800 
     64 N           4.4888  -15.6742  -43.6887 N.am      2 UNK        -0.5000 
     65 C           4.9730  -16.8662  -44.0470 C.2       1 UNK         0.5000 
     66 O           6.0973  -17.2756  -43.7470 O.2       1 UNK        -0.5000 
     67 C           0.0334  -22.0613  -48.3429 C.2       11 UNK         0.5000 
     68 O           0.3093  -23.1770  -48.7830 O.2       11 UNK        -0.5000 
     69 N          -0.8553  -21.2378  -48.9148 N.am      12 UNK        -0.5000 
     70 CA         -1.6324  -21.5525  -50.1125 C.3       12 UNK         0.1400 
     71 CB         -2.4500  -20.3240  -50.5261 C.3       12 UNK        -0.1800 
     72 C          -2.5354  -22.7856  -49.9313 C.2       12 UNK         0.5000 
     73 O          -2.5867  -23.6301  -50.8257 O.2       12 UNK        -0.5000 
     74 N          -3.1817  -22.8979  -48.7611 N.am      13 UNK        -0.5000 
     75 CA         -3.9881  -24.0501  -48.3618 C.3       13 UNK         0.1400 
     76 CB         -4.7239  -23.7452  -47.0476 C.3       13 UNK        -0.1800 
     77 C          -3.1564  -25.3371  -48.2268 C.2       13 UNK         0.5000 
     78 O          -3.5848  -26.3819  -48.7159 O.2       13 UNK        -0.5000 
     79 N          -1.9743  -25.2352  -47.6015 N.am      14 UNK        -0.5000 
     80 CA         -1.0168  -26.3339  -47.4478 C.3       14 UNK         0.1400 
     81 CB          0.0997  -25.9128  -46.4801 C.3       14 UNK        -0.1800 
     82 C          -0.4303  -26.8079  -48.7914 C.2       14 UNK         0.5000 
     83 O          -0.2678  -28.0116  -48.9945 O.2       14 UNK        -0.5000 
     84 N          -0.1590  -25.8571  -49.6952 N.am      15 UNK        -0.5000 
     85 CA          0.2756  -26.1030  -51.0719 C.3       15 UNK         0.1400 
     86 CB          0.8550  -24.7990  -51.6446 C.3       15 UNK        -0.1800 
     87 C          -0.8504  -26.6300  -51.9862 C.2       15 UNK         0.5000 
     88 O          -0.5523  -27.1631  -53.0556 O.2       15 UNK        -0.5000 
     89 N          -2.1100  -26.4511  -51.5601 N.am      16 UNK        -0.5000 
     90 CA         -3.3567  -26.7155  -52.2839 C.3       16 UNK         0.1400 
     91 CB         -3.5466  -28.2270  -52.5255 C.3       16 UNK        -0.1800 
     92 C          -3.4719  -25.8677  -53.5685 C.2       16 UNK         0.5000 
     93 O          -3.9065  -26.3653  -54.6089 O.2       16 UNK        -0.5000 
     94 N          -3.0651  -24.5974  -53.4698 N.am      17 UNK        -0.5000 
     95 CA         -2.9872  -23.6467  -54.5729 C.3       17 UNK         0.1400 
     96 CB         -1.6531  -23.8478  -55.3203 C.3       17 UNK        -0.1800 
     97 C          -3.1527  -22.2198  -54.0164 C.2       17 UNK         0.5000 
     98 O          -2.1638  -21.4928  -53.9271 O.2       17 UNK        -0.5000 
     99 N          -4.3573  -21.7978  -53.6132 N.am      18 UNK        -0.5000 
    100 CA        -5.6198  -22.5304  -53.5351 C.3       18 UNK         0.1400 
    101 CB        -6.6568  -21.7895  -54.3965 C.3       18 UNK        -0.1800 
    102 C         -6.0735  -22.6016  -52.0660 C.2       18 UNK         0.5000 
    103 O         -5.4196  -22.0401  -51.1849 O.2       18 UNK        -0.5000 
    104 N         -7.1887  -23.3029  -51.8247 N.am      19 UNK        -0.5000 
    105 CA        -7.8047  -23.5185  -50.5135 C.3       19 UNK         0.1400 
    106 CB        -9.0573  -24.3928  -50.6925 C.3       19 UNK        -0.1800 
    107 C         -8.1284  -22.2036  -49.7715 C.2       19 UNK         0.5000 
    108 O         -9.1805  -21.6059  -50.0038 O.2       19 UNK        -0.5000 
    109 N         -7.1919  -21.7875  -48.9087 N.am      20 UNK        -0.5000 
    110 CA        -7.2052  -20.5859  -48.0729 C.3       20 UNK         0.1400 
    111 CB        -8.3462  -20.6488  -47.0358 C.3       20 UNK        -0.1800 
    112 C         -7.1807  -19.2655  -48.8715 C.2       20 UNK         0.5000 
    113 O         -7.7197  -18.2640  -48.3966 O.2       20 UNK        -0.5000 
    114 N         -6.5433  -19.2612  -50.0504 N.am      21 UNK        -0.5000 
    115 CA        -6.3987  -18.0728  -50.8882 C.3       21 UNK         0.1400 
    116 CB        -7.7002  -17.8134  -51.6700 C.3       21 UNK        -0.1800 
    117 C         -5.2223  -18.2450  -51.8540 C.2       21 UNK         0.5000 
    118 O         -5.0980  -19.2989  -52.4750 O.2       21 UNK        -0.5000 
    119 N         -4.4129  -17.1925  -52.0098 N.am      22 UNK        -0.5000 
    120 CA        -3.3194  -17.1264  -52.9967 C.3       22 UNK         0.1400 
    121 C         -3.7910  -16.9135  -54.4682 C.2       22 UNK         0.5000 
    122 N         -5.0585  -16.6203  -54.7336 N.am      22 UNK        -0.7600 
    123 O         -2.9885  -17.0209  -55.3912 O.2       22 UNK        -0.5000 
    124 C124       -2.2647  -16.0619  -52.5983 C.3       23 UNK        -0.0398 
    125 S125       -1.2732  -16.5704  -51.1528 S.3       23 UNK        -0.2404 
    126 C126        0.2885  -16.9817  -51.9894 C.3       23 UNK        -0.0205 
    127 H127        4.5900  -21.4500  -42.4709 H         1 UNK         0.0600 
    128 H128        4.4887  -21.6490  -44.2234 H         1 UNK         0.0600 
    129 H129        3.0292  -21.7664  -43.2376 H         1 UNK         0.0600 
    130 H130        4.6960  -19.7036  -45.2662 H         1 UNK         0.3000 
    131 H131        3.0080  -17.4575  -44.6796 H         1 UNK         0.0600 
    132 H132        5.2980  -17.6290  -46.7017 H         1 UNK         0.0800 
    133 H133        3.6830  -18.2554  -46.9446 H         1 UNK         0.0800 
    134 H134        5.1687  -16.2367  -48.8971 H         1 UNK         0.0800 
    135 H135        4.0149  -14.9762  -49.2440 H         1 UNK         0.0800 
    136 H136        1.9651  -15.4773  -50.4462 H         1 UNK         0.1150 
    137 H137        0.9851  -19.5460  -51.3787 H         1 UNK         0.1150 
    138 H138        4.4137  -18.6688  -48.9726 H         1 UNK         0.1150 
    139 H139        2.1192  -21.3455  -50.2956 H         1 UNK         0.0800 
    140 H140        3.8254  -21.0526  -50.5161 H         1 UNK         0.0800 
    141 H141        1.4112  -19.6729  -47.8498 H         1 UNK         0.0800 
    142 H142        2.1603  -20.1392  -46.3605 H         1 UNK         0.0800 
    143 H143        1.1608  -22.4417  -46.5647 H         1 UNK         0.0600 
    144 H144       -0.2304  -20.0734  -45.8554 H         1 UNK         0.3000 
    145 H145       -3.2294  -21.6236  -44.6639 H         1 UNK         0.0600 
    146 H146       -1.5696  -21.7253  -42.8087 H         1 UNK         0.0600 
    147 H147       -0.9304  -20.1532  -43.2685 H         1 UNK         0.0600 
    148 H148       -2.5828  -20.2960  -42.6744 H         1 UNK         0.0600 
    149 H149       -2.4730  -18.8895  -44.8071 H         1 UNK         0.3000 
    150 H150       -3.7191  -18.2806  -48.1349 H         1 UNK         0.0600 
    151 H151       -5.6467  -18.1966  -46.4979 H         1 UNK         0.0600 
    152 H152       -5.0304  -16.6079  -46.9228 H         1 UNK         0.0600 
    153 H153       -4.6208  -17.3302  -45.3682 H         1 UNK         0.0600 
    154 H154       -2.5209  -16.4815  -46.3308 H         1 UNK         0.3000 
    155 H155        0.9194  -17.0844  -47.2436 H         1 UNK         0.0600 
    156 H156       -1.0420  -14.7460  -47.5398 H         1 UNK         0.0600 
    157 H157        0.7118  -14.6016  -47.4387 H         1 UNK         0.0600 
    158 H158       -0.0245  -15.4131  -48.8076 H         1 UNK         0.0600 
    159 H159       -0.1749  -15.3859  -45.2557 H         1 UNK         0.3000 
    160 H160       -0.2067  -17.7142  -42.5324 H         1 UNK         0.0600 
    161 H161        1.4749  -15.2411  -43.2217 H         1 UNK         0.0600 
    162 H162        2.0619  -16.7703  -42.5782 H         1 UNK         0.0600 
    163 H163        1.0447  -15.7464  -41.5901 H         1 UNK         0.0600 
    164 H164       -1.0081  -14.9598  -42.9096 H         1 UNK         0.3000 
    165 H165       -4.4471  -15.6174  -43.5121 H         1 UNK         0.0600 
    166 H166       -4.6988  -14.2290  -41.4751 H         1 UNK         0.0600 
    167 H167       -4.2054  -15.8568  -41.0376 H         1 UNK         0.0600 
    168 H168       -3.0273  -14.5499  -41.0120 H         1 UNK         0.0600 
    169 H169       -2.9527  -13.2066  -43.0972 H         1 UNK         0.3000 
    170 H170       -2.0280  -12.6890  -46.5046 H         1 UNK         0.0600 
    171 H171       -4.4184  -11.9649  -46.3573 H         1 UNK         0.0600 
    172 H172       -4.1245  -11.2934  -44.7577 H         1 UNK         0.0600 
    173 H173       -3.3191  -10.6087  -46.1700 H         1 UNK         0.0600 
    174 H174       -1.6650  -10.9750  -44.3305 H         1 UNK         0.3000 
    175 H175        0.4404  -10.5482  -43.6617 H         1 UNK         0.0600 
    176 H176        0.7864  -13.0150  -41.8608 H         1 UNK         0.0600 
    177 H177        1.1694  -11.3528  -41.4182 H         1 UNK         0.0600 
    178 H178       -0.4980  -11.8211  -41.7097 H         1 UNK         0.0600 
    179 H179        2.6965  -12.2087  -43.2248 H         1 UNK         0.3000 
    180 H180        4.1555  -12.1453  -46.4094 H         1 UNK         0.0600 
    181 H181        5.0067  -10.3482  -44.0798 H         1 UNK         0.0600 
    182 H182        4.7610   -9.8483  -45.7449 H         1 UNK         0.0600 
    183 H183        6.0677  -10.9541  -45.3517 H         1 UNK         0.0600 
    184 H184        4.7478  -13.8759  -45.2314 H         1 UNK         0.3000 
    185 H185        6.2589  -14.7303  -43.0833 H         1 UNK         0.0600 
    186 H186        5.4882  -14.2442  -40.7622 H         1 UNK         0.0600 
    187 H187        3.8922  -14.8919  -41.1304 H         1 UNK         0.0600 
    188 H188        5.2988  -15.9536  -41.1129 H         1 UNK         0.0600 
    189 H189        3.5694  -15.4039  -44.0087 H         1 UNK         0.3000 
    190 H190       -0.9928  -20.3098  -48.5181 H         1 UNK         0.3000 
    191 H191       -0.9258  -21.7730  -50.9149 H         1 UNK         0.0600 
    192 H192       -3.1916  -20.0545  -49.7750 H         1 UNK         0.0600 
    193 H193       -2.9832  -20.5149  -51.4552 H         1 UNK         0.0600 
    194 H194       -1.8078  -19.4602  -50.6927 H         1 UNK         0.0600 
    195 H195       -3.1316  -22.1240  -48.1035 H         1 UNK         0.3000 
    196 H196       -4.7327  -24.2147  -49.1429 H         1 UNK         0.0600 
    197 H197       -5.3874  -24.5662  -46.7733 H         1 UNK         0.0600 
    198 H198       -5.3333  -22.8473  -47.1257 H         1 UNK         0.0600 
    199 H199       -4.0287  -23.5971  -46.2213 H         1 UNK         0.0600 
    200 H200       -1.7126  -24.3440  -47.1905 H         1 UNK         0.3000 
    201 H201       -1.5480  -27.1780  -47.0034 H         1 UNK         0.0600 
    202 H202       -0.3054  -25.6478  -45.5034 H         1 UNK         0.0600 
    203 H203        0.6562  -25.0534  -46.8543 H         1 UNK         0.0600 
    204 H204        0.8118  -26.7248  -46.3282 H         1 UNK         0.0600 
    205 H205       -0.2438  -24.8829  -49.4142 H         1 UNK         0.3000 
    206 H206        1.0681  -26.8538  -51.0555 H         1 UNK         0.0600 
    207 H207        1.6855  -24.4356  -51.0389 H         1 UNK         0.0600 
    208 H208        1.2309  -24.9478  -52.6576 H         1 UNK         0.0600 
    209 H209        0.1023  -24.0109  -51.6868 H         1 UNK         0.0600 
    210 H210       -2.2265  -25.9682  -50.6789 H         1 UNK         0.3000 
    211 H211       -4.1627  -26.3830  -51.6280 H         1 UNK         0.0600 
    212 H212       -2.8080  -28.6241  -53.2222 H         1 UNK         0.0600 
    213 H213       -4.5329  -28.4341  -52.9423 H         1 UNK         0.0600 
    214 H214       -3.4645  -28.7866  -51.5937 H         1 UNK         0.0600 
    215 H215       -2.7792  -24.2439  -52.5566 H         1 UNK         0.3000 
    216 H216       -3.7933  -23.8232  -55.2873 H         1 UNK         0.0600 
    217 H217       -1.5420  -23.1208  -56.1256 H         1 UNK         0.0600 
    218 H218       -1.5973  -24.8398  -55.7688 H         1 UNK         0.0600 
    219 H219       -0.7977  -23.7372  -54.6525 H         1 UNK         0.0600 
    220 H220       -4.4228  -20.8790  -53.1801 H         1 UNK         0.3000 
    221 H221       -5.5287  -23.5519  -53.9008 H         1 UNK         0.0600 
    222 H222       -6.8500  -20.7848  -54.0180 H         1 UNK         0.0600 
    223 H223       -6.3152  -21.6956  -55.4274 H         1 UNK         0.0600 
    224 H224       -7.6090  -22.3201  -54.4210 H         1 UNK         0.0600 
    225 H225       -7.6784  -23.7108  -52.6073 H         1 UNK         0.3000 
    226 H226       -7.0963  -24.0857  -49.9066 H         1 UNK         0.0600 
    227 H227       -8.8030  -25.3661  -51.1126 H         1 UNK         0.0600 
    228 H228       -9.5480  -24.5720  -49.7349 H         1 UNK         0.0600 
    229 H229       -9.7876  -23.9229  -51.3526 H         1 UNK         0.0600 
    230 H230       -6.3201  -22.2978  -48.8993 H         1 UNK         0.3000 
    231 H231       -6.2708  -20.6031  -47.5142 H         1 UNK         0.0600 
    232 H232       -8.2603  -19.8396  -46.3097 H         1 UNK         0.0600 
    233 H233       -8.3208  -21.5851  -46.4783 H         1 UNK         0.0600 
    234 H234       -9.3263  -20.5630  -47.5055 H         1 UNK         0.0600 
    235 H235       -6.1072  -20.1086  -50.4038 H         1 UNK         0.3000 
    236 H236       -6.1910  -17.2126  -50.2477 H         1 UNK         0.0600 
    237 H237       -8.5381  -17.6224  -50.9996 H         1 UNK         0.0600 
    238 H238       -7.6024  -16.9424  -52.3187 H         1 UNK         0.0600 
    239 H239       -7.9639  -18.6654  -52.2983 H         1 UNK         0.0600 
    240 H240       -4.5749  -16.3544  -51.4715 H         1 UNK         0.3000 
    241 H241       -2.8189  -18.0974  -53.0002 H         1 UNK         0.0600 
    242 H242       -5.7328  -16.5293  -53.9923 H         1 UNK         0.3800 
    243 H243       -5.3457  -16.4904  -55.6911 H         1 UNK         0.3800 
    244 H244       -1.5850  -15.8516  -53.4260 H         1 UNK         0.0800 
    245 H245       -2.7495  -15.1112  -52.3722 H         1 UNK         0.0800 
    246 H246        0.0947  -17.7447  -52.7453 H         1 UNK         0.0800 
    247 H247        0.6485  -16.1039  -52.5284 H         1 UNK         0.0800 
@<TRIPOS>BOND
     1    1    2 1    
     2    1  127 1    
     3    1  128 1    
     4    1  129 1    
     5    2    3 2    
     6    2    4 am   BACKBONE|DICT|INTERRES
     7    4    5 1    
     8    4  130 1    
     9    5    6 1    
    10    5   65 1    
    11    5  131 1    
    12    6    7 1    
    13    6  132 1    
    14    6  133 1    
    15    7    8 1    
    16    8    9 1    
    17    8  134 1    
    18    8  135 1    
    19    9   10 ar   
    20    9   14 ar   
    21   10   11 ar   
    22   10  136 1    
    23   11   12 ar   
    24   11  126 1    
    25   12   13 ar   
    26   12  137 1    
    27   13   14 ar   
    28   13   15 1    
    29   14  138 1    
    30   15   16 1    
    31   15  139 1    
    32   15  140 1    
    33   16   17 1    
    34   17   18 1    
    35   17  141 1    
    36   17  142 1    
    37   18   19 1    
    38   18   67 1    
    39   18  143 1    
    40   19   20 am   BACKBONE|DICT|INTERRES
    41   19  144 1    
    42   20   21 2    
    43   20   22 1    
    44   22   23 1    
    45   22   24 1    
    46   22  145 1    
    47   23  146 1    
    48   23  147 1    
    49   23  148 1    
    50   24   25 am   BACKBONE|DICT|INTERRES
    51   24  149 1    
    52   25   26 2    
    53   25   27 1    
    54   27   28 1    
    55   27   29 1    
    56   27  150 1    
    57   28  151 1    
    58   28  152 1    
    59   28  153 1    
    60   29   30 am   BACKBONE|DICT|INTERRES
    61   29  154 1    
    62   30   31 2    
    63   30   32 1    
    64   32   33 1    
    65   32   34 1    
    66   32  155 1    
    67   33  156 1    
    68   33  157 1    
    69   33  158 1    
    70   34   35 am   BACKBONE|DICT|INTERRES
    71   34  159 1    
    72   35   36 2    
    73   35   37 1    
    74   37   38 1    
    75   37   39 1    
    76   37  160 1    
    77   38  161 1    
    78   38  162 1    
    79   38  163 1    
    80   39   40 am   BACKBONE|DICT|INTERRES
    81   39  164 1    
    82   40   41 2    
    83   40   42 1    
    84   42   43 1    
    85   42   44 1    
    86   42  165 1    
    87   43  166 1    
    88   43  167 1    
    89   43  168 1    
    90   44   45 am   BACKBONE|DICT|INTERRES
    91   44  169 1    
    92   45   46 2    
    93   45   47 1    
    94   47   48 1    
    95   47   49 1    
    96   47  170 1    
    97   48  171 1    
    98   48  172 1    
    99   48  173 1    
   100   49   50 am   BACKBONE|DICT|INTERRES
   101   49  174 1    
   102   50   51 2    
   103   50   52 1    
   104   52   53 1    
   105   52   54 1    
   106   52  175 1    
   107   53  176 1    
   108   53  177 1    
   109   53  178 1    
   110   54   55 am   BACKBONE|DICT|INTERRES
   111   54  179 1    
   112   55   56 2    
   113   55   57 1    
   114   57   58 1    
   115   57   59 1    
   116   57  180 1    
   117   58  181 1    
   118   58  182 1    
   119   58  183 1    
   120   59   60 am   BACKBONE|DICT|INTERRES
   121   59  184 1    
   122   60   61 2    
   123   60   62 1    
   124   62   63 1    
   125   62   64 1    
   126   62  185 1    
   127   63  186 1    
   128   63  187 1    
   129   63  188 1    
   130   64   65 am   BACKBONE|DICT|INTERRES
   131   64  189 1    
   132   65   66 2    
   133   67   68 2    
   134   67   69 am   BACKBONE|DICT|INTERRES
   135   69   70 1    
   136   69  190 1    
   137   70   71 1    
   138   70   72 1    
   139   70  191 1    
   140   71  192 1    
   141   71  193 1    
   142   71  194 1    
   143   72   73 2    
   144   72   74 am   BACKBONE|DICT|INTERRES
   145   74   75 1    
   146   74  195 1    
   147   75   76 1    
   148   75   77 1    
   149   75  196 1    
   150   76  197 1    
   151   76  198 1    
   152   76  199 1    
   153   77   78 2    
   154   77   79 am   BACKBONE|DICT|INTERRES
   155   79   80 1    
   156   79  200 1    
   157   80   81 1    
   158   80   82 1    
   159   80  201 1    
   160   81  202 1    
   161   81  203 1    
   162   81  204 1    
   163   82   83 2    
   164   82   84 am   BACKBONE|DICT|INTERRES
   165   84   85 1    
   166   84  205 1    
   167   85   86 1    
   168   85   87 1    
   169   85  206 1    
   170   86  207 1    
   171   86  208 1    
   172   86  209 1    
   173   87   88 2    
   174   87   89 am   BACKBONE|DICT|INTERRES
   175   89   90 1    
   176   89  210 1    
   177   90   91 1    
   178   90   92 1    
   179   90  211 1    
   180   91  212 1    
   181   91  213 1    
   182   91  214 1    
   183   92   93 2    
   184   92   94 am   BACKBONE|DICT|INTERRES
   185   94   95 1    
   186   94  215 1    
   187   95   96 1    
   188   95   97 1    
   189   95  216 1    
   190   96  217 1    
   191   96  218 1    
   192   96  219 1    
   193   97   98 2    
   194   97   99 am   BACKBONE|DICT|INTERRES
   195   99  100 1    
   196   99  220 1    
   197  100  101 1    
   198  100  102 1    
   199  100  221 1    
   200  101  222 1    
   201  101  223 1    
   202  101  224 1    
   203  102  103 2    
   204  102  104 am   BACKBONE|DICT|INTERRES
   205  104  105 1    
   206  104  225 1    
   207  105  106 1    
   208  105  107 1    
   209  105  226 1    
   210  106  227 1    
   211  106  228 1    
   212  106  229 1    
   213  107  108 2    
   214  107  109 am   BACKBONE|DICT|INTERRES
   215  109  110 1    
   216  109  230 1    
   217  110  111 1    
   218  110  112 1    
   219  110  231 1    
   220  111  232 1    
   221  111  233 1    
   222  111  234 1    
   223  112  113 2    
   224  112  114 am   BACKBONE|DICT|INTERRES
   225  114  115 1    
   226  114  235 1    
   227  115  116 1    
   228  115  117 1    
   229  115  236 1    
   230  116  237 1    
   231  116  238 1    
   232  116  239 1    
   233  117  118 2    
   234  117  119 am   BACKBONE|DICT|INTERRES
   235  119  120 1    
   236  119  240 1    
   237  120  121 1    
   238  120  124 1    
   239  120  241 1    
   240  121  122 am   BACKBONE|DICT|INTERRES
   241  121  123 2    
   242  122  242 1    
   243  122  243 1    
   244  124  125 1    
   245  124  244 1    
   246  124  245 1    
   247  125  126 1    
   248  126  246 1    
   249  126  247 1    
@<TRIPOS>SUBSTRUCTURE
     1 UNK         1 GROUP             0       ****    0 ROOT    
