@<TRIPOS>MOLECULE
3R540
247   249    1
SMALL
USER_CHARGES


@<TRIPOS>ATOM
      1 CA         -1.1199  -13.2641  -44.5602 C.3       0 UNK        -0.1800 
      2 C          -0.7071  -12.9374  -45.9869 C.2       0 UNK         0.5000 
      3 O          -0.9364  -11.8206  -46.4496 O.2       0 UNK        -0.5000 
      4 N          -0.0927  -13.9039  -46.6824 N.am      1 UNK        -0.5000 
      5 CA          0.3911  -13.7636  -48.0646 C.3       1 UNK         0.1400 
      6 C6          0.6682  -15.1478  -48.7109 C.3       23 UNK        -0.0398 
      7 S7          0.2278  -15.1763  -50.4836 S.3       23 UNK        -0.2404 
      8 C8         -0.6464  -16.7655  -50.6351 C.3       23 UNK        -0.0205 
      9 C9          0.3210  -17.9184  -50.8610 C.ar      23 UNK        -0.0193 
     10 C10         0.5238  -18.4275  -52.1480 C.ar      23 UNK        -0.1150 
     11 C11         1.4118  -19.4868  -52.3637 C.ar      23 UNK        -0.0193 
     12 C12         2.1195  -20.0176  -51.2821 C.ar      23 UNK        -0.1150 
     13 C13         1.9328  -19.5119  -49.9928 C.ar      23 UNK        -0.0193 
     14 C14         1.0209  -18.4734  -49.7865 C.ar      23 UNK        -0.1150 
     15 C15         2.7260  -20.0787  -48.8244 C.3       23 UNK        -0.0205 
     16 S16         2.2328  -21.7809  -48.4219 S.3       23 UNK        -0.2404 
     17 C17         0.4549  -21.5732  -48.0754 C.3       23 UNK        -0.0398 
     18 CA         -0.0195  -22.5259  -46.9503 C.3       11 UNK         0.1400 
     19 N           0.4335  -22.0600  -45.6400 N.am      11 UNK        -0.5000 
     20 C           1.3750  -22.6353  -44.8840 C.2       10 UNK         0.5000 
     21 O           1.9496  -23.6823  -45.1836 O.2       10 UNK        -0.5000 
     22 CA          1.7440  -21.9267  -43.5639 C.3       10 UNK         0.1400 
     23 CB          3.0715  -21.1702  -43.7274 C.3       10 UNK        -0.1800 
     24 N           0.7237  -20.9932  -43.0776 N.am      10 UNK        -0.5000 
     25 C          -0.5061  -21.3398  -42.6730 C.2       9 UNK         0.5000 
     26 O          -0.9092  -22.5026  -42.6391 O.2       9 UNK        -0.5000 
     27 CA         -1.4606  -20.1935  -42.2903 C.3       9 UNK         0.1400 
     28 CB         -1.2478  -19.7792  -40.8268 C.3       9 UNK        -0.1800 
     29 N          -1.3377  -19.0128  -43.1490 N.am      9 UNK        -0.5000 
     30 C          -1.5526  -18.9848  -44.4727 C.2       8 UNK         0.5000 
     31 O          -1.8476  -19.9731  -45.1413 O.2       8 UNK        -0.5000 
     32 CA         -1.3536  -17.6319  -45.1750 C.3       8 UNK         0.1400 
     33 CB         -2.5351  -16.6836  -44.9197 C.3       8 UNK        -0.1800 
     34 N          -0.1039  -17.0082  -44.7431 N.am      8 UNK        -0.5000 
     35 C           1.0955  -17.3587  -45.2274 C.2       7 UNK         0.5000 
     36 O           1.2449  -18.1201  -46.1806 O.2       7 UNK        -0.5000 
     37 CA          2.3380  -16.7678  -44.5384 C.3       7 UNK         0.1400 
     38 CB          2.8873  -15.5804  -45.3371 C.3       7 UNK        -0.1800 
     39 N           2.0951  -16.3594  -43.1518 N.am      7 UNK        -0.5000 
     40 C           1.9507  -17.2381  -42.1494 C.2       6 UNK         0.5000 
     41 O           1.9633  -18.4583  -42.3085 O.2       6 UNK        -0.5000 
     42 CA          1.7144  -16.6701  -40.7409 C.3       6 UNK         0.1400 
     43 CB          3.0361  -16.1895  -40.1242 C.3       6 UNK        -0.1800 
     44 N           0.7369  -15.5851  -40.6802 N.am      6 UNK        -0.5000 
     45 C          -0.5235  -15.6115  -41.1270 C.2       5 UNK         0.5000 
     46 O          -0.9983  -16.5455  -41.7724 O.2       5 UNK        -0.5000 
     47 CA         -1.4046  -14.3844  -40.8183 C.3       5 UNK         0.1400 
     48 CB         -1.9311  -14.4291  -39.3719 C.3       5 UNK        -0.1800 
     49 N          -0.7736  -13.0942  -41.1257 N.am      5 UNK        -0.5000 
     50 C           0.3099  -12.5276  -40.5775 C.2       4 UNK         0.5000 
     51 O           0.9342  -12.9908  -39.6201 O.2       4 UNK        -0.5000 
     52 CA          0.8151  -11.2467  -41.2638 C.3       4 UNK         0.1400 
     53 CB          0.8062  -10.0605  -40.2869 C.3       4 UNK        -0.1800 
     54 N           2.1616  -11.4044  -41.8180 N.am      4 UNK        -0.5000 
     55 C           2.5551  -12.3481  -42.6845 C.2       3 UNK         0.5000 
     56 O           1.8377  -13.2618  -43.1039 O.2       3 UNK        -0.5000 
     57 CA          4.0073  -12.2561  -43.1808 C.3       3 UNK         0.1400 
     58 CB          4.8609  -13.3761  -42.5664 C.3       3 UNK        -0.1800 
     59 N           4.0413  -12.3635  -44.6383 N.am      3 UNK        -0.5000 
     60 C           3.6486  -11.3958  -45.4780 C.2       2 UNK         0.5000 
     61 O           3.3361  -10.2597  -45.1205 O.2       2 UNK        -0.5000 
     62 CA          3.5222  -11.7893  -46.9538 C.3       2 UNK         0.1400 
     63 CB          4.7832  -12.4863  -47.5017 C.3       2 UNK        -0.1800 
     64 N           2.3573  -12.6567  -47.0799 N.am      2 UNK        -0.5000 
     65 C           1.6209  -12.8289  -48.1840 C.2       1 UNK         0.5000 
     66 O           1.8713  -12.2825  -49.2589 O.2       1 UNK        -0.5000 
     67 C          -1.5480  -22.7284  -46.9385 C.2       11 UNK         0.5000 
     68 O          -2.1951  -22.5772  -47.9752 O.2       11 UNK        -0.5000 
     69 N          -2.1099  -23.0769  -45.7709 N.am      12 UNK        -0.5000 
     70 CA         -3.5412  -23.3230  -45.5798 C.3       12 UNK         0.1400 
     71 CB         -3.8616  -23.2904  -44.0788 C.3       12 UNK        -0.1800 
     72 C          -4.0261  -24.6444  -46.2092 C.2       12 UNK         0.5000 
     73 O          -5.2167  -24.7727  -46.4950 O.2       12 UNK        -0.5000 
     74 N          -3.1051  -25.5905  -46.4259 N.am      13 UNK        -0.5000 
     75 CA         -3.3396  -26.8432  -47.1385 C.3       13 UNK         0.1400 
     76 CB         -2.6152  -27.9779  -46.3982 C.3       13 UNK        -0.1800 
     77 C          -2.8070  -26.7201  -48.5743 C.2       13 UNK         0.5000 
     78 O          -1.7923  -26.0510  -48.7886 O.2       13 UNK        -0.5000 
     79 N          -3.4890  -27.3851  -49.5179 N.am      14 UNK        -0.5000 
     80 CA         -3.2099  -27.5002  -50.9585 C.3       14 UNK         0.1400 
     81 CB         -1.8670  -28.2109  -51.2156 C.3       14 UNK        -0.1800 
     82 C          -3.2981  -26.1732  -51.7367 C.2       14 UNK         0.5000 
     83 O          -4.0868  -26.0673  -52.6754 O.2       14 UNK        -0.5000 
     84 N          -2.4946  -25.1856  -51.3323 N.am      15 UNK        -0.5000 
     85 CA         -2.4870  -23.8245  -51.8611 C.3       15 UNK         0.1400 
     86 CB         -1.1860  -23.1392  -51.4258 C.3       15 UNK        -0.1800 
     87 C          -3.7045  -23.0115  -51.3944 C.2       15 UNK         0.5000 
     88 O          -4.2099  -22.1844  -52.1574 O.2       15 UNK        -0.5000 
     89 N          -4.1299  -23.2621  -50.1467 N.am      16 UNK        -0.5000 
     90 CA         -5.2249  -22.6190  -49.4123 C.3       16 UNK         0.1400 
     91 CB         -6.5857  -23.1094  -49.9387 C.3       16 UNK        -0.1800 
     92 C          -5.1041  -21.0833  -49.3821 C.2       16 UNK         0.5000 
     93 O          -6.0913  -20.3805  -49.5925 O.2       16 UNK        -0.5000 
     94 N          -3.8706  -20.5946  -49.1894 N.am      17 UNK        -0.5000 
     95 CA         -3.4606  -19.1866  -49.2507 C.3       17 UNK         0.1400 
     96 CB         -3.9541  -18.4322  -48.0005 C.3       17 UNK        -0.1800 
     97 C          -3.8609  -18.4925  -50.5760 C.2       17 UNK         0.5000 
     98 O          -4.2467  -17.3234  -50.5701 O.2       17 UNK        -0.5000 
     99 N          -3.7642  -19.2480  -51.6801 N.am      18 UNK        -0.5000 
    100 CA        -4.1257  -18.8987  -53.0576 C.3       18 UNK         0.1400 
    101 CB        -3.4331  -17.6097  -53.5479 C.3       18 UNK        -0.1800 
    102 C         -5.6342  -18.9438  -53.3648 C.2       18 UNK         0.5000 
    103 O         -6.0437  -18.4676  -54.4246 O.2       18 UNK        -0.5000 
    104 N         -6.4348  -19.5695  -52.4899 N.am      19 UNK        -0.5000 
    105 CA        -7.8250  -19.9257  -52.7888 C.3       19 UNK         0.1400 
    106 CB        -8.6326  -20.0141  -51.4849 C.3       19 UNK        -0.1800 
    107 C         -7.9366  -21.2418  -53.5880 C.2       19 UNK         0.5000 
    108 O         -8.9927  -21.4920  -54.1709 O.2       19 UNK        -0.5000 
    109 N         -6.8712  -22.0569  -53.6004 N.am      20 UNK        -0.5000 
    110 CA        -6.7946  -23.3359  -54.3015 C.3       20 UNK         0.1400 
    111 CB        -6.8168  -24.4871  -53.2809 C.3       20 UNK        -0.1800 
    112 C         -5.5827  -23.3267  -55.2501 C.2       20 UNK         0.5000 
    113 O         -5.5708  -22.5063  -56.1689 O.2       20 UNK        -0.5000 
    114 N         -4.6030  -24.2260  -55.0586 N.am      21 UNK        -0.5000 
    115 CA        -3.5276  -24.5093  -56.0228 C.3       21 UNK         0.1400 
    116 CB        -2.6893  -25.7004  -55.5333 C.3       21 UNK        -0.1800 
    117 C         -2.6111  -23.3219  -56.3851 C.2       21 UNK         0.5000 
    118 O         -2.0607  -23.3114  -57.4872 O.2       21 UNK        -0.5000 
    119 N         -2.4765  -22.3453  -55.4795 N.am      22 UNK        -0.5000 
    120 CA        -1.7692  -21.0774  -55.7336 C.3       22 UNK         0.1400 
    121 C         -2.6582  -19.9826  -56.3984 C.2       22 UNK         0.5000 
    122 N         -3.9450  -20.2026  -56.6387 N.am      22 UNK        -0.7600 
    123 O         -2.1639  -18.9051  -56.7163 O.2       22 UNK        -0.5000 
    124 C124       -1.0635  -20.5519  -54.4549 C.3       23 UNK        -0.0398 
    125 S125        0.4953  -21.4351  -54.1171 S.3       23 UNK        -0.2404 
    126 C126        1.6271  -20.0509  -53.7618 C.3       23 UNK        -0.0205 
    127 H127       -2.2011  -13.3857  -44.4967 H         1 UNK         0.0600 
    128 H128       -0.8260  -12.4479  -43.9023 H         1 UNK         0.0600 
    129 H129       -0.6456  -14.1759  -44.1981 H         1 UNK         0.0600 
    130 H130        0.0362  -14.8091  -46.2566 H         1 UNK         0.3000 
    131 H131       -0.4181  -13.2821  -48.6187 H         1 UNK         0.0600 
    132 H132        1.7083  -15.4582  -48.5932 H         1 UNK         0.0800 
    133 H133        0.0799  -15.9137  -48.2050 H         1 UNK         0.0800 
    134 H134       -1.2597  -16.9485  -49.7525 H         1 UNK         0.0800 
    135 H135       -1.3428  -16.6921  -51.4706 H         1 UNK         0.0800 
    136 H136       -0.0066  -17.9938  -52.9827 H         1 UNK         0.1150 
    137 H137        2.8156  -20.8293  -51.4412 H         1 UNK         0.1150 
    138 H138        0.8700  -18.0861  -48.7897 H         1 UNK         0.1150 
    139 H139        3.7877  -20.0682  -49.0741 H         1 UNK         0.0800 
    140 H140        2.6167  -19.4553  -47.9369 H         1 UNK         0.0800 
    141 H141       -0.0642  -21.7491  -49.0160 H         1 UNK         0.0800 
    142 H142        0.2420  -20.5378  -47.8032 H         1 UNK         0.0800 
    143 H143        0.3832  -23.5197  -47.1563 H         1 UNK         0.0600 
    144 H144       -0.0261  -21.2251  -45.2960 H         1 UNK         0.3000 
    145 H145        1.8801  -22.7004  -42.8058 H         1 UNK         0.0600 
    146 H146        3.4092  -20.7563  -42.7772 H         1 UNK         0.0600 
    147 H147        3.8600  -21.8309  -44.0901 H         1 UNK         0.0600 
    148 H148        2.9779  -20.3479  -44.4383 H         1 UNK         0.0600 
    149 H149        1.0017  -20.0182  -43.0091 H         1 UNK         0.3000 
    150 H150       -2.4814  -20.5660  -42.3922 H         1 UNK         0.0600 
    151 H151       -1.3653  -20.6321  -40.1572 H         1 UNK         0.0600 
    152 H152       -1.9714  -19.0231  -40.5215 H         1 UNK         0.0600 
    153 H153       -0.2498  -19.3699  -40.6673 H         1 UNK         0.0600 
    154 H154       -1.1199  -18.1394  -42.6747 H         1 UNK         0.3000 
    155 H155       -1.3109  -17.8199  -46.2505 H         1 UNK         0.0600 
    156 H156       -2.6048  -16.3853  -43.8739 H         1 UNK         0.0600 
    157 H157       -3.4803  -17.1580  -45.1863 H         1 UNK         0.0600 
    158 H158       -2.4487  -15.7801  -45.5225 H         1 UNK         0.0600 
    159 H159       -0.1396  -16.4513  -43.9000 H         1 UNK         0.3000 
    160 H160        3.1019  -17.5487  -44.5395 H         1 UNK         0.0600 
    161 H161        2.2202  -14.7237  -45.2744 H         1 UNK         0.0600 
    162 H162        3.0120  -15.8328  -46.3911 H         1 UNK         0.0600 
    163 H163        3.8648  -15.2806  -44.9622 H         1 UNK         0.0600 
    164 H164        2.0306  -15.3648  -42.9610 H         1 UNK         0.3000 
    165 H165        1.3292  -17.4835  -40.1232 H         1 UNK         0.0600 
    166 H166        3.4359  -15.3254  -40.6555 H         1 UNK         0.0600 
    167 H167        3.7927  -16.9749  -40.1532 H         1 UNK         0.0600 
    168 H168        2.9027  -15.9057  -39.0801 H         1 UNK         0.0600 
    169 H169        1.0231  -14.7424  -40.1876 H         1 UNK         0.3000 
    170 H170       -2.2695  -14.4527  -41.4802 H         1 UNK         0.0600 
    171 H171       -2.4835  -15.3518  -39.1892 H         1 UNK         0.0600 
    172 H172       -1.1250  -14.3838  -38.6393 H         1 UNK         0.0600 
    173 H173       -2.6101  -13.5996  -39.1747 H         1 UNK         0.0600 
    174 H174       -1.1797  -12.6212  -41.9196 H         1 UNK         0.3000 
    175 H175        0.1496  -11.0025  -42.0939 H         1 UNK         0.0600 
    176 H176        1.4952  -10.2176  -39.4560 H         1 UNK         0.0600 
    177 H177        1.0889   -9.1340  -40.7871 H         1 UNK         0.0600 
    178 H178       -0.1882   -9.9102  -39.8645 H         1 UNK         0.0600 
    179 H179        2.8370  -10.7150  -41.5227 H         1 UNK         0.3000 
    180 H180        4.4350  -11.2946  -42.8885 H         1 UNK         0.0600 
    181 H181        4.4719  -14.3654  -42.8087 H         1 UNK         0.0600 
    182 H182        4.8855  -13.2926  -41.4792 H         1 UNK         0.0600 
    183 H183        5.8912  -13.3253  -42.9187 H         1 UNK         0.0600 
    184 H184        4.2744  -13.2695  -45.0137 H         1 UNK         0.3000 
    185 H185        3.3538  -10.8729  -47.5239 H         1 UNK         0.0600 
    186 H186        5.6739  -11.8846  -47.3165 H         1 UNK         0.0600 
    187 H187        4.9425  -13.4649  -47.0481 H         1 UNK         0.0600 
    188 H188        4.7108  -12.6321  -48.5795 H         1 UNK         0.0600 
    189 H189        2.0323  -13.0763  -46.2206 H         1 UNK         0.3000 
    190 H190       -1.5234  -23.1464  -44.9501 H         1 UNK         0.3000 
    191 H191       -4.0920  -22.5106  -46.0587 H         1 UNK         0.0600 
    192 H192       -3.6238  -22.3171  -43.6505 H         1 UNK         0.0600 
    193 H193       -4.9220  -23.4721  -43.8987 H         1 UNK         0.0600 
    194 H194       -3.2989  -24.0465  -43.5299 H         1 UNK         0.0600 
    195 H195       -2.1412  -25.3728  -46.2200 H         1 UNK         0.3000 
    196 H196       -4.4067  -27.0736  -47.1685 H         1 UNK         0.0600 
    197 H197       -2.7758  -28.9351  -46.8959 H         1 UNK         0.0600 
    198 H198       -2.9821  -28.0775  -45.3764 H         1 UNK         0.0600 
    199 H199       -1.5386  -27.8081  -46.3523 H         1 UNK         0.0600 
    200 H200       -4.3178  -27.8820  -49.2212 H         1 UNK         0.3000 
    201 H201       -3.9949  -28.1435  -51.3594 H         1 UNK         0.0600 
    202 H202       -1.8478  -29.1948  -50.7470 H         1 UNK         0.0600 
    203 H203       -1.0194  -27.6423  -50.8322 H         1 UNK         0.0600 
    204 H204       -1.7034  -28.3569  -52.2841 H         1 UNK         0.0600 
    205 H205       -1.9222  -25.3676  -50.5112 H         1 UNK         0.3000 
    206 H206       -2.5106  -23.8612  -52.9501 H         1 UNK         0.0600 
    207 H207       -0.3274  -23.5660  -51.9441 H         1 UNK         0.0600 
    208 H208       -1.1989  -22.0697  -51.6384 H         1 UNK         0.0600 
    209 H209       -1.0183  -23.2619  -50.3570 H         1 UNK         0.0600 
    210 H210       -3.5775  -23.9095  -49.6023 H         1 UNK         0.3000 
    211 H211       -5.1364  -22.9428  -48.3774 H         1 UNK         0.0600 
    212 H212       -6.7760  -22.7508  -50.9480 H         1 UNK         0.0600 
    213 H213       -7.4000  -22.7544  -49.3063 H         1 UNK         0.0600 
    214 H214       -6.6355  -24.1981  -49.9516 H         1 UNK         0.0600 
    215 H215       -3.1394  -21.2667  -48.9672 H         1 UNK         0.3000 
    216 H216       -2.3699  -19.1887  -49.2251 H         1 UNK         0.0600 
    217 H217       -3.5383  -17.4248  -47.9598 H         1 UNK         0.0600 
    218 H218       -3.6517  -18.9464  -47.0884 H         1 UNK         0.0600 
    219 H219       -5.0406  -18.3409  -47.9880 H         1 UNK         0.0600 
    220 H220       -3.5170  -20.2212  -51.5511 H         1 UNK         0.3000 
    221 H221       -3.7293  -19.7132  -53.6591 H         1 UNK         0.0600 
    222 H222       -3.8099  -16.7214  -53.0418 H         1 UNK         0.0600 
    223 H223       -2.3566  -17.6593  -53.3950 H         1 UNK         0.0600 
    224 H224       -3.5942  -17.4617  -54.6162 H         1 UNK         0.0600 
    225 H225       -6.0614  -19.8966  -51.6054 H         1 UNK         0.3000 
    226 H226       -8.2735  -19.1355  -53.3946 H         1 UNK         0.0600 
    227 H227       -8.5190  -19.1109  -50.8852 H         1 UNK         0.0600 
    228 H228       -9.6959  -20.1335  -51.6959 H         1 UNK         0.0600 
    229 H229       -8.3283  -20.8638  -50.8751 H         1 UNK         0.0600 
    230 H230       -6.0283  -21.7773  -53.1111 H         1 UNK         0.3000 
    231 H231       -7.6635  -23.4645  -54.9498 H         1 UNK         0.0600 
    232 H232       -6.0165  -24.3942  -52.5501 H         1 UNK         0.0600 
    233 H233       -6.7205  -25.4580  -53.7685 H         1 UNK         0.0600 
    234 H234       -7.7583  -24.4977  -52.7319 H         1 UNK         0.0600 
    235 H235       -4.6579  -24.8519  -54.2608 H         1 UNK         0.3000 
    236 H236       -4.0175  -24.8147  -56.9497 H         1 UNK         0.0600 
    237 H237       -3.3135  -26.5742  -55.3457 H         1 UNK         0.0600 
    238 H238       -1.9482  -25.9883  -56.2801 H         1 UNK         0.0600 
    239 H239       -2.1498  -25.4679  -54.6157 H         1 UNK         0.0600 
    240 H240       -2.9957  -22.4133  -54.6173 H         1 UNK         0.3000 
    241 H241       -0.9872  -21.2617  -56.4730 H         1 UNK         0.0600 
    242 H242       -4.4909  -19.4713  -57.0649 H         1 UNK         0.3800 
    243 H243       -4.3923  -21.0919  -56.4317 H         1 UNK         0.3800 
    244 H244       -0.8393  -19.4893  -54.5472 H         1 UNK         0.0800 
    245 H245       -1.7039  -20.6489  -53.5796 H         1 UNK         0.0800 
    246 H246        1.5146  -19.2688  -54.5141 H         1 UNK         0.0800 
    247 H247        2.6531  -20.4097  -53.8561 H         1 UNK         0.0800 
@<TRIPOS>BOND
     1    1    2 1    
     2    1  127 1    
     3    1  128 1    
     4    1  129 1    
     5    2    3 2    
     6    2    4 am   BACKBONE|DICT|INTERRES
     7    4    5 1    
     8    4  130 1    
     9    5    6 1    
    10    5   65 1    
    11    5  131 1    
    12    6    7 1    
    13    6  132 1    
    14    6  133 1    
    15    7    8 1    
    16    8    9 1    
    17    8  134 1    
    18    8  135 1    
    19    9   10 ar   
    20    9   14 ar   
    21   10   11 ar   
    22   10  136 1    
    23   11   12 ar   
    24   11  126 1    
    25   12   13 ar   
    26   12  137 1    
    27   13   14 ar   
    28   13   15 1    
    29   14  138 1    
    30   15   16 1    
    31   15  139 1    
    32   15  140 1    
    33   16   17 1    
    34   17   18 1    
    35   17  141 1    
    36   17  142 1    
    37   18   19 1    
    38   18   67 1    
    39   18  143 1    
    40   19   20 am   BACKBONE|DICT|INTERRES
    41   19  144 1    
    42   20   21 2    
    43   20   22 1    
    44   22   23 1    
    45   22   24 1    
    46   22  145 1    
    47   23  146 1    
    48   23  147 1    
    49   23  148 1    
    50   24   25 am   BACKBONE|DICT|INTERRES
    51   24  149 1    
    52   25   26 2    
    53   25   27 1    
    54   27   28 1    
    55   27   29 1    
    56   27  150 1    
    57   28  151 1    
    58   28  152 1    
    59   28  153 1    
    60   29   30 am   BACKBONE|DICT|INTERRES
    61   29  154 1    
    62   30   31 2    
    63   30   32 1    
    64   32   33 1    
    65   32   34 1    
    66   32  155 1    
    67   33  156 1    
    68   33  157 1    
    69   33  158 1    
    70   34   35 am   BACKBONE|DICT|INTERRES
    71   34  159 1    
    72   35   36 2    
    73   35   37 1    
    74   37   38 1    
    75   37   39 1    
    76   37  160 1    
    77   38  161 1    
    78   38  162 1    
    79   38  163 1    
    80   39   40 am   BACKBONE|DICT|INTERRES
    81   39  164 1    
    82   40   41 2    
    83   40   42 1    
    84   42   43 1    
    85   42   44 1    
    86   42  165 1    
    87   43  166 1    
    88   43  167 1    
    89   43  168 1    
    90   44   45 am   BACKBONE|DICT|INTERRES
    91   44  169 1    
    92   45   46 2    
    93   45   47 1    
    94   47   48 1    
    95   47   49 1    
    96   47  170 1    
    97   48  171 1    
    98   48  172 1    
    99   48  173 1    
   100   49   50 am   BACKBONE|DICT|INTERRES
   101   49  174 1    
   102   50   51 2    
   103   50   52 1    
   104   52   53 1    
   105   52   54 1    
   106   52  175 1    
   107   53  176 1    
   108   53  177 1    
   109   53  178 1    
   110   54   55 am   BACKBONE|DICT|INTERRES
   111   54  179 1    
   112   55   56 2    
   113   55   57 1    
   114   57   58 1    
   115   57   59 1    
   116   57  180 1    
   117   58  181 1    
   118   58  182 1    
   119   58  183 1    
   120   59   60 am   BACKBONE|DICT|INTERRES
   121   59  184 1    
   122   60   61 2    
   123   60   62 1    
   124   62   63 1    
   125   62   64 1    
   126   62  185 1    
   127   63  186 1    
   128   63  187 1    
   129   63  188 1    
   130   64   65 am   BACKBONE|DICT|INTERRES
   131   64  189 1    
   132   65   66 2    
   133   67   68 2    
   134   67   69 am   BACKBONE|DICT|INTERRES
   135   69   70 1    
   136   69  190 1    
   137   70   71 1    
   138   70   72 1    
   139   70  191 1    
   140   71  192 1    
   141   71  193 1    
   142   71  194 1    
   143   72   73 2    
   144   72   74 am   BACKBONE|DICT|INTERRES
   145   74   75 1    
   146   74  195 1    
   147   75   76 1    
   148   75   77 1    
   149   75  196 1    
   150   76  197 1    
   151   76  198 1    
   152   76  199 1    
   153   77   78 2    
   154   77   79 am   BACKBONE|DICT|INTERRES
   155   79   80 1    
   156   79  200 1    
   157   80   81 1    
   158   80   82 1    
   159   80  201 1    
   160   81  202 1    
   161   81  203 1    
   162   81  204 1    
   163   82   83 2    
   164   82   84 am   BACKBONE|DICT|INTERRES
   165   84   85 1    
   166   84  205 1    
   167   85   86 1    
   168   85   87 1    
   169   85  206 1    
   170   86  207 1    
   171   86  208 1    
   172   86  209 1    
   173   87   88 2    
   174   87   89 am   BACKBONE|DICT|INTERRES
   175   89   90 1    
   176   89  210 1    
   177   90   91 1    
   178   90   92 1    
   179   90  211 1    
   180   91  212 1    
   181   91  213 1    
   182   91  214 1    
   183   92   93 2    
   184   92   94 am   BACKBONE|DICT|INTERRES
   185   94   95 1    
   186   94  215 1    
   187   95   96 1    
   188   95   97 1    
   189   95  216 1    
   190   96  217 1    
   191   96  218 1    
   192   96  219 1    
   193   97   98 2    
   194   97   99 am   BACKBONE|DICT|INTERRES
   195   99  100 1    
   196   99  220 1    
   197  100  101 1    
   198  100  102 1    
   199  100  221 1    
   200  101  222 1    
   201  101  223 1    
   202  101  224 1    
   203  102  103 2    
   204  102  104 am   BACKBONE|DICT|INTERRES
   205  104  105 1    
   206  104  225 1    
   207  105  106 1    
   208  105  107 1    
   209  105  226 1    
   210  106  227 1    
   211  106  228 1    
   212  106  229 1    
   213  107  108 2    
   214  107  109 am   BACKBONE|DICT|INTERRES
   215  109  110 1    
   216  109  230 1    
   217  110  111 1    
   218  110  112 1    
   219  110  231 1    
   220  111  232 1    
   221  111  233 1    
   222  111  234 1    
   223  112  113 2    
   224  112  114 am   BACKBONE|DICT|INTERRES
   225  114  115 1    
   226  114  235 1    
   227  115  116 1    
   228  115  117 1    
   229  115  236 1    
   230  116  237 1    
   231  116  238 1    
   232  116  239 1    
   233  117  118 2    
   234  117  119 am   BACKBONE|DICT|INTERRES
   235  119  120 1    
   236  119  240 1    
   237  120  121 1    
   238  120  124 1    
   239  120  241 1    
   240  121  122 am   BACKBONE|DICT|INTERRES
   241  121  123 2    
   242  122  242 1    
   243  122  243 1    
   244  124  125 1    
   245  124  244 1    
   246  124  245 1    
   247  125  126 1    
   248  126  246 1    
   249  126  247 1    
@<TRIPOS>SUBSTRUCTURE
     1 UNK         1 GROUP             0       ****    0 ROOT    
