@<TRIPOS>MOLECULE
3R540
247   249    1
SMALL
USER_CHARGES


@<TRIPOS>ATOM
      1 CA          1.1303  -12.9986  -53.9086 C.3       0 UNK        -0.1800 
      2 C           0.6650  -14.4179  -53.6157 C.2       0 UNK         0.5000 
      3 O           0.3362  -15.1595  -54.5417 O.2       0 UNK        -0.5000 
      4 N           0.6243  -14.7908  -52.3327 N.am      1 UNK        -0.5000 
      5 CA          0.2483  -16.1223  -51.8573 C.3       1 UNK         0.1400 
      6 C6         -0.1241  -16.1004  -50.3539 C.3       23 UNK        -0.0398 
      7 S7          1.2333  -15.5811  -49.2381 S.3       23 UNK        -0.2404 
      8 C8          0.5267  -14.0928  -48.4523 C.3       23 UNK        -0.0205 
      9 C9         -0.7608  -14.3471  -47.6722 C.ar      23 UNK        -0.0193 
     10 C10        -1.7408  -13.3524  -47.6186 C.ar      23 UNK        -0.1150 
     11 C11        -2.9452  -13.5733  -46.9428 C.ar      23 UNK        -0.0193 
     12 C12        -3.1457  -14.7820  -46.2689 C.ar      23 UNK        -0.1150 
     13 C13        -2.1613  -15.7726  -46.2893 C.ar      23 UNK        -0.0193 
     14 C14        -0.9834  -15.5541  -47.0025 C.ar      23 UNK        -0.1150 
     15 C15        -2.3473  -17.0747  -45.5315 C.3       23 UNK        -0.0205 
     16 S16        -3.0118  -18.3817  -46.6054 S.3       23 UNK        -0.2404 
     17 C17        -3.0115  -19.7774  -45.4364 C.3       23 UNK        -0.0398 
     18 CA         -1.9445  -20.8501  -45.7903 C.3       11 UNK         0.1400 
     19 N          -0.8697  -20.9081  -44.7946 N.am      11 UNK        -0.5000 
     20 C           0.2129  -21.6977  -44.8548 C.2       10 UNK         0.5000 
     21 O           0.4659  -22.4571  -45.7901 O.2       10 UNK        -0.5000 
     22 CA          1.1337  -21.6801  -43.6237 C.3       10 UNK         0.1400 
     23 CB          2.0781  -20.4677  -43.6550 C.3       10 UNK        -0.1800 
     24 N           0.3655  -21.6866  -42.3768 N.am      10 UNK        -0.5000 
     25 C          -0.3692  -22.7255  -41.9515 C.2       9 UNK         0.5000 
     26 O          -0.4463  -23.7980  -42.5479 O.2       9 UNK        -0.5000 
     27 CA         -1.1987  -22.5172  -40.6729 C.3       9 UNK         0.1400 
     28 CB         -0.3255  -22.6995  -39.4226 C.3       9 UNK        -0.1800 
     29 N          -1.8434  -21.2059  -40.6296 N.am      9 UNK        -0.5000 
     30 C          -2.7842  -20.7872  -41.4883 C.2       8 UNK         0.5000 
     31 O          -3.2402  -21.4767  -42.4006 O.2       8 UNK        -0.5000 
     32 CA         -3.2487  -19.3277  -41.3290 C.3       8 UNK         0.1400 
     33 CB         -4.3694  -19.2289  -40.2837 C.3       8 UNK        -0.1800 
     34 N          -2.1599  -18.4157  -40.9643 N.am      8 UNK        -0.5000 
     35 C          -1.0688  -18.1910  -41.7089 C.2       7 UNK         0.5000 
     36 O          -0.8461  -18.7515  -42.7843 O.2       7 UNK        -0.5000 
     37 CA         -0.0245  -17.2265  -41.1189 C.3       7 UNK         0.1400 
     38 CB          1.1420  -18.0172  -40.5064 C.3       7 UNK        -0.1800 
     39 N           0.5043  -16.2959  -42.1147 N.am      7 UNK        -0.5000 
     40 C          -0.2137  -15.3663  -42.7589 C.2       6 UNK         0.5000 
     41 O          -1.4148  -15.1796  -42.5589 O.2       6 UNK        -0.5000 
     42 CA          0.5280  -14.4599  -43.7640 C.3       6 UNK         0.1400 
     43 CB          0.5140  -12.9981  -43.2882 C.3       6 UNK        -0.1800 
     44 N           1.9171  -14.8449  -44.0359 N.am      6 UNK        -0.5000 
     45 C           2.2914  -15.8720  -44.8072 C.2       5 UNK         0.5000 
     46 O           1.5138  -16.6958  -45.2894 O.2       5 UNK        -0.5000 
     47 CA          3.7911  -16.0097  -45.0854 C.3       5 UNK         0.1400 
     48 CB          4.4286  -17.0619  -44.1613 C.3       5 UNK        -0.1800 
     49 N           3.9416  -16.4048  -46.4790 N.am      5 UNK        -0.5000 
     50 C           5.0237  -16.2240  -47.2442 C.2       4 UNK         0.5000 
     51 O           6.0526  -15.6789  -46.8404 O.2       4 UNK        -0.5000 
     52 CA          4.9364  -16.7180  -48.7085 C.3       4 UNK         0.1400 
     53 CB          6.3011  -17.1715  -49.2666 C.3       4 UNK        -0.1800 
     54 N           3.9157  -17.7506  -48.9301 N.am      4 UNK        -0.5000 
     55 C           3.8522  -18.9680  -48.3683 C.2       3 UNK         0.5000 
     56 O           4.7026  -19.4254  -47.6048 O.2       3 UNK        -0.5000 
     57 CA          2.6041  -19.8065  -48.6912 C.3       3 UNK         0.1400 
     58 CB          1.5097  -19.5454  -47.6436 C.3       3 UNK        -0.1800 
     59 N           2.0574  -19.5431  -50.0228 N.am      3 UNK        -0.5000 
     60 C           2.6064  -19.9512  -51.1766 C.2       2 UNK         0.5000 
     61 O           3.6420  -20.6132  -51.2420 O.2       2 UNK        -0.5000 
     62 CA          1.8726  -19.5614  -52.4789 C.3       2 UNK         0.1400 
     63 CB          1.0912  -20.7592  -53.0430 C.3       2 UNK        -0.1800 
     64 N           0.9550  -18.4286  -52.3126 N.am      2 UNK        -0.5000 
     65 C           1.3542  -17.1603  -52.1504 C.2       1 UNK         0.5000 
     66 O           2.5388  -16.8167  -52.1660 O.2       1 UNK        -0.5000 
     67 C          -2.6023  -22.2248  -46.0288 C.2       11 UNK         0.5000 
     68 O          -2.8585  -22.5851  -47.1791 O.2       11 UNK        -0.5000 
     69 N          -2.8479  -22.9627  -44.9385 N.am      12 UNK        -0.5000 
     70 CA         -3.3796  -24.3210  -44.9598 C.3       12 UNK         0.1400 
     71 CB         -3.8873  -24.6928  -43.5581 C.3       12 UNK        -0.1800 
     72 C          -2.3467  -25.3445  -45.4630 C.2       12 UNK         0.5000 
     73 O          -2.6666  -26.1313  -46.3537 O.2       12 UNK        -0.5000 
     74 N          -1.1303  -25.3136  -44.8977 N.am      13 UNK        -0.5000 
     75 CA         -0.0506  -26.2652  -45.1788 C.3       13 UNK         0.1400 
     76 CB          1.1155  -26.0289  -44.2073 C.3       13 UNK        -0.1800 
     77 C           0.4500  -26.2291  -46.6326 C.2       13 UNK         0.5000 
     78 O           0.6957  -27.2862  -47.2149 O.2       13 UNK        -0.5000 
     79 N           0.5706  -25.0223  -47.2003 N.am      14 UNK        -0.5000 
     80 CA          0.9587  -24.8096  -48.5962 C.3       14 UNK         0.1400 
     81 CB          1.5284  -23.3890  -48.7352 C.3       14 UNK        -0.1800 
     82 C          -0.2066  -25.0112  -49.5852 C.2       14 UNK         0.5000 
     83 O           0.0322  -25.0248  -50.7926 O.2       14 UNK        -0.5000 
     84 N          -1.4416  -25.1025  -49.0642 N.am      15 UNK        -0.5000 
     85 CA         -2.7254  -25.0843  -49.7793 C.3       15 UNK         0.1400 
     86 CB         -2.8708  -26.3031  -50.7121 C.3       15 UNK        -0.1800 
     87 C          -2.9953  -23.7487  -50.5060 C.2       15 UNK         0.5000 
     88 O          -3.8697  -23.6799  -51.3732 O.2       15 UNK        -0.5000 
     89 N          -2.2629  -22.6964  -50.1122 N.am      16 UNK        -0.5000 
     90 CA         -2.3286  -21.3445  -50.6574 C.3       16 UNK         0.1400 
     91 CB         -1.2700  -20.4660  -49.9833 C.3       16 UNK        -0.1800 
     92 C          -3.7154  -20.7143  -50.5052 C.2       16 UNK         0.5000 
     93 O          -4.1498  -20.0179  -51.4185 O.2       16 UNK        -0.5000 
     94 N          -4.4073  -21.0353  -49.4023 N.am      17 UNK        -0.5000 
     95 CA         -5.7805  -20.6190  -49.1109 C.3       17 UNK         0.1400 
     96 CB         -6.2104  -21.2289  -47.7687 C.3       17 UNK        -0.1800 
     97 C          -6.7960  -20.9877  -50.2123 C.2       17 UNK         0.5000 
     98 O          -7.7514  -20.2404  -50.4236 O.2       17 UNK        -0.5000 
     99 N          -6.5571  -22.1122  -50.9005 N.am      18 UNK        -0.5000 
    100 CA        -7.3370  -22.5600  -52.0503 C.3       18 UNK         0.1400 
    101 CB        -7.4840  -24.0889  -51.9905 C.3       18 UNK        -0.1800 
    102 C         -6.6819  -22.1348  -53.3757 C.2       18 UNK         0.5000 
    103 O         -7.3896  -21.7067  -54.2881 O.2       18 UNK        -0.5000 
    104 N         -5.3534  -22.2878  -53.4733 N.am      19 UNK        -0.5000 
    105 CA        -4.5966  -22.1221  -54.7149 C.3       19 UNK         0.1400 
    106 CB        -3.2228  -22.7925  -54.5591 C.3       19 UNK        -0.1800 
    107 C         -4.4296  -20.6646  -55.1843 C.2       19 UNK         0.5000 
    108 O         -4.3982  -20.4335  -56.3942 O.2       19 UNK        -0.5000 
    109 N         -4.2920  -19.7198  -54.2451 N.am      20 UNK        -0.5000 
    110 CA        -3.9515  -18.3218  -54.5344 C.3       20 UNK         0.1400 
    111 CB        -2.4298  -18.1467  -54.3829 C.3       20 UNK        -0.1800 
    112 C         -4.6894  -17.3039  -53.6480 C.2       20 UNK         0.5000 
    113 O         -4.7117  -16.1203  -53.9926 O.2       20 UNK        -0.5000 
    114 N         -5.2349  -17.7534  -52.5092 N.am      21 UNK        -0.5000 
    115 CA        -5.7316  -16.9438  -51.3961 C.3       21 UNK         0.1400 
    116 CB        -7.0169  -16.1803  -51.7876 C.3       21 UNK        -0.1800 
    117 C         -4.5887  -16.0638  -50.8489 C.2       21 UNK         0.5000 
    118 O         -3.5195  -16.5974  -50.5466 O.2       21 UNK        -0.5000 
    119 N         -4.8052  -14.7467  -50.7765 N.am      22 UNK        -0.5000 
    120 CA        -3.7665  -13.7620  -50.4399 C.3       22 UNK         0.1400 
    121 C         -2.8205  -13.3980  -51.6240 C.2       22 UNK         0.5000 
    122 N         -3.0088  -13.9237  -52.8295 N.am      22 UNK        -0.7600 
    123 O         -1.8821  -12.6282  -51.4413 O.2       22 UNK        -0.5000 
    124 C124       -4.3586  -12.4911  -49.7756 C.3       23 UNK        -0.0398 
    125 S125       -5.2854  -12.8485  -48.2412 S.3       23 UNK        -0.2404 
    126 C126       -4.0370  -12.5143  -46.9546 C.3       23 UNK        -0.0205 
    127 H127        2.0389  -13.0180  -54.5100 H         1 UNK         0.0600 
    128 H128        1.3381  -12.4440  -52.9932 H         1 UNK         0.0600 
    129 H129        0.3626  -12.4591  -54.4634 H         1 UNK         0.0600 
    130 H130        0.9291  -14.1477  -51.6172 H         1 UNK         0.3000 
    131 H131       -0.6454  -16.4233  -52.4085 H         1 UNK         0.0600 
    132 H132       -0.9789  -15.4391  -50.2145 H         1 UNK         0.0800 
    133 H133       -0.4761  -17.0807  -50.0299 H         1 UNK         0.0800 
    134 H134        1.2670  -13.6747  -47.7696 H         1 UNK         0.0800 
    135 H135        0.3559  -13.3435  -49.2269 H         1 UNK         0.0800 
    136 H136       -1.5808  -12.4163  -48.1350 H         1 UNK         0.1150 
    137 H137       -4.0700  -14.9538  -45.7357 H         1 UNK         0.1150 
    138 H138       -0.2371  -16.3333  -47.0255 H         1 UNK         0.1150 
    139 H139       -1.3885  -17.3976  -45.1214 H         1 UNK         0.0800 
    140 H140       -3.0112  -16.9230  -44.6792 H         1 UNK         0.0800 
    141 H141       -4.0250  -20.1800  -45.4180 H         1 UNK         0.0800 
    142 H142       -2.8587  -19.3986  -44.4273 H         1 UNK         0.0800 
    143 H143       -1.4591  -20.5827  -46.7276 H         1 UNK         0.0600 
    144 H144       -0.9539  -20.2783  -44.0019 H         1 UNK         0.3000 
    145 H145        1.7451  -22.5844  -43.6485 H         1 UNK         0.0600 
    146 H146        2.7309  -20.5095  -44.5274 H         1 UNK         0.0600 
    147 H147        2.7202  -20.4432  -42.7747 H         1 UNK         0.0600 
    148 H148        1.5339  -19.5237  -43.7015 H         1 UNK         0.0600 
    149 H149        0.3257  -20.8193  -41.8632 H         1 UNK         0.3000 
    150 H150       -1.9821  -23.2779  -40.6573 H         1 UNK         0.0600 
    151 H151        0.4605  -21.9455  -39.3642 H         1 UNK         0.0600 
    152 H152        0.1572  -23.6777  -39.4238 H         1 UNK         0.0600 
    153 H153       -0.9219  -22.6342  -38.5124 H         1 UNK         0.0600 
    154 H154       -1.5308  -20.5675  -39.9134 H         1 UNK         0.3000 
    155 H155       -3.6532  -18.9981  -42.2872 H         1 UNK         0.0600 
    156 H156       -4.0217  -19.5134  -39.2897 H         1 UNK         0.0600 
    157 H157       -5.2016  -19.8856  -40.5409 H         1 UNK         0.0600 
    158 H158       -4.7648  -18.2147  -40.2240 H         1 UNK         0.0600 
    159 H159       -2.2660  -17.9203  -40.0907 H         1 UNK         0.3000 
    160 H160       -0.4949  -16.6367  -40.3296 H         1 UNK         0.0600 
    161 H161        1.6800  -18.5913  -41.2613 H         1 UNK         0.0600 
    162 H162        0.7876  -18.7187  -39.7500 H         1 UNK         0.0600 
    163 H163        1.8565  -17.3523  -40.0207 H         1 UNK         0.0600 
    164 H164        1.4747  -16.4014  -42.3666 H         1 UNK         0.3000 
    165 H165       -0.0275  -14.5053  -44.7000 H         1 UNK         0.0600 
    166 H166        0.9635  -12.3376  -44.0299 H         1 UNK         0.0600 
    167 H167       -0.5061  -12.6480  -43.1241 H         1 UNK         0.0600 
    168 H168        1.0586  -12.8748  -42.3514 H         1 UNK         0.0600 
    169 H169        2.6267  -14.2326  -43.6597 H         1 UNK         0.3000 
    170 H170        4.2744  -15.0428  -44.9302 H         1 UNK         0.0600 
    171 H171        5.4991  -17.1534  -44.3449 H         1 UNK         0.0600 
    172 H172        3.9804  -18.0458  -44.3068 H         1 UNK         0.0600 
    173 H173        4.3003  -16.7921  -43.1125 H         1 UNK         0.0600 
    174 H174        3.1142  -16.8269  -46.8808 H         1 UNK         0.3000 
    175 H175        4.6154  -15.8548  -49.2931 H         1 UNK         0.0600 
    176 H176        7.0222  -16.3536  -49.2524 H         1 UNK         0.0600 
    177 H177        6.7251  -17.9903  -48.6848 H         1 UNK         0.0600 
    178 H178        6.2120  -17.5051  -50.3005 H         1 UNK         0.0600 
    179 H179        3.1625  -17.4793  -49.5472 H         1 UNK         0.3000 
    180 H180        2.8934  -20.8571  -48.6339 H         1 UNK         0.0600 
    181 H181        1.1072  -18.5341  -47.7151 H         1 UNK         0.0600 
    182 H182        1.8966  -19.6676  -46.6319 H         1 UNK         0.0600 
    183 H183        0.6843  -20.2460  -47.7553 H         1 UNK         0.0600 
    184 H184        1.2100  -19.0006  -50.0636 H         1 UNK         0.3000 
    185 H185        2.6345  -19.2825  -53.2101 H         1 UNK         0.0600 
    186 H186        1.7554  -21.6041  -53.2293 H         1 UNK         0.0600 
    187 H187        0.3166  -21.1014  -52.3581 H         1 UNK         0.0600 
    188 H188        0.6142  -20.5091  -53.9909 H         1 UNK         0.0600 
    189 H189       -0.0301  -18.6435  -52.3190 H         1 UNK         0.3000 
    190 H190       -2.6665  -22.5586  -44.0255 H         1 UNK         0.3000 
    191 H191       -4.2319  -24.3426  -45.6426 H         1 UNK         0.0600 
    192 H192       -4.6747  -24.0124  -43.2330 H         1 UNK         0.0600 
    193 H193       -4.3025  -25.7013  -43.5474 H         1 UNK         0.0600 
    194 H194       -3.0901  -24.6566  -42.8149 H         1 UNK         0.0600 
    195 H195       -0.9491  -24.6427  -44.1549 H         1 UNK         0.3000 
    196 H196       -0.4430  -27.2673  -44.9944 H         1 UNK         0.0600 
    197 H197        1.9326  -26.7261  -44.3969 H         1 UNK         0.0600 
    198 H198        0.8019  -26.1721  -43.1732 H         1 UNK         0.0600 
    199 H199        1.5158  -25.0188  -44.3002 H         1 UNK         0.0600 
    200 H200        0.3893  -24.1891  -46.6447 H         1 UNK         0.3000 
    201 H201        1.7451  -25.5192  -48.8617 H         1 UNK         0.0600 
    202 H202        1.8830  -23.2011  -49.7497 H         1 UNK         0.0600 
    203 H203        2.3724  -23.2371  -48.0623 H         1 UNK         0.0600 
    204 H204        0.7779  -22.6326  -48.5050 H         1 UNK         0.0600 
    205 H205       -1.5210  -25.1172  -48.0553 H         1 UNK         0.3000 
    206 H206       -3.4946  -25.1645  -49.0100 H         1 UNK         0.0600 
    207 H207       -2.6695  -27.2326  -50.1797 H         1 UNK         0.0600 
    208 H208       -3.8841  -26.3704  -51.1098 H         1 UNK         0.0600 
    209 H209       -2.1923  -26.2479  -51.5635 H         1 UNK         0.0600 
    210 H210       -1.6405  -22.8386  -49.3308 H         1 UNK         0.3000 
    211 H211       -2.0989  -21.4057  -51.7216 H         1 UNK         0.0600 
    212 H212       -1.5094  -20.2832  -48.9375 H         1 UNK         0.0600 
    213 H213       -1.2043  -19.4947  -50.4734 H         1 UNK         0.0600 
    214 H214       -0.2881  -20.9338  -50.0279 H         1 UNK         0.0600 
    215 H215       -3.9560  -21.6310  -48.7165 H         1 UNK         0.3000 
    216 H216       -5.7787  -19.5321  -49.0110 H         1 UNK         0.0600 
    217 H217       -7.2307  -20.9388  -47.5143 H         1 UNK         0.0600 
    218 H218       -5.5676  -20.8897  -46.9588 H         1 UNK         0.0600 
    219 H219       -6.1727  -22.3188  -47.7915 H         1 UNK         0.0600 
    220 H220       -5.7230  -22.6434  -50.6870 H         1 UNK         0.3000 
    221 H221       -8.3392  -22.1274  -52.0169 H         1 UNK         0.0600 
    222 H222       -6.5158  -24.5910  -52.0116 H         1 UNK         0.0600 
    223 H223       -8.0006  -24.3982  -51.0819 H         1 UNK         0.0600 
    224 H224       -8.0647  -24.4587  -52.8365 H         1 UNK         0.0600 
    225 H225       -4.8448  -22.6821  -52.6874 H         1 UNK         0.3000 
    226 H226       -5.1340  -22.6545  -55.5027 H         1 UNK         0.0600 
    227 H227       -2.6548  -22.7416  -55.4889 H         1 UNK         0.0600 
    228 H228       -2.6254  -22.3125  -53.7849 H         1 UNK         0.0600 
    229 H229       -3.3242  -23.8460  -54.2976 H         1 UNK         0.0600 
    230 H230       -4.3216  -19.9913  -53.2663 H         1 UNK         0.3000 
    231 H231       -4.2263  -18.0749  -55.5615 H         1 UNK         0.0600 
    232 H232       -2.1035  -18.3907  -53.3719 H         1 UNK         0.0600 
    233 H233       -2.1267  -17.1189  -54.5882 H         1 UNK         0.0600 
    234 H234       -1.8864  -18.7892  -55.0755 H         1 UNK         0.0600 
    235 H235       -5.0381  -18.7158  -52.2498 H         1 UNK         0.3000 
    236 H236       -5.9898  -17.6410  -50.5986 H         1 UNK         0.0600 
    237 H237       -7.7774  -16.8699  -52.1538 H         1 UNK         0.0600 
    238 H238       -7.4439  -15.6638  -50.9273 H         1 UNK         0.0600 
    239 H239       -6.8418  -15.4401  -52.5685 H         1 UNK         0.0600 
    240 H240       -5.7013  -14.3783  -51.0577 H         1 UNK         0.3000 
    241 H241       -3.1141  -14.2316  -49.7057 H         1 UNK         0.0600 
    242 H242       -2.3814  -13.6707  -53.5743 H         1 UNK         0.3800 
    243 H243       -3.7534  -14.5857  -53.0151 H         1 UNK         0.3800 
    244 H244       -5.0327  -11.9868  -50.4695 H         1 UNK         0.0800 
    245 H245       -3.5733  -11.7690  -49.5470 H         1 UNK         0.0800 
    246 H246       -4.5315  -12.4923  -45.9826 H         1 UNK         0.0800 
    247 H247       -3.6113  -11.5204  -47.1000 H         1 UNK         0.0800 
@<TRIPOS>BOND
     1    1    2 1    
     2    1  127 1    
     3    1  128 1    
     4    1  129 1    
     5    2    3 2    
     6    2    4 am   BACKBONE|DICT|INTERRES
     7    4    5 1    
     8    4  130 1    
     9    5    6 1    
    10    5   65 1    
    11    5  131 1    
    12    6    7 1    
    13    6  132 1    
    14    6  133 1    
    15    7    8 1    
    16    8    9 1    
    17    8  134 1    
    18    8  135 1    
    19    9   10 ar   
    20    9   14 ar   
    21   10   11 ar   
    22   10  136 1    
    23   11   12 ar   
    24   11  126 1    
    25   12   13 ar   
    26   12  137 1    
    27   13   14 ar   
    28   13   15 1    
    29   14  138 1    
    30   15   16 1    
    31   15  139 1    
    32   15  140 1    
    33   16   17 1    
    34   17   18 1    
    35   17  141 1    
    36   17  142 1    
    37   18   19 1    
    38   18   67 1    
    39   18  143 1    
    40   19   20 am   BACKBONE|DICT|INTERRES
    41   19  144 1    
    42   20   21 2    
    43   20   22 1    
    44   22   23 1    
    45   22   24 1    
    46   22  145 1    
    47   23  146 1    
    48   23  147 1    
    49   23  148 1    
    50   24   25 am   BACKBONE|DICT|INTERRES
    51   24  149 1    
    52   25   26 2    
    53   25   27 1    
    54   27   28 1    
    55   27   29 1    
    56   27  150 1    
    57   28  151 1    
    58   28  152 1    
    59   28  153 1    
    60   29   30 am   BACKBONE|DICT|INTERRES
    61   29  154 1    
    62   30   31 2    
    63   30   32 1    
    64   32   33 1    
    65   32   34 1    
    66   32  155 1    
    67   33  156 1    
    68   33  157 1    
    69   33  158 1    
    70   34   35 am   BACKBONE|DICT|INTERRES
    71   34  159 1    
    72   35   36 2    
    73   35   37 1    
    74   37   38 1    
    75   37   39 1    
    76   37  160 1    
    77   38  161 1    
    78   38  162 1    
    79   38  163 1    
    80   39   40 am   BACKBONE|DICT|INTERRES
    81   39  164 1    
    82   40   41 2    
    83   40   42 1    
    84   42   43 1    
    85   42   44 1    
    86   42  165 1    
    87   43  166 1    
    88   43  167 1    
    89   43  168 1    
    90   44   45 am   BACKBONE|DICT|INTERRES
    91   44  169 1    
    92   45   46 2    
    93   45   47 1    
    94   47   48 1    
    95   47   49 1    
    96   47  170 1    
    97   48  171 1    
    98   48  172 1    
    99   48  173 1    
   100   49   50 am   BACKBONE|DICT|INTERRES
   101   49  174 1    
   102   50   51 2    
   103   50   52 1    
   104   52   53 1    
   105   52   54 1    
   106   52  175 1    
   107   53  176 1    
   108   53  177 1    
   109   53  178 1    
   110   54   55 am   BACKBONE|DICT|INTERRES
   111   54  179 1    
   112   55   56 2    
   113   55   57 1    
   114   57   58 1    
   115   57   59 1    
   116   57  180 1    
   117   58  181 1    
   118   58  182 1    
   119   58  183 1    
   120   59   60 am   BACKBONE|DICT|INTERRES
   121   59  184 1    
   122   60   61 2    
   123   60   62 1    
   124   62   63 1    
   125   62   64 1    
   126   62  185 1    
   127   63  186 1    
   128   63  187 1    
   129   63  188 1    
   130   64   65 am   BACKBONE|DICT|INTERRES
   131   64  189 1    
   132   65   66 2    
   133   67   68 2    
   134   67   69 am   BACKBONE|DICT|INTERRES
   135   69   70 1    
   136   69  190 1    
   137   70   71 1    
   138   70   72 1    
   139   70  191 1    
   140   71  192 1    
   141   71  193 1    
   142   71  194 1    
   143   72   73 2    
   144   72   74 am   BACKBONE|DICT|INTERRES
   145   74   75 1    
   146   74  195 1    
   147   75   76 1    
   148   75   77 1    
   149   75  196 1    
   150   76  197 1    
   151   76  198 1    
   152   76  199 1    
   153   77   78 2    
   154   77   79 am   BACKBONE|DICT|INTERRES
   155   79   80 1    
   156   79  200 1    
   157   80   81 1    
   158   80   82 1    
   159   80  201 1    
   160   81  202 1    
   161   81  203 1    
   162   81  204 1    
   163   82   83 2    
   164   82   84 am   BACKBONE|DICT|INTERRES
   165   84   85 1    
   166   84  205 1    
   167   85   86 1    
   168   85   87 1    
   169   85  206 1    
   170   86  207 1    
   171   86  208 1    
   172   86  209 1    
   173   87   88 2    
   174   87   89 am   BACKBONE|DICT|INTERRES
   175   89   90 1    
   176   89  210 1    
   177   90   91 1    
   178   90   92 1    
   179   90  211 1    
   180   91  212 1    
   181   91  213 1    
   182   91  214 1    
   183   92   93 2    
   184   92   94 am   BACKBONE|DICT|INTERRES
   185   94   95 1    
   186   94  215 1    
   187   95   96 1    
   188   95   97 1    
   189   95  216 1    
   190   96  217 1    
   191   96  218 1    
   192   96  219 1    
   193   97   98 2    
   194   97   99 am   BACKBONE|DICT|INTERRES
   195   99  100 1    
   196   99  220 1    
   197  100  101 1    
   198  100  102 1    
   199  100  221 1    
   200  101  222 1    
   201  101  223 1    
   202  101  224 1    
   203  102  103 2    
   204  102  104 am   BACKBONE|DICT|INTERRES
   205  104  105 1    
   206  104  225 1    
   207  105  106 1    
   208  105  107 1    
   209  105  226 1    
   210  106  227 1    
   211  106  228 1    
   212  106  229 1    
   213  107  108 2    
   214  107  109 am   BACKBONE|DICT|INTERRES
   215  109  110 1    
   216  109  230 1    
   217  110  111 1    
   218  110  112 1    
   219  110  231 1    
   220  111  232 1    
   221  111  233 1    
   222  111  234 1    
   223  112  113 2    
   224  112  114 am   BACKBONE|DICT|INTERRES
   225  114  115 1    
   226  114  235 1    
   227  115  116 1    
   228  115  117 1    
   229  115  236 1    
   230  116  237 1    
   231  116  238 1    
   232  116  239 1    
   233  117  118 2    
   234  117  119 am   BACKBONE|DICT|INTERRES
   235  119  120 1    
   236  119  240 1    
   237  120  121 1    
   238  120  124 1    
   239  120  241 1    
   240  121  122 am   BACKBONE|DICT|INTERRES
   241  121  123 2    
   242  122  242 1    
   243  122  243 1    
   244  124  125 1    
   245  124  244 1    
   246  124  245 1    
   247  125  126 1    
   248  126  246 1    
   249  126  247 1    
@<TRIPOS>SUBSTRUCTURE
     1 UNK         1 GROUP             0       ****    0 ROOT    
