@<TRIPOS>MOLECULE
3R540
247   249    1
SMALL
USER_CHARGES


@<TRIPOS>ATOM
      1 CA          2.8032   -9.1761  -48.5093 C.3       0 UNK        -0.1800 
      2 C           3.2083  -10.6103  -48.2007 C.2       0 UNK         0.5000 
      3 O           4.2682  -10.8351  -47.6164 O.2       0 UNK        -0.5000 
      4 N           2.3688  -11.5789  -48.5901 N.am      1 UNK        -0.5000 
      5 CA          2.5842  -13.0188  -48.3842 C.3       1 UNK         0.1400 
      6 C6          1.5907  -13.8808  -49.2003 C.3       23 UNK        -0.0398 
      7 S7          1.6110  -13.5042  -50.9890 S.3       23 UNK        -0.2404 
      8 C8          2.6087  -14.8690  -51.6688 C.3       23 UNK        -0.0205 
      9 C9          1.9418  -16.2235  -51.4775 C.ar      23 UNK        -0.0193 
     10 C10         0.7662  -16.5373  -52.1650 C.ar      23 UNK        -0.1150 
     11 C11         0.1373  -17.7714  -51.9740 C.ar      23 UNK        -0.0193 
     12 C12         0.6983  -18.7004  -51.0914 C.ar      23 UNK        -0.1150 
     13 C13         1.8787  -18.3983  -50.4025 C.ar      23 UNK        -0.0193 
     14 C14         2.4978  -17.1627  -50.6060 C.ar      23 UNK        -0.1150 
     15 C15         2.4951  -19.3995  -49.4370 C.3       23 UNK        -0.0205 
     16 S16         2.3453  -18.8665  -47.6988 S.3       23 UNK        -0.2404 
     17 C17         0.5501  -19.0276  -47.4266 C.3       23 UNK        -0.0398 
     18 CA          0.1626  -20.4728  -47.0418 C.3       11 UNK         0.1400 
     19 N           0.5646  -20.8336  -45.6808 N.am      11 UNK        -0.5000 
     20 C           0.5389  -22.0825  -45.1959 C.2       10 UNK         0.5000 
     21 O           0.2047  -23.0646  -45.8582 O.2       10 UNK        -0.5000 
     22 CA          0.8957  -22.2629  -43.7109 C.3       10 UNK         0.1400 
     23 CB          2.4164  -22.2140  -43.5017 C.3       10 UNK        -0.1800 
     24 N           0.2391  -21.2763  -42.8524 N.am      10 UNK        -0.5000 
     25 C          -1.0893  -21.1683  -42.7036 C.2       9 UNK         0.5000 
     26 O          -1.9012  -21.9166  -43.2483 O.2       9 UNK        -0.5000 
     27 CA         -1.6026  -20.0060  -41.8350 C.3       9 UNK         0.1400 
     28 CB         -1.4844  -20.3463  -40.3420 C.3       9 UNK        -0.1800 
     29 N          -0.9156  -18.7438  -42.1098 N.am      9 UNK        -0.5000 
     30 C          -0.9433  -18.1016  -43.2871 C.2       8 UNK         0.5000 
     31 O          -1.5780  -18.4900  -44.2672 O.2       8 UNK        -0.5000 
     32 CA         -0.0685  -16.8413  -43.4077 C.3       8 UNK         0.1400 
     33 CB         -0.7230  -15.6497  -42.6931 C.3       8 UNK        -0.1800 
     34 N           1.2797  -17.0488  -42.8812 N.am      8 UNK        -0.5000 
     35 C           2.1479  -17.9610  -43.3417 C.2       7 UNK         0.5000 
     36 O           1.9204  -18.7058  -44.2932 O.2       7 UNK        -0.5000 
     37 CA          3.4660  -18.1089  -42.5652 C.3       7 UNK         0.1400 
     38 CB          4.4621  -17.0033  -42.9497 C.3       7 UNK        -0.1800 
     39 N           3.2445  -18.1054  -41.1184 N.am      7 UNK        -0.5000 
     40 C           2.6080  -19.0788  -40.4498 C.2       6 UNK         0.5000 
     41 O           2.1724  -20.1008  -40.9784 O.2       6 UNK        -0.5000 
     42 CA          2.3859  -18.8532  -38.9436 C.3       6 UNK         0.1400 
     43 CB          3.6355  -19.2533  -38.1453 C.3       6 UNK        -0.1800 
     44 N           2.0333  -17.4680  -38.6322 N.am      6 UNK        -0.5000 
     45 C           0.8894  -16.8748  -39.0026 C.2       5 UNK         0.5000 
     46 O          -0.0124  -17.4469  -39.6143 O.2       5 UNK        -0.5000 
     47 CA          0.7633  -15.3725  -38.6845 C.3       5 UNK         0.1400 
     48 CB          0.2517  -15.1618  -37.2518 C.3       5 UNK        -0.1800 
     49 N           2.0239  -14.6443  -38.8677 N.am      5 UNK        -0.5000 
     50 C           2.6552  -14.5288  -40.0423 C.2       4 UNK         0.5000 
     51 O           2.2300  -15.0163  -41.0948 O.2       4 UNK        -0.5000 
     52 CA          4.0010  -13.7920  -40.0422 C.3       4 UNK         0.1400 
     53 CB          5.1201  -14.6838  -39.4755 C.3       4 UNK        -0.1800 
     54 N           4.2947  -13.4475  -41.4243 N.am      4 UNK        -0.5000 
     55 C           5.0983  -12.4795  -41.8708 C.2       3 UNK         0.5000 
     56 O           5.7945  -11.7718  -41.1418 O.2       3 UNK        -0.5000 
     57 CA          5.1100  -12.2582  -43.3979 C.3       3 UNK         0.1400 
     58 CB          6.3105  -12.9745  -44.0349 C.3       3 UNK        -0.1800 
     59 N           3.8836  -12.7151  -44.0614 N.am      3 UNK        -0.5000 
     60 C           2.6711  -12.1674  -43.9076 C.2       2 UNK         0.5000 
     61 O           2.4573  -11.1716  -43.2140 O.2       2 UNK        -0.5000 
     62 CA          1.5191  -12.8446  -44.6770 C.3       2 UNK         0.1400 
     63 CB          0.1374  -12.2897  -44.2857 C.3       2 UNK        -0.1800 
     64 N           1.6904  -12.6928  -46.1199 N.am      2 UNK        -0.5000 
     65 C           2.5172  -13.4113  -46.8919 C.2       1 UNK         0.5000 
     66 O           3.2168  -14.3315  -46.4657 O.2       1 UNK        -0.5000 
     67 C          -1.3331  -20.7311  -47.2949 C.2       11 UNK         0.5000 
     68 O          -1.6680  -21.2476  -48.3587 O.2       11 UNK        -0.5000 
     69 N          -2.2000  -20.4197  -46.3207 N.am      12 UNK        -0.5000 
     70 CA         -3.6344  -20.7091  -46.3807 C.3       12 UNK         0.1400 
     71 CB         -4.3506  -20.0610  -45.1866 C.3       12 UNK        -0.1800 
     72 C          -3.9292  -22.2188  -46.4478 C.2       12 UNK         0.5000 
     73 O          -4.7488  -22.6403  -47.2646 O.2       12 UNK        -0.5000 
     74 N          -3.2241  -23.0078  -45.6247 N.am      13 UNK        -0.5000 
     75 CA         -3.2953  -24.4693  -45.6152 C.3       13 UNK         0.1400 
     76 CB         -2.5166  -25.0149  -44.4086 C.3       13 UNK        -0.1800 
     77 C          -2.7912  -25.1019  -46.9260 C.2       13 UNK         0.5000 
     78 O          -3.4082  -26.0488  -47.4146 O.2       13 UNK        -0.5000 
     79 N          -1.6983  -24.5575  -47.4797 N.am      14 UNK        -0.5000 
     80 CA         -1.1257  -24.9673  -48.7621 C.3       14 UNK         0.1400 
     81 CB          0.2677  -24.3414  -48.9283 C.3       14 UNK        -0.1800 
     82 C          -2.0279  -24.6105  -49.9575 C.2       14 UNK         0.5000 
     83 O          -2.1821  -25.4304  -50.8635 O.2       14 UNK        -0.5000 
     84 N          -2.6065  -23.4013  -49.9381 N.am      15 UNK        -0.5000 
     85 CA         -3.5208  -22.9009  -50.9633 C.3       15 UNK         0.1400 
     86 CB         -3.7244  -21.3890  -50.7824 C.3       15 UNK        -0.1800 
     87 C          -4.8703  -23.6389  -50.9717 C.2       15 UNK         0.5000 
     88 O          -5.4043  -23.8964  -52.0514 O.2       15 UNK        -0.5000 
     89 N          -5.3826  -23.9726  -49.7771 N.am      16 UNK        -0.5000 
     90 CA         -6.6069  -24.7301  -49.5061 C.3       16 UNK         0.1400 
     91 CB         -6.4190  -26.2106  -49.9044 C.3       16 UNK        -0.1800 
     92 C          -7.8492  -24.0697  -50.1385 C.2       16 UNK         0.5000 
     93 O          -8.3792  -23.1125  -49.5733 O.2       16 UNK        -0.5000 
     94 N          -8.2730  -24.5711  -51.3070 N.am      17 UNK        -0.5000 
     95 CA         -9.3547  -24.0192  -52.1266 C.3       17 UNK         0.1400 
     96 CB         -9.7425  -25.0587  -53.1905 C.3       17 UNK        -0.1800 
     97 C          -8.9985  -22.6772  -52.8003 C.2       17 UNK         0.5000 
     98 O          -9.9005  -21.9883  -53.2786 O.2       17 UNK        -0.5000 
     99 N          -7.6997  -22.3460  -52.8565 N.am      18 UNK        -0.5000 
    100 CA        -7.0646  -21.1473  -53.4148 C.3       18 UNK         0.1400 
    101 CB        -7.5880  -19.8543  -52.7646 C.3       18 UNK        -0.1800 
    102 C         -7.1100  -21.0748  -54.9483 C.2       18 UNK         0.5000 
    103 O         -6.0722  -20.8391  -55.5660 O.2       18 UNK        -0.5000 
    104 N         -8.2768  -21.3388  -55.5479 N.am      19 UNK        -0.5000 
    105 CA        -8.4913  -21.4043  -56.9976 C.3       19 UNK         0.1400 
    106 CB        -9.9943  -21.5627  -57.2710 C.3       19 UNK        -0.1800 
    107 C         -7.6946  -22.5332  -57.6843 C.2       19 UNK         0.5000 
    108 O         -7.3592  -22.4161  -58.8629 O.2       19 UNK        -0.5000 
    109 N         -7.3857  -23.5903  -56.9221 N.am      20 UNK        -0.5000 
    110 CA        -6.5380  -24.7114  -57.3273 C.3       20 UNK         0.1400 
    111 CB        -6.9271  -25.9342  -56.4793 C.3       20 UNK        -0.1800 
    112 C         -5.0283  -24.4172  -57.1844 C.2       20 UNK         0.5000 
    113 O         -4.2186  -25.2353  -57.6238 O.2       20 UNK        -0.5000 
    114 N         -4.6730  -23.2890  -56.5562 N.am      21 UNK        -0.5000 
    115 CA        -3.3089  -22.8777  -56.2469 C.3       21 UNK         0.1400 
    116 CB        -3.1238  -22.9053  -54.7161 C.3       21 UNK        -0.1800 
    117 C         -3.0464  -21.5036  -56.8875 C.2       21 UNK         0.5000 
    118 O         -2.9092  -21.4292  -58.1098 O.2       21 UNK        -0.5000 
    119 N         -2.9665  -20.4508  -56.0645 N.am      22 UNK        -0.5000 
    120 CA        -2.6946  -19.0635  -56.4745 C.3       22 UNK         0.1400 
    121 C         -3.8170  -18.3875  -57.3163 C.2       22 UNK         0.5000 
    122 N         -5.0553  -18.8620  -57.2862 N.am      22 UNK        -0.7600 
    123 O         -3.5545  -17.4115  -58.0140 O.2       22 UNK        -0.5000 
    124 C124       -2.3315  -18.1734  -55.2588 C.3       23 UNK        -0.0398 
    125 S125       -0.8355  -18.7362  -54.3759 S.3       23 UNK        -0.2404 
    126 C126       -1.1579  -18.0799  -52.7094 C.3       23 UNK        -0.0205 
    127 H127        3.5572   -8.7000  -49.1361 H         1 UNK         0.0600 
    128 H128        1.8473   -9.1278  -49.0314 H         1 UNK         0.0600 
    129 H129        2.7155   -8.6043  -47.5854 H         1 UNK         0.0600 
    130 H130        1.5288  -11.3327  -49.0949 H         1 UNK         0.3000 
    131 H131        3.5930  -13.2532  -48.7311 H         1 UNK         0.0600 
    132 H132        0.5706  -13.7219  -48.8458 H         1 UNK         0.0800 
    133 H133        1.7944  -14.9409  -49.0453 H         1 UNK         0.0800 
    134 H134        2.7630  -14.6962  -52.7348 H         1 UNK         0.0800 
    135 H135        3.5985  -14.8515  -51.2098 H         1 UNK         0.0800 
    136 H136        0.3338  -15.8129  -52.8413 H         1 UNK         0.1150 
    137 H137        0.2128  -19.6543  -50.9377 H         1 UNK         0.1150 
    138 H138        3.4066  -16.9288  -50.0689 H         1 UNK         0.1150 
    139 H139        2.0460  -20.3860  -49.5604 H         1 UNK         0.0800 
    140 H140        3.5529  -19.5173  -49.6761 H         1 UNK         0.0800 
    141 H141        0.0314  -18.7001  -48.3287 H         1 UNK         0.0800 
    142 H142        0.2510  -18.3308  -46.6417 H         1 UNK         0.0800 
    143 H143        0.6952  -21.1488  -47.7135 H         1 UNK         0.0600 
    144 H144        0.9035  -20.0769  -45.0908 H         1 UNK         0.3000 
    145 H145        0.5458  -23.2511  -43.4056 H         1 UNK         0.0600 
    146 H146        2.6783  -22.4329  -42.4665 H         1 UNK         0.0600 
    147 H147        2.9205  -22.9514  -44.1275 H         1 UNK         0.0600 
    148 H148        2.8275  -21.2357  -43.7507 H         1 UNK         0.0600 
    149 H149        0.8471  -20.6479  -42.3360 H         1 UNK         0.3000 
    150 H150       -2.6601  -19.8634  -42.0661 H         1 UNK         0.0600 
    151 H151       -2.0010  -21.2788  -40.1114 H         1 UNK         0.0600 
    152 H152       -1.9296  -19.5662  -39.7243 H         1 UNK         0.0600 
    153 H153       -0.4443  -20.4614  -40.0358 H         1 UNK         0.0600 
    154 H154       -0.3969  -18.3328  -41.3393 H         1 UNK         0.3000 
    155 H155        0.0263  -16.5956  -44.4675 H         1 UNK         0.0600 
    156 H156       -0.8944  -15.8549  -41.6365 H         1 UNK         0.0600 
    157 H157       -1.6872  -15.4082  -43.1417 H         1 UNK         0.0600 
    158 H158       -0.0992  -14.7599  -42.7567 H         1 UNK         0.0600 
    159 H159        1.5632  -16.4518  -42.1089 H         1 UNK         0.3000 
    160 H160        3.9082  -19.0700  -42.8365 H         1 UNK         0.0600 
    161 H161        5.4080  -17.1208  -42.4209 H         1 UNK         0.0600 
    162 H162        4.0748  -16.0100  -42.7286 H         1 UNK         0.0600 
    163 H163        4.6807  -17.0346  -44.0179 H         1 UNK         0.0600 
    164 H164        3.5285  -17.2795  -40.6155 H         1 UNK         0.3000 
    165 H165        1.5594  -19.4939  -38.6288 H         1 UNK         0.0600 
    166 H166        3.4613  -19.1690  -37.0725 H         1 UNK         0.0600 
    167 H167        3.9122  -20.2888  -38.3480 H         1 UNK         0.0600 
    168 H168        4.4937  -18.6287  -38.3966 H         1 UNK         0.0600 
    169 H169        2.7183  -16.9226  -38.1307 H         1 UNK         0.3000 
    170 H170        0.0291  -14.9505  -39.3740 H         1 UNK         0.0600 
    171 H171       -0.6948  -15.6812  -37.0956 H         1 UNK         0.0600 
    172 H172        0.9585  -15.5370  -36.5107 H         1 UNK         0.0600 
    173 H173        0.0785  -14.1052  -37.0466 H         1 UNK         0.0600 
    174 H174        2.4282  -14.2220  -38.0441 H         1 UNK         0.3000 
    175 H175        3.9052  -12.8801  -39.4494 H         1 UNK         0.0600 
    176 H176        5.2371  -15.6003  -40.0551 H         1 UNK         0.0600 
    177 H177        6.0784  -14.1643  -39.4796 H         1 UNK         0.0600 
    178 H178        4.9135  -14.9691  -38.4435 H         1 UNK         0.0600 
    179 H179        3.7158  -13.9443  -42.0893 H         1 UNK         0.3000 
    180 H180        5.2132  -11.1858  -43.5762 H         1 UNK         0.0600 
    181 H181        6.2493  -14.0558  -43.9031 H         1 UNK         0.0600 
    182 H182        7.2478  -12.6408  -43.5877 H         1 UNK         0.0600 
    183 H183        6.3697  -12.7690  -45.1041 H         1 UNK         0.0600 
    184 H184        3.9715  -13.4927  -44.7067 H         1 UNK         0.3000 
    185 H185        1.5366  -13.9071  -44.4243 H         1 UNK         0.0600 
    186 H186       -0.0262  -12.3655  -43.2100 H         1 UNK         0.0600 
    187 H187        0.0312  -11.2392  -44.5592 H         1 UNK         0.0600 
    188 H188       -0.6625  -12.8463  -44.7747 H         1 UNK         0.0600 
    189 H189        1.1927  -11.9265  -46.5491 H         1 UNK         0.3000 
    190 H190       -1.8644  -19.9455  -45.4864 H         1 UNK         0.3000 
    191 H191       -4.0260  -20.2560  -47.2938 H         1 UNK         0.0600 
    192 H192       -3.9795  -20.4439  -44.2360 H         1 UNK         0.0600 
    193 H193       -5.4234  -20.2543  -45.2228 H         1 UNK         0.0600 
    194 H194       -4.2149  -18.9794  -45.1865 H         1 UNK         0.0600 
    195 H195       -2.5975  -22.5779  -44.9498 H         1 UNK         0.3000 
    196 H196       -4.3438  -24.7496  -45.4953 H         1 UNK         0.0600 
    197 H197       -1.4626  -24.7391  -44.4504 H         1 UNK         0.0600 
    198 H198       -2.5710  -26.1034  -44.3677 H         1 UNK         0.0600 
    199 H199       -2.9238  -24.6329  -43.4723 H         1 UNK         0.0600 
    200 H200       -1.2078  -23.8248  -46.9750 H         1 UNK         0.3000 
    201 H201       -1.0080  -26.0528  -48.7459 H         1 UNK         0.0600 
    202 H202        0.2224  -23.2523  -48.9330 H         1 UNK         0.0600 
    203 H203        0.7274  -24.6551  -49.8663 H         1 UNK         0.0600 
    204 H204        0.9350  -24.6448  -48.1214 H         1 UNK         0.0600 
    205 H205       -2.3712  -22.7541  -49.1892 H         1 UNK         0.3000 
    206 H206       -3.0477  -23.0639  -51.9319 H         1 UNK         0.0600 
    207 H207       -2.7771  -20.8544  -50.8548 H         1 UNK         0.0600 
    208 H208       -4.3815  -20.9824  -51.5499 H         1 UNK         0.0600 
    209 H209       -4.1666  -21.1566  -49.8129 H         1 UNK         0.0600 
    210 H210       -4.9075  -23.6280  -48.9474 H         1 UNK         0.3000 
    211 H211       -6.7555  -24.6972  -48.4257 H         1 UNK         0.0600 
    212 H212       -6.1717  -26.3318  -50.9594 H         1 UNK         0.0600 
    213 H213       -7.3217  -26.7892  -49.7041 H         1 UNK         0.0600 
    214 H214       -5.6123  -26.6637  -49.3276 H         1 UNK         0.0600 
    215 H215       -7.7514  -25.3374  -51.7077 H         1 UNK         0.3000 
    216 H216      -10.2190  -23.8436  -51.4830 H         1 UNK         0.0600 
    217 H217      -10.5691  -24.7009  -53.8060 H         1 UNK         0.0600 
    218 H218      -10.0643  -25.9930  -52.7303 H         1 UNK         0.0600 
    219 H219       -8.9094  -25.2823  -53.8581 H         1 UNK         0.0600 
    220 H220       -7.0385  -23.0236  -52.4839 H         1 UNK         0.3000 
    221 H221       -6.0112  -21.2357  -53.1511 H         1 UNK         0.0600 
    222 H222       -8.6354  -19.6685  -53.0031 H         1 UNK         0.0600 
    223 H223       -7.4924  -19.8944  -51.6794 H         1 UNK         0.0600 
    224 H224       -7.0189  -18.9901  -53.1097 H         1 UNK         0.0600 
    225 H225       -9.0757  -21.5278  -54.9486 H         1 UNK         0.3000 
    226 H226       -8.1590  -20.4580  -57.4292 H         1 UNK         0.0600 
    227 H227      -10.5601  -20.7274  -56.8579 H         1 UNK         0.0600 
    228 H228      -10.1966  -21.5934  -58.3425 H         1 UNK         0.0600 
    229 H229      -10.3871  -22.4822  -56.8349 H         1 UNK         0.0600 
    230 H230       -7.7106  -23.5944  -55.9670 H         1 UNK         0.3000 
    231 H231       -6.7308  -24.9452  -58.3764 H         1 UNK         0.0600 
    232 H232       -7.9834  -26.1772  -56.5973 H         1 UNK         0.0600 
    233 H233       -6.7372  -25.7647  -55.4184 H         1 UNK         0.0600 
    234 H234       -6.3580  -26.8157  -56.7774 H         1 UNK         0.0600 
    235 H235       -5.3924  -22.6258  -56.2932 H         1 UNK         0.3000 
    236 H236       -2.5850  -23.5674  -56.6853 H         1 UNK         0.0600 
    237 H237       -2.1258  -22.5703  -54.4299 H         1 UNK         0.0600 
    238 H238       -3.8534  -22.2771  -54.2037 H         1 UNK         0.0600 
    239 H239       -3.2433  -23.9190  -54.3325 H         1 UNK         0.0600 
    240 H240       -3.1048  -20.5997  -55.0769 H         1 UNK         0.3000 
    241 H241       -1.8193  -19.0961  -57.1263 H         1 UNK         0.0600 
    242 H242       -5.7672  -18.4157  -57.8407 H         1 UNK         0.3800 
    243 H243       -5.3014  -19.6458  -56.6849 H         1 UNK         0.3800 
    244 H244       -2.1506  -17.1442  -55.5748 H         1 UNK         0.0800 
    245 H245       -3.1715  -18.1366  -54.5627 H         1 UNK         0.0800 
    246 H246       -1.7538  -17.1682  -52.7777 H         1 UNK         0.0800 
    247 H247       -1.7580  -18.7975  -52.1479 H         1 UNK         0.0800 
@<TRIPOS>BOND
     1    1    2 1    
     2    1  127 1    
     3    1  128 1    
     4    1  129 1    
     5    2    3 2    
     6    2    4 am   BACKBONE|DICT|INTERRES
     7    4    5 1    
     8    4  130 1    
     9    5    6 1    
    10    5   65 1    
    11    5  131 1    
    12    6    7 1    
    13    6  132 1    
    14    6  133 1    
    15    7    8 1    
    16    8    9 1    
    17    8  134 1    
    18    8  135 1    
    19    9   10 ar   
    20    9   14 ar   
    21   10   11 ar   
    22   10  136 1    
    23   11   12 ar   
    24   11  126 1    
    25   12   13 ar   
    26   12  137 1    
    27   13   14 ar   
    28   13   15 1    
    29   14  138 1    
    30   15   16 1    
    31   15  139 1    
    32   15  140 1    
    33   16   17 1    
    34   17   18 1    
    35   17  141 1    
    36   17  142 1    
    37   18   19 1    
    38   18   67 1    
    39   18  143 1    
    40   19   20 am   BACKBONE|DICT|INTERRES
    41   19  144 1    
    42   20   21 2    
    43   20   22 1    
    44   22   23 1    
    45   22   24 1    
    46   22  145 1    
    47   23  146 1    
    48   23  147 1    
    49   23  148 1    
    50   24   25 am   BACKBONE|DICT|INTERRES
    51   24  149 1    
    52   25   26 2    
    53   25   27 1    
    54   27   28 1    
    55   27   29 1    
    56   27  150 1    
    57   28  151 1    
    58   28  152 1    
    59   28  153 1    
    60   29   30 am   BACKBONE|DICT|INTERRES
    61   29  154 1    
    62   30   31 2    
    63   30   32 1    
    64   32   33 1    
    65   32   34 1    
    66   32  155 1    
    67   33  156 1    
    68   33  157 1    
    69   33  158 1    
    70   34   35 am   BACKBONE|DICT|INTERRES
    71   34  159 1    
    72   35   36 2    
    73   35   37 1    
    74   37   38 1    
    75   37   39 1    
    76   37  160 1    
    77   38  161 1    
    78   38  162 1    
    79   38  163 1    
    80   39   40 am   BACKBONE|DICT|INTERRES
    81   39  164 1    
    82   40   41 2    
    83   40   42 1    
    84   42   43 1    
    85   42   44 1    
    86   42  165 1    
    87   43  166 1    
    88   43  167 1    
    89   43  168 1    
    90   44   45 am   BACKBONE|DICT|INTERRES
    91   44  169 1    
    92   45   46 2    
    93   45   47 1    
    94   47   48 1    
    95   47   49 1    
    96   47  170 1    
    97   48  171 1    
    98   48  172 1    
    99   48  173 1    
   100   49   50 am   BACKBONE|DICT|INTERRES
   101   49  174 1    
   102   50   51 2    
   103   50   52 1    
   104   52   53 1    
   105   52   54 1    
   106   52  175 1    
   107   53  176 1    
   108   53  177 1    
   109   53  178 1    
   110   54   55 am   BACKBONE|DICT|INTERRES
   111   54  179 1    
   112   55   56 2    
   113   55   57 1    
   114   57   58 1    
   115   57   59 1    
   116   57  180 1    
   117   58  181 1    
   118   58  182 1    
   119   58  183 1    
   120   59   60 am   BACKBONE|DICT|INTERRES
   121   59  184 1    
   122   60   61 2    
   123   60   62 1    
   124   62   63 1    
   125   62   64 1    
   126   62  185 1    
   127   63  186 1    
   128   63  187 1    
   129   63  188 1    
   130   64   65 am   BACKBONE|DICT|INTERRES
   131   64  189 1    
   132   65   66 2    
   133   67   68 2    
   134   67   69 am   BACKBONE|DICT|INTERRES
   135   69   70 1    
   136   69  190 1    
   137   70   71 1    
   138   70   72 1    
   139   70  191 1    
   140   71  192 1    
   141   71  193 1    
   142   71  194 1    
   143   72   73 2    
   144   72   74 am   BACKBONE|DICT|INTERRES
   145   74   75 1    
   146   74  195 1    
   147   75   76 1    
   148   75   77 1    
   149   75  196 1    
   150   76  197 1    
   151   76  198 1    
   152   76  199 1    
   153   77   78 2    
   154   77   79 am   BACKBONE|DICT|INTERRES
   155   79   80 1    
   156   79  200 1    
   157   80   81 1    
   158   80   82 1    
   159   80  201 1    
   160   81  202 1    
   161   81  203 1    
   162   81  204 1    
   163   82   83 2    
   164   82   84 am   BACKBONE|DICT|INTERRES
   165   84   85 1    
   166   84  205 1    
   167   85   86 1    
   168   85   87 1    
   169   85  206 1    
   170   86  207 1    
   171   86  208 1    
   172   86  209 1    
   173   87   88 2    
   174   87   89 am   BACKBONE|DICT|INTERRES
   175   89   90 1    
   176   89  210 1    
   177   90   91 1    
   178   90   92 1    
   179   90  211 1    
   180   91  212 1    
   181   91  213 1    
   182   91  214 1    
   183   92   93 2    
   184   92   94 am   BACKBONE|DICT|INTERRES
   185   94   95 1    
   186   94  215 1    
   187   95   96 1    
   188   95   97 1    
   189   95  216 1    
   190   96  217 1    
   191   96  218 1    
   192   96  219 1    
   193   97   98 2    
   194   97   99 am   BACKBONE|DICT|INTERRES
   195   99  100 1    
   196   99  220 1    
   197  100  101 1    
   198  100  102 1    
   199  100  221 1    
   200  101  222 1    
   201  101  223 1    
   202  101  224 1    
   203  102  103 2    
   204  102  104 am   BACKBONE|DICT|INTERRES
   205  104  105 1    
   206  104  225 1    
   207  105  106 1    
   208  105  107 1    
   209  105  226 1    
   210  106  227 1    
   211  106  228 1    
   212  106  229 1    
   213  107  108 2    
   214  107  109 am   BACKBONE|DICT|INTERRES
   215  109  110 1    
   216  109  230 1    
   217  110  111 1    
   218  110  112 1    
   219  110  231 1    
   220  111  232 1    
   221  111  233 1    
   222  111  234 1    
   223  112  113 2    
   224  112  114 am   BACKBONE|DICT|INTERRES
   225  114  115 1    
   226  114  235 1    
   227  115  116 1    
   228  115  117 1    
   229  115  236 1    
   230  116  237 1    
   231  116  238 1    
   232  116  239 1    
   233  117  118 2    
   234  117  119 am   BACKBONE|DICT|INTERRES
   235  119  120 1    
   236  119  240 1    
   237  120  121 1    
   238  120  124 1    
   239  120  241 1    
   240  121  122 am   BACKBONE|DICT|INTERRES
   241  121  123 2    
   242  122  242 1    
   243  122  243 1    
   244  124  125 1    
   245  124  244 1    
   246  124  245 1    
   247  125  126 1    
   248  126  246 1    
   249  126  247 1    
@<TRIPOS>SUBSTRUCTURE
     1 UNK         1 GROUP             0       ****    0 ROOT    
