@<TRIPOS>MOLECULE
3R540
247   249    1
SMALL
USER_CHARGES


@<TRIPOS>ATOM
      1 CA          0.7456  -11.4950  -51.7084 C.3       0 UNK        -0.1800 
      2 C           1.2924  -12.2521  -50.5057 C.2       0 UNK         0.5000 
      3 O           2.1039  -11.6997  -49.7640 O.2       0 UNK        -0.5000 
      4 N           0.8349  -13.4986  -50.3227 N.am      1 UNK        -0.5000 
      5 CA          1.2134  -14.4623  -49.2808 C.3       1 UNK         0.1400 
      6 C6          1.0220  -13.9627  -47.8235 C.3       23 UNK        -0.0398 
      7 S7         -0.7113  -13.5295  -47.4499 S.3       23 UNK        -0.2404 
      8 C8         -1.2466  -14.9330  -46.4209 C.3       23 UNK        -0.0205 
      9 C9         -1.6241  -16.1552  -47.2446 C.ar      23 UNK        -0.0193 
     10 C10        -2.9664  -16.4290  -47.5210 C.ar      23 UNK        -0.1150 
     11 C11        -3.3217  -17.5615  -48.2585 C.ar      23 UNK        -0.0193 
     12 C12        -2.3243  -18.4227  -48.7221 C.ar      23 UNK        -0.1150 
     13 C13        -0.9787  -18.1695  -48.4452 C.ar      23 UNK        -0.0193 
     14 C14        -0.6377  -17.0320  -47.7038 C.ar      23 UNK        -0.1150 
     15 C15         0.0819  -19.1408  -48.9566 C.3       23 UNK        -0.0205 
     16 S16         1.4692  -19.4350  -47.8047 S.3       23 UNK        -0.2404 
     17 C17         0.6232  -19.8196  -46.2324 C.3       23 UNK        -0.0398 
     18 CA          0.3821  -21.3258  -45.9966 C.3       11 UNK         0.1400 
     19 N           0.1870  -21.6045  -44.5746 N.am      11 UNK        -0.5000 
     20 C           0.0382  -22.8151  -44.0236 C.2       10 UNK         0.5000 
     21 O           0.0638  -23.8676  -44.6595 O.2       10 UNK        -0.5000 
     22 CA         -0.2349  -22.8423  -42.5120 C.3       10 UNK         0.1400 
     23 CB          1.0674  -22.6715  -41.7151 C.3       10 UNK        -0.1800 
     24 N          -1.1863  -21.7998  -42.1283 N.am      10 UNK        -0.5000 
     25 C          -2.5017  -21.8542  -42.3777 C.2       9 UNK         0.5000 
     26 O          -3.0593  -22.8168  -42.9055 O.2       9 UNK        -0.5000 
     27 CA         -3.3275  -20.6111  -41.9966 C.3       9 UNK         0.1400 
     28 CB         -3.7180  -20.6539  -40.5117 C.3       9 UNK        -0.1800 
     29 N          -2.6374  -19.3503  -42.2803 N.am      9 UNK        -0.5000 
     30 C          -2.3396  -18.9166  -43.5128 C.2       8 UNK         0.5000 
     31 O          -2.5907  -19.5464  -44.5378 O.2       8 UNK        -0.5000 
     32 CA         -1.6058  -17.5689  -43.6215 C.3       8 UNK         0.1400 
     33 CB         -2.6105  -16.4146  -43.4989 C.3       8 UNK        -0.1800 
     34 N          -0.5214  -17.3697  -42.6554 N.am      8 UNK        -0.5000 
     35 C           0.4937  -18.2134  -42.4117 C.2       7 UNK         0.5000 
     36 O           0.5638  -19.3469  -42.8873 O.2       7 UNK        -0.5000 
     37 CA          1.6313  -17.7160  -41.4997 C.3       7 UNK         0.1400 
     38 CB          3.0061  -18.0190  -42.1216 C.3       7 UNK        -0.1800 
     39 N           1.5476  -16.2764  -41.2505 N.am      7 UNK        -0.5000 
     40 C           1.1697  -15.7034  -40.0999 C.2       6 UNK         0.5000 
     41 O           0.8076  -16.3386  -39.1093 O.2       6 UNK        -0.5000 
     42 CA          1.2081  -14.1617  -40.0325 C.3       6 UNK         0.1400 
     43 CB          2.4124  -13.6945  -39.2001 C.3       6 UNK        -0.1800 
     44 N           1.2760  -13.5233  -41.3488 N.am      6 UNK        -0.5000 
     45 C           0.2493  -13.4184  -42.2033 C.2       5 UNK         0.5000 
     46 O          -0.8899  -13.8065  -41.9487 O.2       5 UNK        -0.5000 
     47 CA          0.5643  -12.8243  -43.5912 C.3       5 UNK         0.1400 
     48 CB          0.3329  -11.3065  -43.5973 C.3       5 UNK        -0.1800 
     49 N           1.9299  -13.1083  -44.0495 N.am      5 UNK        -0.5000 
     50 C           2.4044  -14.3352  -44.2974 C.2       4 UNK         0.5000 
     51 O           1.7338  -15.3645  -44.1789 O.2       4 UNK        -0.5000 
     52 CA          3.8821  -14.4404  -44.6911 C.3       4 UNK         0.1400 
     53 CB          4.7726  -14.3502  -43.4363 C.3       4 UNK        -0.1800 
     54 N           4.0688  -15.7232  -45.3570 N.am      4 UNK        -0.5000 
     55 C           5.1415  -16.1193  -46.0493 C.2       3 UNK         0.5000 
     56 O           6.1444  -15.4254  -46.2201 O.2       3 UNK        -0.5000 
     57 CA          5.0673  -17.5236  -46.6739 C.3       3 UNK         0.1400 
     58 CB          4.3790  -18.5519  -45.7554 C.3       3 UNK        -0.1800 
     59 N           4.3526  -17.4477  -47.9456 N.am      3 UNK        -0.5000 
     60 C           4.9238  -17.1518  -49.1207 C.2       2 UNK         0.5000 
     61 O           6.1381  -17.0260  -49.2842 O.2       2 UNK        -0.5000 
     62 CA          3.9766  -16.9452  -50.3194 C.3       2 UNK         0.1400 
     63 CB          3.6543  -18.2873  -50.9955 C.3       2 UNK        -0.1800 
     64 N           2.7242  -16.2613  -49.9791 N.am      2 UNK        -0.5000 
     65 C           2.6381  -15.0067  -49.5123 C.2       1 UNK         0.5000 
     66 O           3.6183  -14.3004  -49.2730 O.2       1 UNK        -0.5000 
     67 C          -0.7866  -21.8563  -46.8507 C.2       11 UNK         0.5000 
     68 O          -0.5459  -22.5533  -47.8338 O.2       11 UNK        -0.5000 
     69 N          -2.0276  -21.5648  -46.4367 N.am      12 UNK        -0.5000 
     70 CA         -3.2531  -22.0177  -47.0961 C.3       12 UNK         0.1400 
     71 CB         -4.4588  -21.3031  -46.4686 C.3       12 UNK        -0.1800 
     72 C          -3.4522  -23.5455  -47.0578 C.2       12 UNK         0.5000 
     73 O          -4.1005  -24.0875  -47.9519 O.2       12 UNK        -0.5000 
     74 N          -2.8978  -24.2136  -46.0377 N.am      13 UNK        -0.5000 
     75 CA         -2.8821  -25.6713  -45.9344 C.3       13 UNK         0.1400 
     76 CB         -2.7032  -26.0792  -44.4636 C.3       13 UNK        -0.1800 
     77 C          -1.7857  -26.2951  -46.8181 C.2       13 UNK         0.5000 
     78 O          -2.0269  -27.3273  -47.4451 O.2       13 UNK        -0.5000 
     79 N          -0.6009  -25.6698  -46.8390 N.am      14 UNK        -0.5000 
     80 CA          0.5730  -26.1289  -47.5785 C.3       14 UNK         0.1400 
     81 CB          1.8227  -25.4196  -47.0332 C.3       14 UNK        -0.1800 
     82 C           0.4557  -25.9235  -49.0991 C.2       14 UNK         0.5000 
     83 O           0.7908  -26.8335  -49.8594 O.2       14 UNK        -0.5000 
     84 N           0.0134  -24.7314  -49.5182 N.am      15 UNK        -0.5000 
     85 CA         -0.1191  -24.3452  -50.9207 C.3       15 UNK         0.1400 
     86 CB         -0.2511  -22.8173  -51.0164 C.3       15 UNK        -0.1800 
     87 C          -1.3221  -25.0299  -51.5888 C.2       15 UNK         0.5000 
     88 O          -2.3954  -25.1158  -50.9864 O.2       15 UNK        -0.5000 
     89 N          -1.1333  -25.4617  -52.8427 N.am      16 UNK        -0.5000 
     90 CA         -2.1721  -26.0483  -53.6900 C.3       16 UNK         0.1400 
     91 CB         -1.5438  -26.5242  -55.0083 C.3       16 UNK        -0.1800 
     92 C          -3.3015  -25.0391  -53.9580 C.2       16 UNK         0.5000 
     93 O          -3.0158  -23.8962  -54.3243 O.2       16 UNK        -0.5000 
     94 N          -4.5499  -25.4664  -53.7197 N.am      17 UNK        -0.5000 
     95 CA         -5.7846  -24.6743  -53.8163 C.3       17 UNK         0.1400 
     96 CB         -6.0961  -24.3498  -55.2932 C.3       17 UNK        -0.1800 
     97 C          -5.7768  -23.4094  -52.9267 C.2       17 UNK         0.5000 
     98 O          -6.3872  -22.4041  -53.2909 O.2       17 UNK        -0.5000 
     99 N          -5.0394  -23.4609  -51.8051 N.am      18 UNK        -0.5000 
    100 CA        -4.7435  -22.3490  -50.8941 C.3       18 UNK         0.1400 
    101 CB        -6.0030  -21.9295  -50.1080 C.3       18 UNK        -0.1800 
    102 C         -4.0501  -21.1664  -51.6031 C.2       18 UNK         0.5000 
    103 O         -4.3678  -20.0100  -51.3316 O.2       18 UNK        -0.5000 
    104 N         -3.1391  -21.4935  -52.5324 N.am      19 UNK        -0.5000 
    105 CA        -2.4079  -20.5880  -53.4261 C.3       19 UNK         0.1400 
    106 CB        -1.5835  -19.5481  -52.6352 C.3       19 UNK        -0.1800 
    107 C         -3.2975  -19.9455  -54.5131 C.2       19 UNK         0.5000 
    108 O         -2.8790  -18.9694  -55.1377 O.2       19 UNK        -0.5000 
    109 N         -4.4989  -20.5041  -54.7299 N.am      20 UNK        -0.5000 
    110 CA        -5.5388  -20.1553  -55.7067 C.3       20 UNK         0.1400 
    111 CB        -5.0193  -20.2809  -57.1507 C.3       20 UNK        -0.1800 
    112 C         -6.2153  -18.7914  -55.4708 C.2       20 UNK         0.5000 
    113 O         -7.4426  -18.7076  -55.5372 O.2       20 UNK        -0.5000 
    114 N         -5.4204  -17.7549  -55.1786 N.am      21 UNK        -0.5000 
    115 CA        -5.8462  -16.3722  -54.9470 C.3       21 UNK         0.1400 
    116 CB        -4.5994  -15.4987  -54.7407 C.3       21 UNK        -0.1800 
    117 C         -6.8226  -16.2030  -53.7671 C.2       21 UNK         0.5000 
    118 O         -7.6533  -15.2937  -53.7945 O.2       21 UNK        -0.5000 
    119 N         -6.7181  -17.0889  -52.7701 N.am      22 UNK        -0.5000 
    120 CA        -7.6189  -17.1604  -51.6098 C.3       22 UNK         0.1400 
    121 C         -8.9621  -17.8980  -51.8938 C.2       22 UNK         0.5000 
    122 N         -9.1891  -18.4628  -53.0750 N.am      22 UNK        -0.7600 
    123 O         -9.8276  -17.9492  -51.0242 O.2       22 UNK        -0.5000 
    124 C124       -6.9069  -17.7535  -50.3678 C.3       23 UNK        -0.0398 
    125 S125       -5.3897  -16.8405  -49.9286 S.3       23 UNK        -0.2404 
    126 C126       -4.7814  -17.8599  -48.5541 C.3       23 UNK        -0.0205 
    127 H127        0.0318  -12.0926  -52.2762 H         1 UNK         0.0600 
    128 H128        1.5598  -11.2135  -52.3763 H         1 UNK         0.0600 
    129 H129        0.2418  -10.5854  -51.3814 H         1 UNK         0.0600 
    130 H130        0.1673  -13.8556  -50.9915 H         1 UNK         0.3000 
    131 H131        0.5264  -15.2958  -49.4253 H         1 UNK         0.0600 
    132 H132        1.3592  -14.7198  -47.1152 H         1 UNK         0.0800 
    133 H133        1.6416  -13.0876  -47.6251 H         1 UNK         0.0800 
    134 H134       -0.4730  -15.1951  -45.6989 H         1 UNK         0.0800 
    135 H135       -2.1066  -14.6046  -45.8366 H         1 UNK         0.0800 
    136 H136       -3.7378  -15.7605  -47.1656 H         1 UNK         0.1150 
    137 H137       -2.5999  -19.2943  -49.2991 H         1 UNK         0.1150 
    138 H138        0.3976  -16.8337  -47.4724 H         1 UNK         0.1150 
    139 H139       -0.3722  -20.1030  -49.1968 H         1 UNK         0.0800 
    140 H140        0.4818  -18.7559  -49.8948 H         1 UNK         0.0800 
    141 H141       -0.3027  -19.2557  -46.1273 H         1 UNK         0.0800 
    142 H142        1.2757  -19.4354  -45.4487 H         1 UNK         0.0800 
    143 H143        1.2816  -21.8676  -46.2965 H         1 UNK         0.0600 
    144 H144        0.1817  -20.7960  -43.9565 H         1 UNK         0.3000 
    145 H145       -0.6613  -23.8165  -42.2631 H         1 UNK         0.0600 
    146 H146        0.8840  -22.7385  -40.6427 H         1 UNK         0.0600 
    147 H147        1.7849  -23.4520  -41.9716 H         1 UNK         0.0600 
    148 H148        1.5436  -21.7107  -41.9140 H         1 UNK         0.0600 
    149 H149       -0.7977  -20.9439  -41.7581 H         1 UNK         0.3000 
    150 H150       -4.2445  -20.6319  -42.5897 H         1 UNK         0.0600 
    151 H151       -4.3763  -19.8243  -40.2530 H         1 UNK         0.0600 
    152 H152       -4.2507  -21.5759  -40.2748 H         1 UNK         0.0600 
    153 H153       -2.8430  -20.6041  -39.8624 H         1 UNK         0.0600 
    154 H154       -2.3802  -18.7773  -41.4902 H         1 UNK         0.3000 
    155 H155       -1.1551  -17.5228  -44.6140 H         1 UNK         0.0600 
    156 H156       -3.0898  -16.3991  -42.5194 H         1 UNK         0.0600 
    157 H157       -3.3964  -16.4986  -44.2509 H         1 UNK         0.0600 
    158 H158       -2.1250  -15.4510  -43.6429 H         1 UNK         0.0600 
    159 H159       -0.4851  -16.4620  -42.2145 H         1 UNK         0.3000 
    160 H160        1.5538  -18.2723  -40.5638 H         1 UNK         0.0600 
    161 H161        3.1275  -17.5252  -43.0856 H         1 UNK         0.0600 
    162 H162        3.1425  -19.0894  -42.2812 H         1 UNK         0.0600 
    163 H163        3.8145  -17.6847  -41.4714 H         1 UNK         0.0600 
    164 H164        1.7680  -15.6859  -42.0426 H         1 UNK         0.3000 
    165 H165        0.2960  -13.8315  -39.5308 H         1 UNK         0.0600 
    166 H166        2.4191  -12.6099  -39.0899 H         1 UNK         0.0600 
    167 H167        2.3841  -14.1208  -38.1964 H         1 UNK         0.0600 
    168 H168        3.3573  -13.9925  -39.6566 H         1 UNK         0.0600 
    169 H169        2.1770  -13.1700  -41.6350 H         1 UNK         0.3000 
    170 H170       -0.1307  -13.2731  -44.3019 H         1 UNK         0.0600 
    171 H171       -0.6824  -11.0651  -43.2796 H         1 UNK         0.0600 
    172 H172        1.0193  -10.7907  -42.9248 H         1 UNK         0.0600 
    173 H173        0.4652  -10.8926  -44.5973 H         1 UNK         0.0600 
    174 H174        2.5400  -12.3111  -44.1621 H         1 UNK         0.3000 
    175 H175        4.1242  -13.6351  -45.3876 H         1 UNK         0.0600 
    176 H176        4.5589  -15.1572  -42.7338 H         1 UNK         0.0600 
    177 H177        5.8308  -14.4034  -43.6914 H         1 UNK         0.0600 
    178 H178        4.6196  -13.4072  -42.9105 H         1 UNK         0.0600 
    179 H179        3.2685  -16.3369  -45.2685 H         1 UNK         0.3000 
    180 H180        6.0899  -17.8676  -46.8434 H         1 UNK         0.0600 
    181 H181        3.3342  -18.3068  -45.5684 H         1 UNK         0.0600 
    182 H182        4.8823  -18.6104  -44.7896 H         1 UNK         0.0600 
    183 H183        4.4082  -19.5486  -46.1960 H         1 UNK         0.0600 
    184 H184        3.3492  -17.5513  -47.9124 H         1 UNK         0.3000 
    185 H185        4.5024  -16.3212  -51.0452 H         1 UNK         0.0600 
    186 H186        4.5685  -18.7997  -51.2982 H         1 UNK         0.0600 
    187 H187        3.1112  -18.9571  -50.3288 H         1 UNK         0.0600 
    188 H188        3.0519  -18.1444  -51.8927 H         1 UNK         0.0600 
    189 H189        1.8757  -16.7745  -50.1654 H         1 UNK         0.3000 
    190 H190       -2.1536  -20.9467  -45.6371 H         1 UNK         0.3000 
    191 H191       -3.1900  -21.7202  -48.1443 H         1 UNK         0.0600 
    192 H192       -4.3800  -20.2222  -46.5859 H         1 UNK         0.0600 
    193 H193       -5.3919  -21.6153  -46.9388 H         1 UNK         0.0600 
    194 H194       -4.5393  -21.5185  -45.4023 H         1 UNK         0.0600 
    195 H195       -2.3929  -23.6967  -45.3311 H         1 UNK         0.3000 
    196 H196       -3.8456  -26.0603  -46.2712 H         1 UNK         0.0600 
    197 H197       -2.7264  -27.1641  -44.3553 H         1 UNK         0.0600 
    198 H198       -3.5018  -25.6723  -43.8429 H         1 UNK         0.0600 
    199 H199       -1.7546  -25.7298  -44.0561 H         1 UNK         0.0600 
    200 H200       -0.4699  -24.8542  -46.2482 H         1 UNK         0.3000 
    201 H201        0.6905  -27.1993  -47.3968 H         1 UNK         0.0600 
    202 H202        1.9674  -25.6361  -45.9746 H         1 UNK         0.0600 
    203 H203        1.7517  -24.3368  -47.1448 H         1 UNK         0.0600 
    204 H204        2.7206  -25.7474  -47.5585 H         1 UNK         0.0600 
    205 H205       -0.2542  -24.0291  -48.8306 H         1 UNK         0.3000 
    206 H206        0.7939  -24.6407  -51.4420 H         1 UNK         0.0600 
    207 H207        0.5999  -22.3165  -50.5543 H         1 UNK         0.0600 
    208 H208       -0.2929  -22.4946  -52.0570 H         1 UNK         0.0600 
    209 H209       -1.1558  -22.4602  -50.5227 H         1 UNK         0.0600 
    210 H210       -0.2328  -25.3232  -53.2772 H         1 UNK         0.3000 
    211 H211       -2.5805  -26.9162  -53.1681 H         1 UNK         0.0600 
    212 H212       -1.0960  -25.6982  -55.5626 H         1 UNK         0.0600 
    213 H213       -2.2935  -26.9838  -55.6537 H         1 UNK         0.0600 
    214 H214       -0.7683  -27.2695  -54.8303 H         1 UNK         0.0600 
    215 H215       -4.6746  -26.4168  -53.3988 H         1 UNK         0.3000 
    216 H216       -6.5891  -25.3060  -53.4375 H         1 UNK         0.0600 
    217 H217       -7.0782  -23.8865  -55.3953 H         1 UNK         0.0600 
    218 H218       -6.1015  -25.2533  -55.9028 H         1 UNK         0.0600 
    219 H219       -5.3651  -23.6619  -55.7199 H         1 UNK         0.0600 
    220 H220       -4.5444  -24.3207  -51.6012 H         1 UNK         0.3000 
    221 H221       -4.0137  -22.7318  -50.1820 H         1 UNK         0.0600 
    222 H222       -6.7687  -21.5096  -50.7607 H         1 UNK         0.0600 
    223 H223       -6.4370  -22.7791  -49.5810 H         1 UNK         0.0600 
    224 H224       -5.7631  -21.1745  -49.3595 H         1 UNK         0.0600 
    225 H225       -3.0190  -22.4765  -52.7496 H         1 UNK         0.3000 
    226 H226       -1.7005  -21.2208  -53.9636 H         1 UNK         0.0600 
    227 H227       -0.9878  -20.0219  -51.8558 H         1 UNK         0.0600 
    228 H228       -0.8930  -19.0182  -53.2920 H         1 UNK         0.0600 
    229 H229       -2.2172  -18.7974  -52.1623 H         1 UNK         0.0600 
    230 H230       -4.7650  -21.2619  -54.1128 H         1 UNK         0.3000 
    231 H231       -6.3174  -20.9091  -55.5803 H         1 UNK         0.0600 
    232 H232       -4.2422  -19.5490  -57.3720 H         1 UNK         0.0600 
    233 H233       -5.8261  -20.1243  -57.8677 H         1 UNK         0.0600 
    234 H234       -4.6086  -21.2736  -57.3354 H         1 UNK         0.0600 
    235 H235       -4.4207  -17.9401  -55.1469 H         1 UNK         0.3000 
    236 H236       -6.3602  -16.0317  -55.8479 H         1 UNK         0.0600 
    237 H237       -3.9405  -15.5399  -55.6082 H         1 UNK         0.0600 
    238 H238       -4.8735  -14.4536  -54.5902 H         1 UNK         0.0600 
    239 H239       -4.0268  -15.8181  -53.8688 H         1 UNK         0.0600 
    240 H240       -6.0002  -17.7971  -52.8214 H         1 UNK         0.3000 
    241 H241       -7.9031  -16.1388  -51.3501 H         1 UNK         0.0600 
    242 H242       -8.5029  -18.4275  -53.8205 H         1 UNK         0.3800 
    243 H243      -10.0679  -18.9287  -53.2352 H         1 UNK         0.3800 
    244 H244       -7.5700  -17.7402  -49.5010 H         1 UNK         0.0800 
    245 H245       -6.6502  -18.7989  -50.5458 H         1 UNK         0.0800 
    246 H246       -4.9022  -18.9153  -48.8012 H         1 UNK         0.0800 
    247 H247       -5.3881  -17.6774  -47.6660 H         1 UNK         0.0800 
@<TRIPOS>BOND
     1    1    2 1    
     2    1  127 1    
     3    1  128 1    
     4    1  129 1    
     5    2    3 2    
     6    2    4 am   BACKBONE|DICT|INTERRES
     7    4    5 1    
     8    4  130 1    
     9    5    6 1    
    10    5   65 1    
    11    5  131 1    
    12    6    7 1    
    13    6  132 1    
    14    6  133 1    
    15    7    8 1    
    16    8    9 1    
    17    8  134 1    
    18    8  135 1    
    19    9   10 ar   
    20    9   14 ar   
    21   10   11 ar   
    22   10  136 1    
    23   11   12 ar   
    24   11  126 1    
    25   12   13 ar   
    26   12  137 1    
    27   13   14 ar   
    28   13   15 1    
    29   14  138 1    
    30   15   16 1    
    31   15  139 1    
    32   15  140 1    
    33   16   17 1    
    34   17   18 1    
    35   17  141 1    
    36   17  142 1    
    37   18   19 1    
    38   18   67 1    
    39   18  143 1    
    40   19   20 am   BACKBONE|DICT|INTERRES
    41   19  144 1    
    42   20   21 2    
    43   20   22 1    
    44   22   23 1    
    45   22   24 1    
    46   22  145 1    
    47   23  146 1    
    48   23  147 1    
    49   23  148 1    
    50   24   25 am   BACKBONE|DICT|INTERRES
    51   24  149 1    
    52   25   26 2    
    53   25   27 1    
    54   27   28 1    
    55   27   29 1    
    56   27  150 1    
    57   28  151 1    
    58   28  152 1    
    59   28  153 1    
    60   29   30 am   BACKBONE|DICT|INTERRES
    61   29  154 1    
    62   30   31 2    
    63   30   32 1    
    64   32   33 1    
    65   32   34 1    
    66   32  155 1    
    67   33  156 1    
    68   33  157 1    
    69   33  158 1    
    70   34   35 am   BACKBONE|DICT|INTERRES
    71   34  159 1    
    72   35   36 2    
    73   35   37 1    
    74   37   38 1    
    75   37   39 1    
    76   37  160 1    
    77   38  161 1    
    78   38  162 1    
    79   38  163 1    
    80   39   40 am   BACKBONE|DICT|INTERRES
    81   39  164 1    
    82   40   41 2    
    83   40   42 1    
    84   42   43 1    
    85   42   44 1    
    86   42  165 1    
    87   43  166 1    
    88   43  167 1    
    89   43  168 1    
    90   44   45 am   BACKBONE|DICT|INTERRES
    91   44  169 1    
    92   45   46 2    
    93   45   47 1    
    94   47   48 1    
    95   47   49 1    
    96   47  170 1    
    97   48  171 1    
    98   48  172 1    
    99   48  173 1    
   100   49   50 am   BACKBONE|DICT|INTERRES
   101   49  174 1    
   102   50   51 2    
   103   50   52 1    
   104   52   53 1    
   105   52   54 1    
   106   52  175 1    
   107   53  176 1    
   108   53  177 1    
   109   53  178 1    
   110   54   55 am   BACKBONE|DICT|INTERRES
   111   54  179 1    
   112   55   56 2    
   113   55   57 1    
   114   57   58 1    
   115   57   59 1    
   116   57  180 1    
   117   58  181 1    
   118   58  182 1    
   119   58  183 1    
   120   59   60 am   BACKBONE|DICT|INTERRES
   121   59  184 1    
   122   60   61 2    
   123   60   62 1    
   124   62   63 1    
   125   62   64 1    
   126   62  185 1    
   127   63  186 1    
   128   63  187 1    
   129   63  188 1    
   130   64   65 am   BACKBONE|DICT|INTERRES
   131   64  189 1    
   132   65   66 2    
   133   67   68 2    
   134   67   69 am   BACKBONE|DICT|INTERRES
   135   69   70 1    
   136   69  190 1    
   137   70   71 1    
   138   70   72 1    
   139   70  191 1    
   140   71  192 1    
   141   71  193 1    
   142   71  194 1    
   143   72   73 2    
   144   72   74 am   BACKBONE|DICT|INTERRES
   145   74   75 1    
   146   74  195 1    
   147   75   76 1    
   148   75   77 1    
   149   75  196 1    
   150   76  197 1    
   151   76  198 1    
   152   76  199 1    
   153   77   78 2    
   154   77   79 am   BACKBONE|DICT|INTERRES
   155   79   80 1    
   156   79  200 1    
   157   80   81 1    
   158   80   82 1    
   159   80  201 1    
   160   81  202 1    
   161   81  203 1    
   162   81  204 1    
   163   82   83 2    
   164   82   84 am   BACKBONE|DICT|INTERRES
   165   84   85 1    
   166   84  205 1    
   167   85   86 1    
   168   85   87 1    
   169   85  206 1    
   170   86  207 1    
   171   86  208 1    
   172   86  209 1    
   173   87   88 2    
   174   87   89 am   BACKBONE|DICT|INTERRES
   175   89   90 1    
   176   89  210 1    
   177   90   91 1    
   178   90   92 1    
   179   90  211 1    
   180   91  212 1    
   181   91  213 1    
   182   91  214 1    
   183   92   93 2    
   184   92   94 am   BACKBONE|DICT|INTERRES
   185   94   95 1    
   186   94  215 1    
   187   95   96 1    
   188   95   97 1    
   189   95  216 1    
   190   96  217 1    
   191   96  218 1    
   192   96  219 1    
   193   97   98 2    
   194   97   99 am   BACKBONE|DICT|INTERRES
   195   99  100 1    
   196   99  220 1    
   197  100  101 1    
   198  100  102 1    
   199  100  221 1    
   200  101  222 1    
   201  101  223 1    
   202  101  224 1    
   203  102  103 2    
   204  102  104 am   BACKBONE|DICT|INTERRES
   205  104  105 1    
   206  104  225 1    
   207  105  106 1    
   208  105  107 1    
   209  105  226 1    
   210  106  227 1    
   211  106  228 1    
   212  106  229 1    
   213  107  108 2    
   214  107  109 am   BACKBONE|DICT|INTERRES
   215  109  110 1    
   216  109  230 1    
   217  110  111 1    
   218  110  112 1    
   219  110  231 1    
   220  111  232 1    
   221  111  233 1    
   222  111  234 1    
   223  112  113 2    
   224  112  114 am   BACKBONE|DICT|INTERRES
   225  114  115 1    
   226  114  235 1    
   227  115  116 1    
   228  115  117 1    
   229  115  236 1    
   230  116  237 1    
   231  116  238 1    
   232  116  239 1    
   233  117  118 2    
   234  117  119 am   BACKBONE|DICT|INTERRES
   235  119  120 1    
   236  119  240 1    
   237  120  121 1    
   238  120  124 1    
   239  120  241 1    
   240  121  122 am   BACKBONE|DICT|INTERRES
   241  121  123 2    
   242  122  242 1    
   243  122  243 1    
   244  124  125 1    
   245  124  244 1    
   246  124  245 1    
   247  125  126 1    
   248  126  246 1    
   249  126  247 1    
@<TRIPOS>SUBSTRUCTURE
     1 UNK         1 GROUP             0       ****    0 ROOT    
