@<TRIPOS>MOLECULE
3R540
247   249    1
SMALL
USER_CHARGES


@<TRIPOS>ATOM
      1 CA         -0.9228  -10.5140  -49.4218 C.3       0 UNK        -0.1800 
      2 C           0.0664  -10.9299  -48.3438 C.2       0 UNK         0.5000 
      3 O           0.0078  -10.4175  -47.2267 O.2       0 UNK        -0.5000 
      4 N           0.9646  -11.8710  -48.6604 N.am      1 UNK        -0.5000 
      5 CA          1.9928  -12.3949  -47.7516 C.3       1 UNK         0.1400 
      6 C6          3.0331  -13.2800  -48.4862 C.3       23 UNK        -0.0398 
      7 S7          2.3112  -14.6321  -49.4796 S.3       23 UNK        -0.2404 
      8 C8          2.4807  -16.0277  -48.3218 C.3       23 UNK        -0.0205 
      9 C9          1.6878  -17.2465  -48.7678 C.ar      23 UNK        -0.0193 
     10 C10         0.3200  -17.1377  -49.0325 C.ar      23 UNK        -0.1150 
     11 C11        -0.4166  -18.2458  -49.4581 C.ar      23 UNK        -0.0193 
     12 C12         0.2165  -19.4874  -49.5640 C.ar      23 UNK        -0.1150 
     13 C13         1.5781  -19.6183  -49.2717 C.ar      23 UNK        -0.0193 
     14 C14         2.3119  -18.4904  -48.8916 C.ar      23 UNK        -0.1150 
     15 C15         2.2532  -20.9795  -49.3745 C.3       23 UNK        -0.0205 
     16 S16         3.0200  -21.5353  -47.8119 S.3       23 UNK        -0.2404 
     17 C17         1.6844  -21.3485  -46.5800 C.3       23 UNK        -0.0398 
     18 CA          0.8020  -22.6122  -46.4188 C.3       11 UNK         0.1400 
     19 N           0.2778  -22.7284  -45.0552 N.am      11 UNK        -0.5000 
     20 C          -0.2988  -23.8289  -44.5465 C.2       10 UNK         0.5000 
     21 O          -0.3852  -24.8945  -45.1543 O.2       10 UNK        -0.5000 
     22 CA         -0.9076  -23.7224  -43.1322 C.3       10 UNK         0.1400 
     23 CB          0.0991  -24.2119  -42.0805 C.3       10 UNK        -0.1800 
     24 N          -1.3428  -22.3714  -42.7758 N.am      10 UNK        -0.5000 
     25 C          -2.2428  -21.6334  -43.4418 C.2       9 UNK         0.5000 
     26 O          -2.8978  -22.0560  -44.3941 O.2       9 UNK        -0.5000 
     27 CA         -2.3805  -20.1553  -43.0206 C.3       9 UNK         0.1400 
     28 CB         -3.6219  -19.9639  -42.1376 C.3       9 UNK        -0.1800 
     29 N          -1.2035  -19.6213  -42.3215 N.am      9 UNK        -0.5000 
     30 C           0.0351  -19.5552  -42.8303 C.2       8 UNK         0.5000 
     31 O           0.3284  -19.9405  -43.9656 O.2       8 UNK        -0.5000 
     32 CA          1.1352  -19.0696  -41.8701 C.3       8 UNK         0.1400 
     33 CB          1.5372  -20.2022  -40.9109 C.3       8 UNK        -0.1800 
     34 N           2.3260  -18.6358  -42.5971 N.am      8 UNK        -0.5000 
     35 C           2.4477  -17.4536  -43.2069 C.2       7 UNK         0.5000 
     36 O           1.5944  -16.5616  -43.1633 O.2       7 UNK        -0.5000 
     37 CA          3.7410  -17.2353  -44.0037 C.3       7 UNK         0.1400 
     38 CB          3.6160  -17.8261  -45.4169 C.3       7 UNK        -0.1800 
     39 N           3.9713  -15.7987  -44.0800 N.am      7 UNK        -0.5000 
     40 C           5.1444  -15.1809  -43.9013 C.2       6 UNK         0.5000 
     41 O           6.2269  -15.7658  -43.8503 O.2       6 UNK        -0.5000 
     42 CA          5.0970  -13.6519  -43.7073 C.3       6 UNK         0.1400 
     43 CB          5.4448  -12.9182  -45.0102 C.3       6 UNK        -0.1800 
     44 N           3.7866  -13.1990  -43.2370 N.am      6 UNK        -0.5000 
     45 C           3.3484  -13.3119  -41.9754 C.2       5 UNK         0.5000 
     46 O           4.0471  -13.7297  -41.0501 O.2       5 UNK        -0.5000 
     47 CA          1.8791  -12.9156  -41.7203 C.3       5 UNK         0.1400 
     48 CB          1.5784  -12.6083  -40.2387 C.3       5 UNK        -0.1800 
     49 N           1.4170  -11.8297  -42.5893 N.am      5 UNK        -0.5000 
     50 C           1.8512  -10.5606  -42.6311 C.2       4 UNK         0.5000 
     51 O           2.7219  -10.1066  -41.8880 O.2       4 UNK        -0.5000 
     52 CA          1.2166   -9.6380  -43.6950 C.3       4 UNK         0.1400 
     53 CB          2.2357   -9.3214  -44.8010 C.3       4 UNK        -0.1800 
     54 N           0.0154  -10.2026  -44.3149 N.am      4 UNK        -0.5000 
     55 C          -1.1789  -10.3283  -43.7196 C.2       3 UNK         0.5000 
     56 O          -1.4369   -9.8871  -42.5994 O.2       3 UNK        -0.5000 
     57 CA         -2.2431  -11.1338  -44.4876 C.3       3 UNK         0.1400 
     58 CB         -3.0258  -10.2337  -45.4559 C.3       3 UNK        -0.1800 
     59 N          -1.6527  -12.2558  -45.2237 N.am      3 UNK        -0.5000 
     60 C          -1.1788  -13.3726  -44.6509 C.2       2 UNK         0.5000 
     61 O          -1.2344  -13.5926  -43.4417 O.2       2 UNK        -0.5000 
     62 CA         -0.4898  -14.3947  -45.5737 C.3       2 UNK         0.1400 
     63 CB         -1.5106  -15.3873  -46.1498 C.3       2 UNK        -0.1800 
     64 N           0.2447  -13.7528  -46.6653 N.am      2 UNK        -0.5000 
     65 C           1.4042  -13.0978  -46.5075 C.2       1 UNK         0.5000 
     66 O           1.9914  -13.0103  -45.4289 O.2       1 UNK        -0.5000 
     67 C          -0.3389  -22.6364  -47.4577 C.2       11 UNK         0.5000 
     68 O          -0.2201  -23.3062  -48.4828 O.2       11 UNK        -0.5000 
     69 N          -1.4377  -21.9290  -47.1582 N.am      12 UNK        -0.5000 
     70 CA         -2.6440  -21.8939  -47.9832 C.3       12 UNK         0.1400 
     71 CB         -3.5092  -20.6932  -47.5723 C.3       12 UNK        -0.1800 
     72 C          -3.4390  -23.2048  -47.8733 C.2       12 UNK         0.5000 
     73 O          -3.8937  -23.7278  -48.8851 O.2       12 UNK        -0.5000 
     74 N          -3.5594  -23.7393  -46.6513 N.am      13 UNK        -0.5000 
     75 CA         -4.2823  -24.9776  -46.3474 C.3       13 UNK         0.1400 
     76 CB         -4.4960  -25.0613  -44.8283 C.3       13 UNK        -0.1800 
     77 C          -3.6094  -26.2648  -46.8743 C.2       13 UNK         0.5000 
     78 O          -4.2139  -27.3340  -46.7809 O.2       13 UNK        -0.5000 
     79 N          -2.3813  -26.1571  -47.4015 N.am      14 UNK        -0.5000 
     80 CA         -1.5745  -27.2613  -47.9240 C.3       14 UNK         0.1400 
     81 CB         -0.1770  -26.7324  -48.2814 C.3       14 UNK        -0.1800 
     82 C          -2.1900  -27.9855  -49.1379 C.2       14 UNK         0.5000 
     83 O          -1.9162  -29.1720  -49.3266 O.2       14 UNK        -0.5000 
     84 N          -3.0005  -27.2790  -49.9348 N.am      15 UNK        -0.5000 
     85 CA         -3.6859  -27.8052  -51.1103 C.3       15 UNK         0.1400 
     86 CB         -2.7081  -27.8864  -52.2983 C.3       15 UNK        -0.1800 
     87 C          -4.8665  -26.8917  -51.4533 C.2       15 UNK         0.5000 
     88 O          -4.8301  -25.7021  -51.1358 O.2       15 UNK        -0.5000 
     89 N          -5.8671  -27.4389  -52.1552 N.am      16 UNK        -0.5000 
     90 CA         -7.0264  -26.6903  -52.6533 C.3       16 UNK         0.1400 
     91 CB         -8.0371  -27.6656  -53.2746 C.3       16 UNK        -0.1800 
     92 C          -6.6404  -25.5915  -53.6626 C.2       16 UNK         0.5000 
     93 O          -7.2473  -24.5212  -53.6603 O.2       16 UNK        -0.5000 
     94 N          -5.6039  -25.8588  -54.4701 N.am      17 UNK        -0.5000 
     95 CA         -5.0076  -24.9004  -55.3993 C.3       17 UNK         0.1400 
     96 CB         -4.0023  -25.6255  -56.3069 C.3       17 UNK        -0.1800 
     97 C          -4.3377  -23.7207  -54.6721 C.2       17 UNK         0.5000 
     98 O          -4.5453  -22.5761  -55.0694 O.2       17 UNK        -0.5000 
     99 N          -3.5902  -24.0206  -53.5986 N.am      18 UNK        -0.5000 
    100 CA        -2.9183  -23.0346  -52.7465 C.3       18 UNK         0.1400 
    101 CB        -1.9342  -23.7498  -51.8065 C.3       18 UNK        -0.1800 
    102 C         -3.9065  -22.1632  -51.9496 C.2       18 UNK         0.5000 
    103 O         -3.6254  -20.9888  -51.7097 O.2       18 UNK        -0.5000 
    104 N         -5.0524  -22.7464  -51.5744 N.am      19 UNK        -0.5000 
    105 CA        -6.1605  -22.0496  -50.9281 C.3       19 UNK         0.1400 
    106 CB        -7.1210  -23.0772  -50.3103 C.3       19 UNK        -0.1800 
    107 C         -6.9025  -21.1181  -51.9038 C.2       19 UNK         0.5000 
    108 O         -7.3092  -20.0262  -51.5049 O.2       19 UNK        -0.5000 
    109 N         -7.0605  -21.5593  -53.1605 N.am      20 UNK        -0.5000 
    110 CA        -7.6911  -20.7966  -54.2373 C.3       20 UNK         0.1400 
    111 CB        -8.0060  -21.7276  -55.4185 C.3       20 UNK        -0.1800 
    112 C         -6.8449  -19.5941  -54.6939 C.2       20 UNK         0.5000 
    113 O         -7.3994  -18.5122  -54.8941 O.2       20 UNK        -0.5000 
    114 N         -5.5282  -19.7898  -54.8354 N.am      21 UNK        -0.5000 
    115 CA        -4.5716  -18.7493  -55.1977 C.3       21 UNK         0.1400 
    116 CB        -4.5090  -18.5965  -56.7279 C.3       21 UNK        -0.1800 
    117 C         -3.1973  -19.1000  -54.6151 C.2       21 UNK         0.5000 
    118 O         -2.6951  -20.1975  -54.8590 O.2       21 UNK        -0.5000 
    119 N         -2.6121  -18.1599  -53.8664 N.am      22 UNK        -0.5000 
    120 CA        -1.2961  -18.2896  -53.2231 C.3       22 UNK         0.1400 
    121 C         -0.1324  -18.5114  -54.2311 C.2       22 UNK         0.5000 
    122 N          0.8510  -19.3305  -53.8832 N.am      22 UNK        -0.7600 
    123 O         -0.0892  -17.9096  -55.3022 O.2       22 UNK        -0.5000 
    124 C124       -0.9845  -17.0647  -52.3293 C.3       23 UNK        -0.0398 
    125 S125       -2.2261  -16.7667  -51.0207 S.3       23 UNK        -0.2404 
    126 C126       -1.8901  -18.1021  -49.8192 C.3       23 UNK        -0.0205 
    127 H127       -1.9432  -10.6896  -49.0813 H         1 UNK         0.0600 
    128 H128       -0.7713  -11.0700  -50.3473 H         1 UNK         0.0600 
    129 H129       -0.8132   -9.4517  -49.6397 H         1 UNK         0.0600 
    130 H130        0.9628  -12.2715  -49.5883 H         1 UNK         0.3000 
    131 H131        2.5359  -11.5275  -47.3711 H         1 UNK         0.0600 
    132 H132        3.6081  -12.6533  -49.1692 H         1 UNK         0.0800 
    133 H133        3.7661  -13.6900  -47.7910 H         1 UNK         0.0800 
    134 H134        3.5394  -16.2695  -48.2157 H         1 UNK         0.0800 
    135 H135        2.1274  -15.7364  -47.3339 H         1 UNK         0.0800 
    136 H136       -0.1672  -16.1775  -48.9408 H         1 UNK         0.1150 
    137 H137       -0.3507  -20.3532  -49.8761 H         1 UNK         0.1150 
    138 H138        3.3661  -18.5896  -48.6739 H         1 UNK         0.1150 
    139 H139        1.5472  -21.7386  -49.7125 H         1 UNK         0.0800 
    140 H140        3.0269  -20.9279  -50.1414 H         1 UNK         0.0800 
    141 H141        1.0906  -20.4531  -46.7703 H         1 UNK         0.0800 
    142 H142        2.1957  -21.1447  -45.6381 H         1 UNK         0.0800 
    143 H143        1.4242  -23.4931  -46.5928 H         1 UNK         0.0600 
    144 H144        0.2935  -21.8788  -44.5002 H         1 UNK         0.3000 
    145 H145       -1.7818  -24.3729  -43.0956 H         1 UNK         0.0600 
    146 H146       -0.3425  -24.2198  -41.0838 H         1 UNK         0.0600 
    147 H147        0.4262  -25.2298  -42.2971 H         1 UNK         0.0600 
    148 H148        0.9883  -23.5808  -42.0500 H         1 UNK         0.0600 
    149 H149       -0.8626  -21.9373  -42.0024 H         1 UNK         0.3000 
    150 H150       -2.5156  -19.5722  -43.9339 H         1 UNK         0.0600 
    151 H151       -3.5323  -20.5044  -41.1944 H         1 UNK         0.0600 
    152 H152       -4.5192  -20.3277  -42.6405 H         1 UNK         0.0600 
    153 H153       -3.7851  -18.9107  -41.9084 H         1 UNK         0.0600 
    154 H154       -1.3579  -19.3014  -41.3759 H         1 UNK         0.3000 
    155 H155        0.7468  -18.2327  -41.2855 H         1 UNK         0.0600 
    156 H156        1.9150  -21.0726  -41.4494 H         1 UNK         0.0600 
    157 H157        0.6894  -20.5311  -40.3086 H         1 UNK         0.0600 
    158 H158        2.3135  -19.8746  -40.2190 H         1 UNK         0.0600 
    159 H159        3.0514  -19.3272  -42.7170 H         1 UNK         0.3000 
    160 H160        4.5654  -17.7190  -43.4752 H         1 UNK         0.0600 
    161 H161        2.6982  -17.5003  -45.9046 H         1 UNK         0.0600 
    162 H162        3.5900  -18.9157  -45.3815 H         1 UNK         0.0600 
    163 H163        4.4584  -17.5405  -46.0469 H         1 UNK         0.0600 
    164 H164        3.1253  -15.2434  -44.0546 H         1 UNK         0.3000 
    165 H165        5.8489  -13.3891  -42.9602 H         1 UNK         0.0600 
    166 H166        6.4291  -13.2138  -45.3754 H         1 UNK         0.0600 
    167 H167        4.7233  -13.1359  -45.7953 H         1 UNK         0.0600 
    168 H168        5.4620  -11.8383  -44.8617 H         1 UNK         0.0600 
    169 H169        3.1297  -12.8985  -43.9538 H         1 UNK         0.3000 
    170 H170        1.2866  -13.7891  -41.9971 H         1 UNK         0.0600 
    171 H171        1.7747  -13.4789  -39.6119 H         1 UNK         0.0600 
    172 H172        2.1909  -11.7896  -39.8604 H         1 UNK         0.0600 
    173 H173        0.5317  -12.3385  -40.0978 H         1 UNK         0.0600 
    174 H174        0.7116  -12.0935  -43.2626 H         1 UNK         0.3000 
    175 H175        0.9426   -8.7037  -43.2009 H         1 UNK         0.0600 
    176 H176        1.8106   -8.6560  -45.5528 H         1 UNK         0.0600 
    177 H177        3.1180   -8.8283  -44.3912 H         1 UNK         0.0600 
    178 H178        2.5721  -10.2270  -45.3059 H         1 UNK         0.0600 
    179 H179        0.1077  -10.5170  -45.2766 H         1 UNK         0.3000 
    180 H180       -2.9483  -11.5359  -43.7570 H         1 UNK         0.0600 
    181 H181       -2.3790   -9.7888  -46.2123 H         1 UNK         0.0600 
    182 H182       -3.5104   -9.4167  -44.9200 H         1 UNK         0.0600 
    183 H183       -3.8075  -10.7933  -45.9699 H         1 UNK         0.0600 
    184 H184       -1.5244  -12.1266  -46.2164 H         1 UNK         0.3000 
    185 H185        0.2197  -14.9600  -44.9654 H         1 UNK         0.0600 
    186 H186       -2.1074  -15.8386  -45.3560 H         1 UNK         0.0600 
    187 H187       -2.1982  -14.9055  -46.8458 H         1 UNK         0.0600 
    188 H188       -1.0122  -16.2017  -46.6740 H         1 UNK         0.0600 
    189 H189       -0.1733  -13.7788  -47.5838 H         1 UNK         0.3000 
    190 H190       -1.4850  -21.4540  -46.2683 H         1 UNK         0.3000 
    191 H191       -2.3488  -21.7595  -49.0262 H         1 UNK         0.0600 
    192 H192       -2.9320  -19.7699  -47.5808 H         1 UNK         0.0600 
    193 H193       -4.3444  -20.5642  -48.2612 H         1 UNK         0.0600 
    194 H194       -3.9248  -20.8130  -46.5714 H         1 UNK         0.0600 
    195 H195       -3.1899  -23.2223  -45.8575 H         1 UNK         0.3000 
    196 H196       -5.2631  -24.9140  -46.8232 H         1 UNK         0.0600 
    197 H197       -5.1269  -25.9118  -44.5671 H         1 UNK         0.0600 
    198 H198       -4.9844  -24.1651  -44.4450 H         1 UNK         0.0600 
    199 H199       -3.5508  -25.1821  -44.3011 H         1 UNK         0.0600 
    200 H200       -1.9535  -25.2423  -47.4183 H         1 UNK         0.3000 
    201 H201       -1.4675  -27.9956  -47.1232 H         1 UNK         0.0600 
    202 H202        0.4714  -27.5399  -48.6240 H         1 UNK         0.0600 
    203 H203       -0.2228  -25.9886  -49.0779 H         1 UNK         0.0600 
    204 H204        0.3069  -26.2719  -47.4202 H         1 UNK         0.0600 
    205 H205       -3.2268  -26.3174  -49.7057 H         1 UNK         0.3000 
    206 H206       -4.0759  -28.7997  -50.8838 H         1 UNK         0.0600 
    207 H207       -1.8876  -28.5734  -52.0912 H         1 UNK         0.0600 
    208 H208       -3.2077  -28.2472  -53.1981 H         1 UNK         0.0600 
    209 H209       -2.2750  -26.9124  -52.5287 H         1 UNK         0.0600 
    210 H210       -5.8298  -28.4214  -52.3867 H         1 UNK         0.3000 
    211 H211       -7.5022  -26.2018  -51.8004 H         1 UNK         0.0600 
    212 H212       -7.6095  -28.2064  -54.1198 H         1 UNK         0.0600 
    213 H213       -8.9189  -27.1350  -53.6363 H         1 UNK         0.0600 
    214 H214       -8.3781  -28.3989  -52.5436 H         1 UNK         0.0600 
    215 H215       -5.1709  -26.7680  -54.4101 H         1 UNK         0.3000 
    216 H216       -5.8049  -24.4970  -56.0274 H         1 UNK         0.0600 
    217 H217       -3.5500  -24.9328  -57.0179 H         1 UNK         0.0600 
    218 H218       -4.4891  -26.4110  -56.8852 H         1 UNK         0.0600 
    219 H219       -3.1944  -26.0819  -55.7337 H         1 UNK         0.0600 
    220 H220       -3.5251  -24.9837  -53.3084 H         1 UNK         0.3000 
    221 H221       -2.3407  -22.3716  -53.3927 H         1 UNK         0.0600 
    222 H222       -2.4431  -24.4469  -51.1410 H         1 UNK         0.0600 
    223 H223       -1.1843  -24.3075  -52.3673 H         1 UNK         0.0600 
    224 H224       -1.4039  -23.0324  -51.1788 H         1 UNK         0.0600 
    225 H225       -5.1472  -23.7484  -51.6980 H         1 UNK         0.3000 
    226 H226       -5.7539  -21.4383  -50.1202 H         1 UNK         0.0600 
    227 H227       -7.9314  -22.5805  -49.7758 H         1 UNK         0.0600 
    228 H228       -7.5711  -23.7171  -51.0692 H         1 UNK         0.0600 
    229 H229       -6.6043  -23.7194  -49.5966 H         1 UNK         0.0600 
    230 H230       -6.7450  -22.4945  -53.3913 H         1 UNK         0.3000 
    231 H231       -8.6392  -20.4080  -53.8593 H         1 UNK         0.0600 
    232 H232       -7.1033  -22.1767  -55.8325 H         1 UNK         0.0600 
    233 H233       -8.5000  -21.1825  -56.2237 H         1 UNK         0.0600 
    234 H234       -8.6725  -22.5355  -55.1161 H         1 UNK         0.0600 
    235 H235       -5.1326  -20.7162  -54.6879 H         1 UNK         0.3000 
    236 H236       -4.8952  -17.7995  -54.7660 H         1 UNK         0.0600 
    237 H237       -5.4705  -18.2839  -57.1352 H         1 UNK         0.0600 
    238 H238       -3.7734  -17.8439  -57.0146 H         1 UNK         0.0600 
    239 H239       -4.2284  -19.5331  -57.2114 H         1 UNK         0.0600 
    240 H240       -3.0864  -17.2821  -53.7155 H         1 UNK         0.3000 
    241 H241       -1.3491  -19.1720  -52.5822 H         1 UNK         0.0600 
    242 H242        0.8467  -19.8215  -53.0034 H         1 UNK         0.3800 
    243 H243        1.6190  -19.4686  -54.5216 H         1 UNK         0.3800 
    244 H244       -0.9323  -16.1623  -52.9409 H         1 UNK         0.0800 
    245 H245        0.0013  -17.1598  -51.8720 H         1 UNK         0.0800 
    246 H246       -2.2837  -19.0377  -50.2197 H         1 UNK         0.0800 
    247 H247       -2.4545  -17.8930  -48.9104 H         1 UNK         0.0800 
@<TRIPOS>BOND
     1    1    2 1    
     2    1  127 1    
     3    1  128 1    
     4    1  129 1    
     5    2    3 2    
     6    2    4 am   BACKBONE|DICT|INTERRES
     7    4    5 1    
     8    4  130 1    
     9    5    6 1    
    10    5   65 1    
    11    5  131 1    
    12    6    7 1    
    13    6  132 1    
    14    6  133 1    
    15    7    8 1    
    16    8    9 1    
    17    8  134 1    
    18    8  135 1    
    19    9   10 ar   
    20    9   14 ar   
    21   10   11 ar   
    22   10  136 1    
    23   11   12 ar   
    24   11  126 1    
    25   12   13 ar   
    26   12  137 1    
    27   13   14 ar   
    28   13   15 1    
    29   14  138 1    
    30   15   16 1    
    31   15  139 1    
    32   15  140 1    
    33   16   17 1    
    34   17   18 1    
    35   17  141 1    
    36   17  142 1    
    37   18   19 1    
    38   18   67 1    
    39   18  143 1    
    40   19   20 am   BACKBONE|DICT|INTERRES
    41   19  144 1    
    42   20   21 2    
    43   20   22 1    
    44   22   23 1    
    45   22   24 1    
    46   22  145 1    
    47   23  146 1    
    48   23  147 1    
    49   23  148 1    
    50   24   25 am   BACKBONE|DICT|INTERRES
    51   24  149 1    
    52   25   26 2    
    53   25   27 1    
    54   27   28 1    
    55   27   29 1    
    56   27  150 1    
    57   28  151 1    
    58   28  152 1    
    59   28  153 1    
    60   29   30 am   BACKBONE|DICT|INTERRES
    61   29  154 1    
    62   30   31 2    
    63   30   32 1    
    64   32   33 1    
    65   32   34 1    
    66   32  155 1    
    67   33  156 1    
    68   33  157 1    
    69   33  158 1    
    70   34   35 am   BACKBONE|DICT|INTERRES
    71   34  159 1    
    72   35   36 2    
    73   35   37 1    
    74   37   38 1    
    75   37   39 1    
    76   37  160 1    
    77   38  161 1    
    78   38  162 1    
    79   38  163 1    
    80   39   40 am   BACKBONE|DICT|INTERRES
    81   39  164 1    
    82   40   41 2    
    83   40   42 1    
    84   42   43 1    
    85   42   44 1    
    86   42  165 1    
    87   43  166 1    
    88   43  167 1    
    89   43  168 1    
    90   44   45 am   BACKBONE|DICT|INTERRES
    91   44  169 1    
    92   45   46 2    
    93   45   47 1    
    94   47   48 1    
    95   47   49 1    
    96   47  170 1    
    97   48  171 1    
    98   48  172 1    
    99   48  173 1    
   100   49   50 am   BACKBONE|DICT|INTERRES
   101   49  174 1    
   102   50   51 2    
   103   50   52 1    
   104   52   53 1    
   105   52   54 1    
   106   52  175 1    
   107   53  176 1    
   108   53  177 1    
   109   53  178 1    
   110   54   55 am   BACKBONE|DICT|INTERRES
   111   54  179 1    
   112   55   56 2    
   113   55   57 1    
   114   57   58 1    
   115   57   59 1    
   116   57  180 1    
   117   58  181 1    
   118   58  182 1    
   119   58  183 1    
   120   59   60 am   BACKBONE|DICT|INTERRES
   121   59  184 1    
   122   60   61 2    
   123   60   62 1    
   124   62   63 1    
   125   62   64 1    
   126   62  185 1    
   127   63  186 1    
   128   63  187 1    
   129   63  188 1    
   130   64   65 am   BACKBONE|DICT|INTERRES
   131   64  189 1    
   132   65   66 2    
   133   67   68 2    
   134   67   69 am   BACKBONE|DICT|INTERRES
   135   69   70 1    
   136   69  190 1    
   137   70   71 1    
   138   70   72 1    
   139   70  191 1    
   140   71  192 1    
   141   71  193 1    
   142   71  194 1    
   143   72   73 2    
   144   72   74 am   BACKBONE|DICT|INTERRES
   145   74   75 1    
   146   74  195 1    
   147   75   76 1    
   148   75   77 1    
   149   75  196 1    
   150   76  197 1    
   151   76  198 1    
   152   76  199 1    
   153   77   78 2    
   154   77   79 am   BACKBONE|DICT|INTERRES
   155   79   80 1    
   156   79  200 1    
   157   80   81 1    
   158   80   82 1    
   159   80  201 1    
   160   81  202 1    
   161   81  203 1    
   162   81  204 1    
   163   82   83 2    
   164   82   84 am   BACKBONE|DICT|INTERRES
   165   84   85 1    
   166   84  205 1    
   167   85   86 1    
   168   85   87 1    
   169   85  206 1    
   170   86  207 1    
   171   86  208 1    
   172   86  209 1    
   173   87   88 2    
   174   87   89 am   BACKBONE|DICT|INTERRES
   175   89   90 1    
   176   89  210 1    
   177   90   91 1    
   178   90   92 1    
   179   90  211 1    
   180   91  212 1    
   181   91  213 1    
   182   91  214 1    
   183   92   93 2    
   184   92   94 am   BACKBONE|DICT|INTERRES
   185   94   95 1    
   186   94  215 1    
   187   95   96 1    
   188   95   97 1    
   189   95  216 1    
   190   96  217 1    
   191   96  218 1    
   192   96  219 1    
   193   97   98 2    
   194   97   99 am   BACKBONE|DICT|INTERRES
   195   99  100 1    
   196   99  220 1    
   197  100  101 1    
   198  100  102 1    
   199  100  221 1    
   200  101  222 1    
   201  101  223 1    
   202  101  224 1    
   203  102  103 2    
   204  102  104 am   BACKBONE|DICT|INTERRES
   205  104  105 1    
   206  104  225 1    
   207  105  106 1    
   208  105  107 1    
   209  105  226 1    
   210  106  227 1    
   211  106  228 1    
   212  106  229 1    
   213  107  108 2    
   214  107  109 am   BACKBONE|DICT|INTERRES
   215  109  110 1    
   216  109  230 1    
   217  110  111 1    
   218  110  112 1    
   219  110  231 1    
   220  111  232 1    
   221  111  233 1    
   222  111  234 1    
   223  112  113 2    
   224  112  114 am   BACKBONE|DICT|INTERRES
   225  114  115 1    
   226  114  235 1    
   227  115  116 1    
   228  115  117 1    
   229  115  236 1    
   230  116  237 1    
   231  116  238 1    
   232  116  239 1    
   233  117  118 2    
   234  117  119 am   BACKBONE|DICT|INTERRES
   235  119  120 1    
   236  119  240 1    
   237  120  121 1    
   238  120  124 1    
   239  120  241 1    
   240  121  122 am   BACKBONE|DICT|INTERRES
   241  121  123 2    
   242  122  242 1    
   243  122  243 1    
   244  124  125 1    
   245  124  244 1    
   246  124  245 1    
   247  125  126 1    
   248  126  246 1    
   249  126  247 1    
@<TRIPOS>SUBSTRUCTURE
     1 UNK         1 GROUP             0       ****    0 ROOT    
