@<TRIPOS>MOLECULE
3R540
247   249    1
SMALL
USER_CHARGES


@<TRIPOS>ATOM
      1 CA         -2.1002  -10.8158  -50.2868 C.3       0 UNK        -0.1800 
      2 C          -1.3396  -11.9198  -49.5655 C.2       0 UNK         0.5000 
      3 O          -0.5731  -12.6484  -50.1966 O.2       0 UNK        -0.5000 
      4 N          -1.5552  -12.0493  -48.2511 N.am      1 UNK        -0.5000 
      5 CA         -0.8917  -13.0297  -47.3857 C.3       1 UNK         0.1400 
      6 C6         -1.6346  -13.2155  -46.0375 C.3       23 UNK        -0.0398 
      7 S7         -3.3931  -13.6826  -46.2026 S.3       23 UNK        -0.2404 
      8 C8         -3.3542  -15.4928  -45.9885 C.3       23 UNK        -0.0205 
      9 C9         -3.1247  -16.2027  -47.3131 C.ar      23 UNK        -0.0193 
     10 C10        -4.2119  -16.5254  -48.1290 C.ar      23 UNK        -0.1150 
     11 C11        -4.0224  -17.1351  -49.3732 C.ar      23 UNK        -0.0193 
     12 C12        -2.7156  -17.4135  -49.7970 C.ar      23 UNK        -0.1150 
     13 C13        -1.6183  -17.0974  -48.9890 C.ar      23 UNK        -0.0193 
     14 C14        -1.8320  -16.5124  -47.7383 C.ar      23 UNK        -0.1150 
     15 C15        -0.1996  -17.3192  -49.4968 C.3       23 UNK        -0.0205 
     16 S16         0.3237  -19.0593  -49.4248 S.3       23 UNK        -0.2404 
     17 C17         0.4389  -19.3495  -47.6267 C.3       23 UNK        -0.0398 
     18 CA         -0.2107  -20.6814  -47.1886 C.3       11 UNK         0.1400 
     19 N           0.1536  -21.0353  -45.8170 N.am      11 UNK        -0.5000 
     20 C          -0.0937  -22.2183  -45.2388 C.2       10 UNK         0.5000 
     21 O          -0.6456  -23.1586  -45.8101 O.2       10 UNK        -0.5000 
     22 CA          0.3038  -22.3588  -43.7593 C.3       10 UNK         0.1400 
     23 CB          1.8167  -22.5828  -43.6191 C.3       10 UNK        -0.1800 
     24 N          -0.1030  -21.2050  -42.9560 N.am      10 UNK        -0.5000 
     25 C          -1.3768  -20.8332  -42.7612 C.2       9 UNK         0.5000 
     26 O          -2.3452  -21.4409  -43.2172 O.2       9 UNK        -0.5000 
     27 CA         -1.6104  -19.5428  -41.9574 C.3       9 UNK         0.1400 
     28 CB         -1.4324  -19.7965  -40.4531 C.3       9 UNK        -0.1800 
     29 N          -0.7387  -18.4471  -42.3795 N.am      9 UNK        -0.5000 
     30 C          -0.7375  -17.9038  -43.6050 C.2       8 UNK         0.5000 
     31 O          -1.4857  -18.2536  -44.5165 O.2       8 UNK        -0.5000 
     32 CA          0.3172  -16.8199  -43.8768 C.3       8 UNK         0.1400 
     33 CB         -0.0686  -15.4966  -43.2010 C.3       8 UNK        -0.1800 
     34 N           1.6537  -17.2219  -43.4440 N.am      8 UNK        -0.5000 
     35 C           2.3197  -18.2912  -43.9027 C.2       7 UNK         0.5000 
     36 O           1.8984  -19.0379  -44.7840 O.2       7 UNK        -0.5000 
     37 CA          3.6623  -18.6072  -43.2275 C.3       7 UNK         0.1400 
     38 CB          4.7809  -17.7241  -43.7992 C.3       7 UNK        -0.1800 
     39 N           3.5885  -18.4458  -41.7757 N.am      7 UNK        -0.5000 
     40 C           2.8688  -19.2354  -40.9648 C.2       6 UNK         0.5000 
     41 O           2.2162  -20.2052  -41.3515 O.2       6 UNK        -0.5000 
     42 CA          2.8402  -18.8446  -39.4769 C.3       6 UNK         0.1400 
     43 CB          4.1063  -19.3361  -38.7596 C.3       6 UNK        -0.1800 
     44 N           2.6992  -17.4007  -39.2842 N.am      6 UNK        -0.5000 
     45 C           1.6050  -16.7003  -39.6139 C.2       5 UNK         0.5000 
     46 O           0.5879  -17.2044  -40.0892 O.2       5 UNK        -0.5000 
     47 CA          1.6743  -15.1752  -39.4164 C.3       5 UNK         0.1400 
     48 CB          1.2900  -14.8002  -37.9774 C.3       5 UNK        -0.1800 
     49 N           2.9841  -14.5998  -39.7361 N.am      5 UNK        -0.5000 
     50 C           3.5574  -14.6343  -40.9459 C.2       4 UNK         0.5000 
     51 O           3.0790  -15.2234  -41.9177 O.2       4 UNK        -0.5000 
     52 CA          4.9083  -13.9188  -41.0892 C.3       4 UNK         0.1400 
     53 CB          6.0543  -14.9347  -41.2124 C.3       4 UNK        -0.1800 
     54 N           4.8868  -13.0654  -42.2740 N.am      4 UNK        -0.5000 
     55 C           4.4273  -11.8074  -42.2878 C.2       3 UNK         0.5000 
     56 O           4.0571  -11.2031  -41.2801 O.2       3 UNK        -0.5000 
     57 CA          4.3693  -11.1016  -43.6564 C.3       3 UNK         0.1400 
     58 CB          5.6935  -10.3777  -43.9451 C.3       3 UNK        -0.1800 
     59 N           4.0629  -12.0055  -44.7686 N.am      3 UNK        -0.5000 
     60 C           2.8708  -12.5841  -44.9644 C.2       2 UNK         0.5000 
     61 O           1.9080  -12.4409  -44.2070 O.2       2 UNK        -0.5000 
     62 CA          2.7511  -13.4861  -46.2110 C.3       2 UNK         0.1400 
     63 CB          3.3337  -14.8774  -45.9158 C.3       2 UNK        -0.1800 
     64 N           1.3663  -13.6468  -46.6612 N.am      2 UNK        -0.5000 
     65 C           0.5874  -12.6603  -47.1278 C.2       1 UNK         0.5000 
     66 O           0.9863  -11.5073  -47.3177 O.2       1 UNK        -0.5000 
     67 C          -1.7378  -20.6941  -47.3995 C.2       11 UNK         0.5000 
     68 O          -2.1931  -21.2542  -48.3958 O.2       11 UNK        -0.5000 
     69 N          -2.4993  -20.1398  -46.4455 N.am      12 UNK        -0.5000 
     70 CA         -3.9618  -20.1543  -46.4500 C.3       12 UNK         0.1400 
     71 CB         -4.4926  -19.2698  -45.3126 C.3       12 UNK        -0.1800 
     72 C          -4.5422  -21.5764  -46.3438 C.2       12 UNK         0.5000 
     73 O          -5.4712  -21.9042  -47.0817 O.2       12 UNK        -0.5000 
     74 N          -3.9704  -22.4016  -45.4541 N.am      13 UNK        -0.5000 
     75 CA         -4.3569  -23.7990  -45.2450 C.3       13 UNK         0.1400 
     76 CB         -3.6547  -24.3474  -43.9936 C.3       13 UNK        -0.1800 
     77 C          -4.0688  -24.6917  -46.4658 C.2       13 UNK         0.5000 
     78 O          -4.9060  -25.5208  -46.8237 O.2       13 UNK        -0.5000 
     79 N          -2.9044  -24.4901  -47.0968 N.am      14 UNK        -0.5000 
     80 CA         -2.4967  -25.1750  -48.3255 C.3       14 UNK         0.1400 
     81 CB         -0.9699  -25.0653  -48.4657 C.3       14 UNK        -0.1800 
     82 C          -3.1810  -24.6192  -49.5901 C.2       14 UNK         0.5000 
     83 O          -3.0903  -25.2468  -50.6457 O.2       14 UNK        -0.5000 
     84 N          -3.7936  -23.4323  -49.4803 N.am      15 UNK        -0.5000 
     85 CA         -4.3682  -22.6157  -50.5527 C.3       15 UNK         0.1400 
     86 CB         -5.6287  -23.2937  -51.1261 C.3       15 UNK        -0.1800 
     87 C          -3.3168  -22.2595  -51.6269 C.2       15 UNK         0.5000 
     88 O          -3.5846  -22.3830  -52.8204 O.2       15 UNK        -0.5000 
     89 N          -2.1137  -21.8856  -51.1644 N.am      16 UNK        -0.5000 
     90 CA         -0.8853  -21.6716  -51.9405 C.3       16 UNK         0.1400 
     91 CB         -0.9886  -20.3985  -52.8023 C.3       16 UNK        -0.1800 
     92 C          -0.4531  -22.9168  -52.7484 C.2       16 UNK         0.5000 
     93 O           0.0005  -22.7918  -53.8871 O.2       16 UNK        -0.5000 
     94 N          -0.5999  -24.0944  -52.1223 N.am      17 UNK        -0.5000 
     95 CA         -0.3524  -25.4349  -52.6641 C.3       17 UNK         0.1400 
     96 CB          1.1353  -25.6311  -53.0256 C.3       17 UNK        -0.1800 
     97 C          -1.3216  -25.7889  -53.8113 C.2       17 UNK         0.5000 
     98 O          -0.8949  -26.2785  -54.8593 O.2       17 UNK        -0.5000 
     99 N          -2.6169  -25.5449  -53.5655 N.am      18 UNK        -0.5000 
    100 CA        -3.7553  -25.7806  -54.4564 C.3       18 UNK         0.1400 
    101 CB        -4.0227  -27.2962  -54.5930 C.3       18 UNK        -0.1800 
    102 C         -3.6222  -25.0305  -55.8011 C.2       18 UNK         0.5000 
    103 O         -3.3881  -23.8209  -55.7890 O.2       18 UNK        -0.5000 
    104 N         -3.8081  -25.7362  -56.9280 N.am      19 UNK        -0.5000 
    105 CA        -3.7956  -25.2332  -58.3067 C.3       19 UNK         0.1400 
    106 CB        -2.3749  -24.7824  -58.7150 C.3       19 UNK        -0.1800 
    107 C         -4.8798  -24.1571  -58.5212 C.2       19 UNK         0.5000 
    108 O         -6.0513  -24.5065  -58.6724 O.2       19 UNK        -0.5000 
    109 N         -4.4837  -22.8775  -58.4917 N.am      20 UNK        -0.5000 
    110 CA        -5.3775  -21.7170  -58.5254 C.3       20 UNK         0.1400 
    111 CB        -4.5440  -20.4620  -58.8289 C.3       20 UNK        -0.1800 
    112 C         -6.1839  -21.5231  -57.2230 C.2       20 UNK         0.5000 
    113 O         -7.1746  -20.7911  -57.2347 O.2       20 UNK        -0.5000 
    114 N         -5.7407  -22.1614  -56.1280 N.am      21 UNK        -0.5000 
    115 CA        -6.3403  -22.1630  -54.7889 C.3       21 UNK         0.1400 
    116 CB        -7.7244  -22.8442  -54.8073 C.3       21 UNK        -0.1800 
    117 C         -6.3564  -20.7699  -54.1214 C.2       21 UNK         0.5000 
    118 O         -7.2488  -20.4864  -53.3216 O.2       21 UNK        -0.5000 
    119 N         -5.3741  -19.9343  -54.4893 N.am      22 UNK        -0.5000 
    120 CA        -5.1348  -18.5454  -54.0557 C.3       22 UNK         0.1400 
    121 C         -6.3219  -17.5414  -54.1928 C.2       22 UNK         0.5000 
    122 N         -7.3286  -17.8218  -55.0117 N.am      22 UNK        -0.7600 
    123 O         -6.3103  -16.4686  -53.5952 O.2       22 UNK        -0.5000 
    124 C124       -4.3324  -18.4403  -52.7273 C.3       23 UNK        -0.0398 
    125 S125       -5.1859  -18.9649  -51.1989 S.3       23 UNK        -0.2404 
    126 C126       -5.2467  -17.4083  -50.2496 C.3       23 UNK        -0.0205 
    127 H127       -1.4010  -10.1168  -50.7458 H         1 UNK         0.0600 
    128 H128       -2.7441  -10.2562  -49.6076 H         1 UNK         0.0600 
    129 H129       -2.7242  -11.2417  -51.0728 H         1 UNK         0.0600 
    130 H130       -2.1892  -11.4160  -47.7862 H         1 UNK         0.3000 
    131 H131       -0.8965  -13.9818  -47.9164 H         1 UNK         0.0600 
    132 H132       -1.1323  -13.9636  -45.4261 H         1 UNK         0.0800 
    133 H133       -1.5962  -12.2905  -45.4589 H         1 UNK         0.0800 
    134 H134       -2.5980  -15.7832  -45.2596 H         1 UNK         0.0800 
    135 H135       -4.3097  -15.8086  -45.5676 H         1 UNK         0.0800 
    136 H136       -5.2112  -16.2769  -47.8001 H         1 UNK         0.1150 
    137 H137       -2.5381  -17.8608  -50.7624 H         1 UNK         0.1150 
    138 H138       -0.9908  -16.2629  -47.1092 H         1 UNK         0.1150 
    139 H139       -0.1374  -16.9816  -50.5323 H         1 UNK         0.0800 
    140 H140        0.5113  -16.7071  -48.9395 H         1 UNK         0.0800 
    141 H141        0.0160  -18.5155  -47.0667 H         1 UNK         0.0800 
    142 H142        1.5016  -19.3629  -47.3822 H         1 UNK         0.0800 
    143 H143        0.2015  -21.4682  -47.8244 H         1 UNK         0.0600 
    144 H144        0.6414  -20.3188  -45.2841 H         1 UNK         0.3000 
    145 H145       -0.2072  -23.2380  -43.3616 H         1 UNK         0.0600 
    146 H146        2.0910  -22.7751  -42.5818 H         1 UNK         0.0600 
    147 H147        2.1410  -23.4427  -44.2064 H         1 UNK         0.0600 
    148 H148        2.3859  -21.7173  -43.9596 H         1 UNK         0.0600 
    149 H149        0.6409  -20.6680  -42.5212 H         1 UNK         0.3000 
    150 H150       -2.6421  -19.2291  -42.1291 H         1 UNK         0.0600 
    151 H151       -2.0751  -20.6100  -40.1143 H         1 UNK         0.0600 
    152 H152       -1.6935  -18.9120  -39.8719 H         1 UNK         0.0600 
    153 H153       -0.4039  -20.0643  -40.2084 H         1 UNK         0.0600 
    154 H154       -0.1076  -18.0743  -41.6754 H         1 UNK         0.3000 
    155 H155        0.3522  -16.6559  -44.9554 H         1 UNK         0.0600 
    156 H156       -1.0851  -15.2000  -43.4577 H         1 UNK         0.0600 
    157 H157        0.5991  -14.6908  -43.5044 H         1 UNK         0.0600 
    158 H158       -0.0241  -15.5714  -42.1159 H         1 UNK         0.0600 
    159 H159        2.1028  -16.6308  -42.7490 H         1 UNK         0.3000 
    160 H160        3.9094  -19.6494  -43.4407 H         1 UNK         0.0600 
    161 H161        4.5738  -16.6643  -43.6534 H         1 UNK         0.0600 
    162 H162        4.8929  -17.8874  -44.8717 H         1 UNK         0.0600 
    163 H163        5.7407  -17.9488  -43.3338 H         1 UNK         0.0600 
    164 H164        4.0494  -17.6391  -41.3833 H         1 UNK         0.3000 
    165 H165        1.9773  -19.3347  -39.0206 H         1 UNK         0.0600 
    166 H166        4.0576  -19.1313  -37.6900 H         1 UNK         0.0600 
    167 H167        4.2274  -20.4138  -38.8778 H         1 UNK         0.0600 
    168 H168        5.0054  -18.8595  -39.1523 H         1 UNK         0.0600 
    169 H169        3.4907  -16.9074  -38.8986 H         1 UNK         0.3000 
    170 H170        0.9434  -14.7228  -40.0892 H         1 UNK         0.0600 
    171 H171        0.3084  -15.1997  -37.7190 H         1 UNK         0.0600 
    172 H172        2.0051  -15.1921  -37.2531 H         1 UNK         0.0600 
    173 H173        1.2418  -13.7184  -37.8510 H         1 UNK         0.0600 
    174 H174        3.4469  -14.1004  -38.9902 H         1 UNK         0.3000 
    175 H175        5.0911  -13.3104  -40.2007 H         1 UNK         0.0600 
    176 H176        5.9593  -15.5499  -42.1064 H         1 UNK         0.0600 
    177 H177        7.0198  -14.4308  -41.2581 H         1 UNK         0.0600 
    178 H178        6.0788  -15.6047  -40.3520 H         1 UNK         0.0600 
    179 H179        5.1153  -13.5051  -43.1526 H         1 UNK         0.3000 
    180 H180        3.5783  -10.3502  -43.6042 H         1 UNK         0.0600 
    181 H181        6.5251  -11.0778  -44.0338 H         1 UNK         0.0600 
    182 H182        5.9381   -9.6776  -43.1451 H         1 UNK         0.0600 
    183 H183        5.6363   -9.8038  -44.8703 H         1 UNK         0.0600 
    184 H184        4.8064  -12.1713  -45.4316 H         1 UNK         0.3000 
    185 H185        3.3185  -13.0310  -47.0255 H         1 UNK         0.0600 
    186 H186        4.3910  -14.8148  -45.6558 H         1 UNK         0.0600 
    187 H187        2.8216  -15.3518  -45.0795 H         1 UNK         0.0600 
    188 H188        3.2522  -15.5371  -46.7799 H         1 UNK         0.0600 
    189 H189        0.9667  -14.5606  -46.5198 H         1 UNK         0.3000 
    190 H190       -2.0542  -19.6546  -45.6706 H         1 UNK         0.3000 
    191 H191       -4.2939  -19.7253  -47.3981 H         1 UNK         0.0600 
    192 H192       -4.1382  -18.2458  -45.4150 H         1 UNK         0.0600 
    193 H193       -5.5827  -19.2393  -45.3162 H         1 UNK         0.0600 
    194 H194       -4.1745  -19.6343  -44.3355 H         1 UNK         0.0600 
    195 H195       -3.2376  -22.0398  -44.8498 H         1 UNK         0.3000 
    196 H196       -5.4337  -23.8228  -45.0653 H         1 UNK         0.0600 
    197 H197       -3.9309  -25.3869  -43.8129 H         1 UNK         0.0600 
    198 H198       -3.9320  -23.7786  -43.1060 H         1 UNK         0.0600 
    199 H199       -2.5693  -24.3068  -44.0904 H         1 UNK         0.0600 
    200 H200       -2.2378  -23.8318  -46.7011 H         1 UNK         0.3000 
    201 H201       -2.7592  -26.2318  -48.2446 H         1 UNK         0.0600 
    202 H202       -0.4644  -25.4795  -47.5931 H         1 UNK         0.0600 
    203 H203       -0.6503  -24.0278  -48.5742 H         1 UNK         0.0600 
    204 H204       -0.6125  -25.6159  -49.3364 H         1 UNK         0.0600 
    205 H205       -3.7575  -22.9783  -48.5769 H         1 UNK         0.3000 
    206 H206       -4.6739  -21.6784  -50.0869 H         1 UNK         0.0600 
    207 H207       -6.3145  -23.5846  -50.3305 H         1 UNK         0.0600 
    208 H208       -6.1694  -22.6114  -51.7801 H         1 UNK         0.0600 
    209 H209       -5.3859  -24.1863  -51.7034 H         1 UNK         0.0600 
    210 H210       -2.0300  -21.7576  -50.1570 H         1 UNK         0.3000 
    211 H211       -0.0940  -21.5052  -51.2089 H         1 UNK         0.0600 
    212 H212       -1.7384  -20.5027  -53.5868 H         1 UNK         0.0600 
    213 H213       -0.0374  -20.1765  -53.2870 H         1 UNK         0.0600 
    214 H214       -1.2436  -19.5333  -52.1911 H         1 UNK         0.0600 
    215 H215       -1.0359  -24.0772  -51.2122 H         1 UNK         0.3000 
    216 H216       -0.5800  -26.1325  -51.8569 H         1 UNK         0.0600 
    217 H217        1.3354  -26.6694  -53.2927 H         1 UNK         0.0600 
    218 H218        1.7817  -25.3829  -52.1838 H         1 UNK         0.0600 
    219 H219        1.4357  -25.0152  -53.8734 H         1 UNK         0.0600 
    220 H220       -2.8509  -25.1485  -52.6610 H         1 UNK         0.3000 
    221 H221       -4.6192  -25.3398  -53.9571 H         1 UNK         0.0600 
    222 H222       -3.2091  -27.8123  -55.1041 H         1 UNK         0.0600 
    223 H223       -4.1393  -27.7583  -53.6125 H         1 UNK         0.0600 
    224 H224       -4.9439  -27.4894  -55.1442 H         1 UNK         0.0600 
    225 H225       -4.0203  -26.7191  -56.8319 H         1 UNK         0.3000 
    226 H226       -4.0669  -26.0734  -58.9476 H         1 UNK         0.0600 
    227 H227       -1.6753  -25.6165  -58.6600 H         1 UNK         0.0600 
    228 H228       -2.3601  -24.4180  -59.7430 H         1 UNK         0.0600 
    229 H229       -1.9851  -23.9894  -58.0763 H         1 UNK         0.0600 
    230 H230       -3.5054  -22.6888  -58.3258 H         1 UNK         0.3000 
    231 H231       -6.0947  -21.8580  -59.3367 H         1 UNK         0.0600 
    232 H232       -3.7987  -20.2767  -58.0544 H         1 UNK         0.0600 
    233 H233       -5.1781  -19.5766  -58.8929 H         1 UNK         0.0600 
    234 H234       -4.0228  -20.5555  -59.7818 H         1 UNK         0.0600 
    235 H235       -4.8829  -22.7029  -56.2067 H         1 UNK         0.3000 
    236 H236       -5.6906  -22.7886  -54.1793 H         1 UNK         0.0600 
    237 H237       -7.6747  -23.8240  -55.2823 H         1 UNK         0.0600 
    238 H238       -8.0987  -22.9950  -53.7941 H         1 UNK         0.0600 
    239 H239       -8.4633  -22.2476  -55.3429 H         1 UNK         0.0600 
    240 H240       -4.7073  -20.2951  -55.1554 H         1 UNK         0.3000 
    241 H241       -4.4466  -18.1774  -54.8174 H         1 UNK         0.0600 
    242 H242       -8.0859  -17.1644  -55.1108 H         1 UNK         0.3800 
    243 H243       -7.3541  -18.6985  -55.5110 H         1 UNK         0.3800 
    244 H244       -3.4415  -19.0576  -52.8130 H         1 UNK         0.0800 
    245 H245       -3.9612  -17.4217  -52.6068 H         1 UNK         0.0800 
    246 H246       -5.4002  -16.5654  -50.9243 H         1 UNK         0.0800 
    247 H247       -6.1386  -17.4553  -49.6230 H         1 UNK         0.0800 
@<TRIPOS>BOND
     1    1    2 1    
     2    1  127 1    
     3    1  128 1    
     4    1  129 1    
     5    2    3 2    
     6    2    4 am   BACKBONE|DICT|INTERRES
     7    4    5 1    
     8    4  130 1    
     9    5    6 1    
    10    5   65 1    
    11    5  131 1    
    12    6    7 1    
    13    6  132 1    
    14    6  133 1    
    15    7    8 1    
    16    8    9 1    
    17    8  134 1    
    18    8  135 1    
    19    9   10 ar   
    20    9   14 ar   
    21   10   11 ar   
    22   10  136 1    
    23   11   12 ar   
    24   11  126 1    
    25   12   13 ar   
    26   12  137 1    
    27   13   14 ar   
    28   13   15 1    
    29   14  138 1    
    30   15   16 1    
    31   15  139 1    
    32   15  140 1    
    33   16   17 1    
    34   17   18 1    
    35   17  141 1    
    36   17  142 1    
    37   18   19 1    
    38   18   67 1    
    39   18  143 1    
    40   19   20 am   BACKBONE|DICT|INTERRES
    41   19  144 1    
    42   20   21 2    
    43   20   22 1    
    44   22   23 1    
    45   22   24 1    
    46   22  145 1    
    47   23  146 1    
    48   23  147 1    
    49   23  148 1    
    50   24   25 am   BACKBONE|DICT|INTERRES
    51   24  149 1    
    52   25   26 2    
    53   25   27 1    
    54   27   28 1    
    55   27   29 1    
    56   27  150 1    
    57   28  151 1    
    58   28  152 1    
    59   28  153 1    
    60   29   30 am   BACKBONE|DICT|INTERRES
    61   29  154 1    
    62   30   31 2    
    63   30   32 1    
    64   32   33 1    
    65   32   34 1    
    66   32  155 1    
    67   33  156 1    
    68   33  157 1    
    69   33  158 1    
    70   34   35 am   BACKBONE|DICT|INTERRES
    71   34  159 1    
    72   35   36 2    
    73   35   37 1    
    74   37   38 1    
    75   37   39 1    
    76   37  160 1    
    77   38  161 1    
    78   38  162 1    
    79   38  163 1    
    80   39   40 am   BACKBONE|DICT|INTERRES
    81   39  164 1    
    82   40   41 2    
    83   40   42 1    
    84   42   43 1    
    85   42   44 1    
    86   42  165 1    
    87   43  166 1    
    88   43  167 1    
    89   43  168 1    
    90   44   45 am   BACKBONE|DICT|INTERRES
    91   44  169 1    
    92   45   46 2    
    93   45   47 1    
    94   47   48 1    
    95   47   49 1    
    96   47  170 1    
    97   48  171 1    
    98   48  172 1    
    99   48  173 1    
   100   49   50 am   BACKBONE|DICT|INTERRES
   101   49  174 1    
   102   50   51 2    
   103   50   52 1    
   104   52   53 1    
   105   52   54 1    
   106   52  175 1    
   107   53  176 1    
   108   53  177 1    
   109   53  178 1    
   110   54   55 am   BACKBONE|DICT|INTERRES
   111   54  179 1    
   112   55   56 2    
   113   55   57 1    
   114   57   58 1    
   115   57   59 1    
   116   57  180 1    
   117   58  181 1    
   118   58  182 1    
   119   58  183 1    
   120   59   60 am   BACKBONE|DICT|INTERRES
   121   59  184 1    
   122   60   61 2    
   123   60   62 1    
   124   62   63 1    
   125   62   64 1    
   126   62  185 1    
   127   63  186 1    
   128   63  187 1    
   129   63  188 1    
   130   64   65 am   BACKBONE|DICT|INTERRES
   131   64  189 1    
   132   65   66 2    
   133   67   68 2    
   134   67   69 am   BACKBONE|DICT|INTERRES
   135   69   70 1    
   136   69  190 1    
   137   70   71 1    
   138   70   72 1    
   139   70  191 1    
   140   71  192 1    
   141   71  193 1    
   142   71  194 1    
   143   72   73 2    
   144   72   74 am   BACKBONE|DICT|INTERRES
   145   74   75 1    
   146   74  195 1    
   147   75   76 1    
   148   75   77 1    
   149   75  196 1    
   150   76  197 1    
   151   76  198 1    
   152   76  199 1    
   153   77   78 2    
   154   77   79 am   BACKBONE|DICT|INTERRES
   155   79   80 1    
   156   79  200 1    
   157   80   81 1    
   158   80   82 1    
   159   80  201 1    
   160   81  202 1    
   161   81  203 1    
   162   81  204 1    
   163   82   83 2    
   164   82   84 am   BACKBONE|DICT|INTERRES
   165   84   85 1    
   166   84  205 1    
   167   85   86 1    
   168   85   87 1    
   169   85  206 1    
   170   86  207 1    
   171   86  208 1    
   172   86  209 1    
   173   87   88 2    
   174   87   89 am   BACKBONE|DICT|INTERRES
   175   89   90 1    
   176   89  210 1    
   177   90   91 1    
   178   90   92 1    
   179   90  211 1    
   180   91  212 1    
   181   91  213 1    
   182   91  214 1    
   183   92   93 2    
   184   92   94 am   BACKBONE|DICT|INTERRES
   185   94   95 1    
   186   94  215 1    
   187   95   96 1    
   188   95   97 1    
   189   95  216 1    
   190   96  217 1    
   191   96  218 1    
   192   96  219 1    
   193   97   98 2    
   194   97   99 am   BACKBONE|DICT|INTERRES
   195   99  100 1    
   196   99  220 1    
   197  100  101 1    
   198  100  102 1    
   199  100  221 1    
   200  101  222 1    
   201  101  223 1    
   202  101  224 1    
   203  102  103 2    
   204  102  104 am   BACKBONE|DICT|INTERRES
   205  104  105 1    
   206  104  225 1    
   207  105  106 1    
   208  105  107 1    
   209  105  226 1    
   210  106  227 1    
   211  106  228 1    
   212  106  229 1    
   213  107  108 2    
   214  107  109 am   BACKBONE|DICT|INTERRES
   215  109  110 1    
   216  109  230 1    
   217  110  111 1    
   218  110  112 1    
   219  110  231 1    
   220  111  232 1    
   221  111  233 1    
   222  111  234 1    
   223  112  113 2    
   224  112  114 am   BACKBONE|DICT|INTERRES
   225  114  115 1    
   226  114  235 1    
   227  115  116 1    
   228  115  117 1    
   229  115  236 1    
   230  116  237 1    
   231  116  238 1    
   232  116  239 1    
   233  117  118 2    
   234  117  119 am   BACKBONE|DICT|INTERRES
   235  119  120 1    
   236  119  240 1    
   237  120  121 1    
   238  120  124 1    
   239  120  241 1    
   240  121  122 am   BACKBONE|DICT|INTERRES
   241  121  123 2    
   242  122  242 1    
   243  122  243 1    
   244  124  125 1    
   245  124  244 1    
   246  124  245 1    
   247  125  126 1    
   248  126  246 1    
   249  126  247 1    
@<TRIPOS>SUBSTRUCTURE
     1 UNK         1 GROUP             0       ****    0 ROOT    
