@<TRIPOS>MOLECULE
3R540
247   249    1
SMALL
USER_CHARGES


@<TRIPOS>ATOM
      1 CA          1.2144  -11.4044  -52.0547 C.3       0 UNK        -0.1800 
      2 C           1.5292  -12.5042  -51.0502 C.2       0 UNK         0.5000 
      3 O           2.4071  -13.3301  -51.3025 O.2       0 UNK        -0.5000 
      4 N           0.8113  -12.5203  -49.9206 N.am      1 UNK        -0.5000 
      5 CA          0.9841  -13.4839  -48.8279 C.3       1 UNK         0.1400 
      6 C6         -0.2477  -13.5231  -47.8850 C.3       23 UNK        -0.0398 
      7 S7         -1.8300  -13.8148  -48.7556 S.3       23 UNK        -0.2404 
      8 C8         -2.0472  -15.6188  -48.6076 C.3       23 UNK        -0.0205 
      9 C9         -1.0186  -16.3755  -49.4320 C.ar      23 UNK        -0.0193 
     10 C10        -1.1752  -16.5006  -50.8145 C.ar      23 UNK        -0.1150 
     11 C11        -0.2113  -17.1615  -51.5825 C.ar      23 UNK        -0.0193 
     12 C12         0.9233  -17.6864  -50.9561 C.ar      23 UNK        -0.1150 
     13 C13         1.0885  -17.5719  -49.5738 C.ar      23 UNK        -0.0193 
     14 C14         0.1064  -16.9263  -48.8168 C.ar      23 UNK        -0.1150 
     15 C15         2.3585  -18.0798  -48.9102 C.3       23 UNK        -0.0205 
     16 S16         2.0221  -19.1623  -47.4894 S.3       23 UNK        -0.2404 
     17 C17         1.9351  -20.8025  -48.2777 C.3       23 UNK        -0.0398 
     18 CA          1.0857  -21.8556  -47.5168 C.3       11 UNK         0.1400 
     19 N           1.1849  -21.7681  -46.0545 N.am      11 UNK        -0.5000 
     20 C           0.9184  -22.7871  -45.2268 C.2       10 UNK         0.5000 
     21 O           0.5921  -23.9085  -45.6150 O.2       10 UNK        -0.5000 
     22 CA          0.9829  -22.4992  -43.7170 C.3       10 UNK         0.1400 
     23 CB          2.4359  -22.4213  -43.2250 C.3       10 UNK        -0.1800 
     24 N           0.2620  -21.2806  -43.3485 N.am      10 UNK        -0.5000 
     25 C          -1.0691  -21.1445  -43.4347 C.2       9 UNK         0.5000 
     26 O          -1.8162  -22.0265  -43.8524 O.2       9 UNK        -0.5000 
     27 CA         -1.6791  -19.7998  -43.0035 C.3       9 UNK         0.1400 
     28 CB         -2.0082  -19.8215  -41.5036 C.3       9 UNK        -0.1800 
     29 N          -0.8281  -18.6511  -43.3062 N.am      9 UNK        -0.5000 
     30 C          -0.4633  -18.2772  -44.5404 C.2       8 UNK         0.5000 
     31 O          -0.8375  -18.8468  -45.5655 O.2       8 UNK        -0.5000 
     32 CA          0.5171  -17.0945  -44.6400 C.3       8 UNK         0.1400 
     33 CB         -0.2308  -15.7557  -44.5686 C.3       8 UNK        -0.1800 
     34 N           1.5589  -17.1223  -43.6143 N.am      8 UNK        -0.5000 
     35 C           2.4623  -18.1018  -43.4611 C.2       7 UNK         0.5000 
     36 O           2.5223  -19.1033  -44.1721 O.2       7 UNK        -0.5000 
     37 CA          3.4307  -17.9577  -42.2779 C.3       7 UNK         0.1400 
     38 CB          4.5234  -16.9208  -42.5799 C.3       7 UNK        -0.1800 
     39 N           2.7179  -17.5906  -41.0557 N.am      7 UNK        -0.5000 
     40 C           1.9266  -18.4268  -40.3686 C.2       6 UNK         0.5000 
     41 O           1.7626  -19.6116  -40.6613 O.2       6 UNK        -0.5000 
     42 CA          1.1713  -17.8303  -39.1664 C.3       6 UNK         0.1400 
     43 CB          2.0403  -17.8847  -37.9009 C.3       6 UNK        -0.1800 
     44 N           0.7354  -16.4510  -39.3941 N.am      6 UNK        -0.5000 
     45 C          -0.1969  -16.0909  -40.2873 C.2       5 UNK         0.5000 
     46 O          -0.7921  -16.8848  -41.0130 O.2       5 UNK        -0.5000 
     47 CA         -0.4759  -14.5843  -40.4270 C.3       5 UNK         0.1400 
     48 CB         -1.4693  -14.1149  -39.3538 C.3       5 UNK        -0.1800 
     49 N           0.7356  -13.7629  -40.3650 N.am      5 UNK        -0.5000 
     50 C           1.7491  -13.8412  -41.2363 C.2       4 UNK         0.5000 
     51 O           1.8028  -14.6613  -42.1557 O.2       4 UNK        -0.5000 
     52 CA          2.9175  -12.8694  -41.0198 C.3       4 UNK         0.1400 
     53 CB          4.0807  -13.5753  -40.3070 C.3       4 UNK        -0.1800 
     54 N           3.3858  -12.3489  -42.2995 N.am      4 UNK        -0.5000 
     55 C           2.7742  -11.3967  -43.0103 C.2       3 UNK         0.5000 
     56 O           1.7697  -10.7970  -42.6242 O.2       3 UNK        -0.5000 
     57 CA          3.3890  -11.0410  -44.3774 C.3       3 UNK         0.1400 
     58 CB          4.7742  -10.3841  -44.2182 C.3       3 UNK        -0.1800 
     59 N           3.4337  -12.1485  -45.3403 N.am      3 UNK        -0.5000 
     60 C           4.1067  -13.3051  -45.2872 C.2       2 UNK         0.5000 
     61 O           4.8078  -13.6345  -44.3287 O.2       2 UNK        -0.5000 
     62 CA          4.0115  -14.2406  -46.5208 C.3       2 UNK         0.1400 
     63 CB          4.3243  -15.7046  -46.1588 C.3       2 UNK        -0.1800 
     64 N           2.7434  -14.2107  -47.2677 N.am      2 UNK        -0.5000 
     65 C           2.2823  -13.2105  -48.0330 C.2       1 UNK         0.5000 
     66 O           2.8265  -12.1054  -48.0985 O.2       1 UNK        -0.5000 
     67 C          -0.3762  -21.9347  -48.0059 C.2       11 UNK         0.5000 
     68 O          -0.6360  -22.6349  -48.9857 O.2       11 UNK        -0.5000 
     69 N          -1.3168  -21.2963  -47.2934 N.am      12 UNK        -0.5000 
     70 CA         -2.7542  -21.4482  -47.5362 C.3       12 UNK         0.1400 
     71 CB         -3.5374  -20.4125  -46.7178 C.3       12 UNK        -0.1800 
     72 C          -3.2509  -22.8782  -47.2403 C.2       12 UNK         0.5000 
     73 O          -4.0008  -23.4398  -48.0389 O.2       12 UNK        -0.5000 
     74 N          -2.7909  -23.4665  -46.1263 N.am      13 UNK        -0.5000 
     75 CA         -3.0720  -24.8520  -45.7437 C.3       13 UNK         0.1400 
     76 CB         -2.6126  -25.0985  -44.2990 C.3       13 UNK        -0.1800 
     77 C          -2.4381  -25.8816  -46.6965 C.2       13 UNK         0.5000 
     78 O          -3.0368  -26.9318  -46.9258 O.2       13 UNK        -0.5000 
     79 N          -1.2594  -25.5609  -47.2497 N.am      14 UNK        -0.5000 
     80 CA         -0.5826  -26.3609  -48.2718 C.3       14 UNK         0.1400 
     81 CB          0.8584  -25.8630  -48.4572 C.3       14 UNK        -0.1800 
     82 C          -1.3392  -26.3638  -49.6138 C.2       14 UNK         0.5000 
     83 O          -1.4044  -27.4076  -50.2646 O.2       14 UNK        -0.5000 
     84 N          -1.9148  -25.2121  -49.9926 N.am      15 UNK        -0.5000 
     85 CA         -2.8012  -25.0775  -51.1512 C.3       15 UNK         0.1400 
     86 CB         -3.0156  -23.5906  -51.4731 C.3       15 UNK        -0.1800 
     87 C          -4.1460  -25.7994  -50.9363 C.2       15 UNK         0.5000 
     88 O          -4.6270  -26.4686  -51.8511 O.2       15 UNK        -0.5000 
     89 N          -4.7003  -25.6704  -49.7202 N.am      16 UNK        -0.5000 
     90 CA         -5.8976  -26.3418  -49.1943 C.3       16 UNK         0.1400 
     91 CB         -5.6861  -27.8697  -49.1423 C.3       16 UNK        -0.1800 
     92 C          -7.2133  -25.9624  -49.9096 C.2       16 UNK         0.5000 
     93 O          -8.2102  -26.6750  -49.7783 O.2       16 UNK        -0.5000 
     94 N          -7.2025  -24.8445  -50.6395 N.am      17 UNK        -0.5000 
     95 CA         -8.2873  -24.3059  -51.4506 C.3       17 UNK         0.1400 
     96 CB         -8.5212  -25.2012  -52.6864 C.3       17 UNK        -0.1800 
     97 C          -7.8911  -22.8833  -51.8727 C.2       17 UNK         0.5000 
     98 O          -6.7699  -22.4534  -51.5927 O.2       17 UNK        -0.5000 
     99 N          -8.7947  -22.1909  -52.5763 N.am      18 UNK        -0.5000 
    100 CA        -8.5538  -20.8771  -53.1877 C.3       18 UNK         0.1400 
    101 CB        -9.9028  -20.1542  -53.3360 C.3       18 UNK        -0.1800 
    102 C         -7.8231  -20.9602  -54.5486 C.2       18 UNK         0.5000 
    103 O         -7.5778  -19.9242  -55.1699 O.2       18 UNK        -0.5000 
    104 N         -7.5128  -22.1842  -55.0011 N.am      19 UNK        -0.5000 
    105 CA        -6.8147  -22.5002  -56.2467 C.3       19 UNK         0.1400 
    106 CB        -6.7018  -24.0271  -56.3725 C.3       19 UNK        -0.1800 
    107 C         -5.4204  -21.8521  -56.3318 C.2       19 UNK         0.5000 
    108 O         -4.7165  -21.7747  -55.3215 O.2       19 UNK        -0.5000 
    109 N         -5.0597  -21.3955  -57.5404 N.am      20 UNK        -0.5000 
    110 CA        -3.8083  -20.7041  -57.8844 C.3       20 UNK         0.1400 
    111 CB        -2.6128  -21.6756  -57.7905 C.3       20 UNK        -0.1800 
    112 C         -3.5822  -19.4049  -57.0776 C.2       20 UNK         0.5000 
    113 O         -2.4377  -19.0381  -56.8108 O.2       20 UNK        -0.5000 
    114 N         -4.6849  -18.7594  -56.6678 N.am      21 UNK        -0.5000 
    115 CA        -4.8094  -17.5857  -55.7926 C.3       21 UNK         0.1400 
    116 CB        -4.0578  -16.3666  -56.3615 C.3       21 UNK        -0.1800 
    117 C         -4.4285  -17.8384  -54.3187 C.2       21 UNK         0.5000 
    118 O         -5.0320  -17.2269  -53.4360 O.2       21 UNK        -0.5000 
    119 N         -3.4513  -18.7168  -54.0691 N.am      22 UNK        -0.5000 
    120 CA        -3.0016  -19.1205  -52.7295 C.3       22 UNK         0.1400 
    121 C         -4.0322  -19.9837  -51.9542 C.2       22 UNK         0.5000 
    122 N         -4.8163  -20.8129  -52.6281 N.am      22 UNK        -0.7600 
    123 O         -4.1188  -19.8959  -50.7331 O.2       22 UNK        -0.5000 
    124 C124       -1.6290  -19.8415  -52.7616 C.3       23 UNK        -0.0398 
    125 S125       -0.3048  -18.9934  -53.6962 S.3       23 UNK        -0.2404 
    126 C126       -0.3813  -17.2733  -53.0920 C.3       23 UNK        -0.0205 
    127 H127        2.0977  -10.7894  -52.2264 H         1 UNK         0.0600 
    128 H128        0.4103  -10.7553  -51.7069 H         1 UNK         0.0600 
    129 H129        0.9109  -11.8411  -53.0062 H         1 UNK         0.0600 
    130 H130        0.1100  -11.8104  -49.7679 H         1 UNK         0.3000 
    131 H131        1.0981  -14.4657  -49.2875 H         1 UNK         0.0600 
    132 H132       -0.1244  -14.2915  -47.1223 H         1 UNK         0.0800 
    133 H133       -0.3397  -12.5786  -47.3457 H         1 UNK         0.0800 
    134 H134       -2.0010  -15.9149  -47.5589 H         1 UNK         0.0800 
    135 H135       -3.0482  -15.8824  -48.9522 H         1 UNK         0.0800 
    136 H136       -2.0430  -16.0669  -51.2915 H         1 UNK         0.1150 
    137 H137        1.6821  -18.1746  -51.5515 H         1 UNK         0.1150 
    138 H138        0.2308  -16.8283  -47.7492 H         1 UNK         0.1150 
    139 H139        3.0004  -18.5998  -49.6230 H         1 UNK         0.0800 
    140 H140        2.9257  -17.2163  -48.5665 H         1 UNK         0.0800 
    141 H141        2.9616  -21.1644  -48.3481 H         1 UNK         0.0800 
    142 H142        1.5961  -20.6959  -49.3103 H         1 UNK         0.0800 
    143 H143        1.5197  -22.8193  -47.7909 H         1 UNK         0.0600 
    144 H144        1.4342  -20.8638  -45.6723 H         1 UNK         0.3000 
    145 H145        0.5034  -23.3343  -43.2016 H         1 UNK         0.0600 
    146 H146        2.4801  -22.2307  -42.1524 H         1 UNK         0.0600 
    147 H147        2.9583  -23.3603  -43.4114 H         1 UNK         0.0600 
    148 H148        2.9955  -21.6331  -43.7280 H         1 UNK         0.0600 
    149 H149        0.8161  -20.4994  -43.0237 H         1 UNK         0.3000 
    150 H150       -2.6142  -19.6710  -43.5512 H         1 UNK         0.0600 
    151 H151       -2.6257  -20.6841  -41.2497 H         1 UNK         0.0600 
    152 H152       -2.5630  -18.9306  -41.2094 H         1 UNK         0.0600 
    153 H153       -1.1048  -19.8718  -40.8948 H         1 UNK         0.0600 
    154 H154       -0.5342  -18.0857  -42.5148 H         1 UNK         0.3000 
    155 H155        1.0151  -17.1547  -45.6073 H         1 UNK         0.0600 
    156 H156       -0.7051  -15.6148  -43.5973 H         1 UNK         0.0600 
    157 H157        0.4458  -14.9166  -44.7329 H         1 UNK         0.0600 
    158 H158       -1.0144  -15.7028  -45.3244 H         1 UNK         0.0600 
    159 H159        1.6019  -16.3169  -42.9939 H         1 UNK         0.3000 
    160 H160        3.9162  -18.9230  -42.1183 H         1 UNK         0.0600 
    161 H161        4.1053  -15.9359  -42.7888 H         1 UNK         0.0600 
    162 H162        5.1062  -17.2171  -43.4527 H         1 UNK         0.0600 
    163 H163        5.2171  -16.8220  -41.7451 H         1 UNK         0.0600 
    164 H164        2.7555  -16.6211  -40.7794 H         1 UNK         0.3000 
    165 H165        0.2828  -18.4427  -38.9971 H         1 UNK         0.0600 
    166 H166        1.4873  -17.5383  -37.0277 H         1 UNK         0.0600 
    167 H167        2.3650  -18.9055  -37.6946 H         1 UNK         0.0600 
    168 H168        2.9352  -17.2688  -37.9988 H         1 UNK         0.0600 
    169 H169        1.1789  -15.7320  -38.8420 H         1 UNK         0.3000 
    170 H170       -0.9338  -14.4245  -41.4052 H         1 UNK         0.0600 
    171 H171       -2.3885  -14.7013  -39.3901 H         1 UNK         0.0600 
    172 H172       -1.0562  -14.2139  -38.3493 H         1 UNK         0.0600 
    173 H173       -1.7461  -13.0710  -39.5022 H         1 UNK         0.0600 
    174 H174        0.7711  -13.0694  -39.6318 H         1 UNK         0.3000 
    175 H175        2.5838  -12.0354  -40.3988 H         1 UNK         0.0600 
    176 H176        4.4765  -14.4006  -40.8990 H         1 UNK         0.0600 
    177 H177        4.8999  -12.8826  -40.1134 H         1 UNK         0.0600 
    178 H178        3.7642  -13.9809  -39.3453 H         1 UNK         0.0600 
    179 H179        4.1282  -12.8648  -42.7649 H         1 UNK         0.3000 
    180 H180        2.7319  -10.2947  -44.8266 H         1 UNK         0.0600 
    181 H181        5.5089  -11.0695  -43.7952 H         1 UNK         0.0600 
    182 H182        4.7199   -9.5177  -43.5579 H         1 UNK         0.0600 
    183 H183        5.1561  -10.0368  -45.1782 H         1 UNK         0.0600 
    184 H184        2.9486  -11.9707  -46.2146 H         1 UNK         0.3000 
    185 H185        4.7947  -13.9035  -47.2027 H         1 UNK         0.0600 
    186 H186        5.2778  -15.7948  -45.6371 H         1 UNK         0.0600 
    187 H187        3.5547  -16.1297  -45.5150 H         1 UNK         0.0600 
    188 H188        4.4007  -16.3256  -47.0498 H         1 UNK         0.0600 
    189 H189        2.2191  -15.0716  -47.2439 H         1 UNK         0.3000 
    190 H190       -1.0388  -20.6829  -46.5345 H         1 UNK         0.3000 
    191 H191       -2.9375  -21.2473  -48.5939 H         1 UNK         0.0600 
    192 H192       -3.3935  -20.5524  -45.6470 H         1 UNK         0.0600 
    193 H193       -4.6067  -20.4865  -46.9192 H         1 UNK         0.0600 
    194 H194       -3.2286  -19.3977  -46.9696 H         1 UNK         0.0600 
    195 H195       -2.2275  -22.9262  -45.4749 H         1 UNK         0.3000 
    196 H196       -4.1540  -24.9948  -45.7815 H         1 UNK         0.0600 
    197 H197       -2.8144  -26.1259  -43.9935 H         1 UNK         0.0600 
    198 H198       -3.1372  -24.4446  -43.6025 H         1 UNK         0.0600 
    199 H199       -1.5427  -24.9243  -44.1813 H         1 UNK         0.0600 
    200 H200       -0.7878  -24.7207  -46.9346 H         1 UNK         0.3000 
    201 H201       -0.5376  -27.3911  -47.9123 H         1 UNK         0.0600 
    202 H202        1.4029  -25.8623  -47.5128 H         1 UNK         0.0600 
    203 H203        0.8874  -24.8532  -48.8645 H         1 UNK         0.0600 
    204 H204        1.4045  -26.5071  -49.1473 H         1 UNK         0.0600 
    205 H205       -1.7624  -24.3810  -49.4325 H         1 UNK         0.3000 
    206 H206       -2.3082  -25.5382  -52.0098 H         1 UNK         0.0600 
    207 H207       -2.0685  -23.0874  -51.6681 H         1 UNK         0.0600 
    208 H208       -3.6365  -23.4716  -52.3621 H         1 UNK         0.0600 
    209 H209       -3.5100  -23.0623  -50.6576 H         1 UNK         0.0600 
    210 H210       -4.2612  -25.0178  -49.0752 H         1 UNK         0.3000 
    211 H211       -6.0025  -25.9903  -48.1671 H         1 UNK         0.0600 
    212 H212       -5.6659  -28.3093  -50.1398 H         1 UNK         0.0600 
    213 H213       -6.4874  -28.3580  -48.5868 H         1 UNK         0.0600 
    214 H214       -4.7496  -28.1240  -48.6469 H         1 UNK         0.0600 
    215 H215       -6.3626  -24.2779  -50.6613 H         1 UNK         0.3000 
    216 H216       -9.1951  -24.2504  -50.8470 H         1 UNK         0.0600 
    217 H217       -7.6223  -25.2775  -53.2999 H         1 UNK         0.0600 
    218 H218       -9.3210  -24.8134  -53.3178 H         1 UNK         0.0600 
    219 H219       -8.8110  -26.2117  -52.3992 H         1 UNK         0.0600 
    220 H220       -9.6954  -22.6085  -52.7629 H         1 UNK         0.3000 
    221 H221       -7.9236  -20.2834  -52.5219 H         1 UNK         0.0600 
    222 H222      -10.4033  -20.0523  -52.3729 H         1 UNK         0.0600 
    223 H223      -10.5738  -20.6887  -54.0094 H         1 UNK         0.0600 
    224 H224       -9.7682  -19.1485  -53.7363 H         1 UNK         0.0600 
    225 H225       -7.7372  -22.9672  -54.4083 H         1 UNK         0.3000 
    226 H226       -7.4278  -22.1259  -57.0688 H         1 UNK         0.0600 
    227 H227       -7.6846  -24.4989  -56.3697 H         1 UNK         0.0600 
    228 H228       -6.2100  -24.3081  -57.3047 H         1 UNK         0.0600 
    229 H229       -6.1213  -24.4547  -55.5536 H         1 UNK         0.0600 
    230 H230       -5.7114  -21.5059  -58.3052 H         1 UNK         0.3000 
    231 H231       -3.9029  -20.3975  -58.9270 H         1 UNK         0.0600 
    232 H232       -2.4116  -21.9716  -56.7604 H         1 UNK         0.0600 
    233 H233       -1.7035  -21.2179  -58.1818 H         1 UNK         0.0600 
    234 H234       -2.7934  -22.5807  -58.3703 H         1 UNK         0.0600 
    235 H235       -5.5686  -19.1919  -56.8999 H         1 UNK         0.3000 
    236 H236       -5.8730  -17.3414  -55.7936 H         1 UNK         0.0600 
    237 H237       -4.2761  -15.4718  -55.7775 H         1 UNK         0.0600 
    238 H238       -2.9768  -16.5069  -56.3430 H         1 UNK         0.0600 
    239 H239       -4.3544  -16.1639  -57.3905 H         1 UNK         0.0600 
    240 H240       -2.9687  -19.1317  -54.8576 H         1 UNK         0.3000 
    241 H241       -2.8867  -18.2080  -52.1463 H         1 UNK         0.0600 
    242 H242       -5.4897  -21.3854  -52.1222 H         1 UNK         0.3800 
    243 H243       -4.7110  -20.9502  -53.6297 H         1 UNK         0.3800 
    244 H244       -1.7412  -20.8356  -53.1984 H         1 UNK         0.0800 
    245 H245       -1.2680  -20.0008  -51.7435 H         1 UNK         0.0800 
    246 H246       -1.3187  -16.8202  -53.4173 H         1 UNK         0.0800 
    247 H247        0.4122  -16.7007  -53.5736 H         1 UNK         0.0800 
@<TRIPOS>BOND
     1    1    2 1    
     2    1  127 1    
     3    1  128 1    
     4    1  129 1    
     5    2    3 2    
     6    2    4 am   BACKBONE|DICT|INTERRES
     7    4    5 1    
     8    4  130 1    
     9    5    6 1    
    10    5   65 1    
    11    5  131 1    
    12    6    7 1    
    13    6  132 1    
    14    6  133 1    
    15    7    8 1    
    16    8    9 1    
    17    8  134 1    
    18    8  135 1    
    19    9   10 ar   
    20    9   14 ar   
    21   10   11 ar   
    22   10  136 1    
    23   11   12 ar   
    24   11  126 1    
    25   12   13 ar   
    26   12  137 1    
    27   13   14 ar   
    28   13   15 1    
    29   14  138 1    
    30   15   16 1    
    31   15  139 1    
    32   15  140 1    
    33   16   17 1    
    34   17   18 1    
    35   17  141 1    
    36   17  142 1    
    37   18   19 1    
    38   18   67 1    
    39   18  143 1    
    40   19   20 am   BACKBONE|DICT|INTERRES
    41   19  144 1    
    42   20   21 2    
    43   20   22 1    
    44   22   23 1    
    45   22   24 1    
    46   22  145 1    
    47   23  146 1    
    48   23  147 1    
    49   23  148 1    
    50   24   25 am   BACKBONE|DICT|INTERRES
    51   24  149 1    
    52   25   26 2    
    53   25   27 1    
    54   27   28 1    
    55   27   29 1    
    56   27  150 1    
    57   28  151 1    
    58   28  152 1    
    59   28  153 1    
    60   29   30 am   BACKBONE|DICT|INTERRES
    61   29  154 1    
    62   30   31 2    
    63   30   32 1    
    64   32   33 1    
    65   32   34 1    
    66   32  155 1    
    67   33  156 1    
    68   33  157 1    
    69   33  158 1    
    70   34   35 am   BACKBONE|DICT|INTERRES
    71   34  159 1    
    72   35   36 2    
    73   35   37 1    
    74   37   38 1    
    75   37   39 1    
    76   37  160 1    
    77   38  161 1    
    78   38  162 1    
    79   38  163 1    
    80   39   40 am   BACKBONE|DICT|INTERRES
    81   39  164 1    
    82   40   41 2    
    83   40   42 1    
    84   42   43 1    
    85   42   44 1    
    86   42  165 1    
    87   43  166 1    
    88   43  167 1    
    89   43  168 1    
    90   44   45 am   BACKBONE|DICT|INTERRES
    91   44  169 1    
    92   45   46 2    
    93   45   47 1    
    94   47   48 1    
    95   47   49 1    
    96   47  170 1    
    97   48  171 1    
    98   48  172 1    
    99   48  173 1    
   100   49   50 am   BACKBONE|DICT|INTERRES
   101   49  174 1    
   102   50   51 2    
   103   50   52 1    
   104   52   53 1    
   105   52   54 1    
   106   52  175 1    
   107   53  176 1    
   108   53  177 1    
   109   53  178 1    
   110   54   55 am   BACKBONE|DICT|INTERRES
   111   54  179 1    
   112   55   56 2    
   113   55   57 1    
   114   57   58 1    
   115   57   59 1    
   116   57  180 1    
   117   58  181 1    
   118   58  182 1    
   119   58  183 1    
   120   59   60 am   BACKBONE|DICT|INTERRES
   121   59  184 1    
   122   60   61 2    
   123   60   62 1    
   124   62   63 1    
   125   62   64 1    
   126   62  185 1    
   127   63  186 1    
   128   63  187 1    
   129   63  188 1    
   130   64   65 am   BACKBONE|DICT|INTERRES
   131   64  189 1    
   132   65   66 2    
   133   67   68 2    
   134   67   69 am   BACKBONE|DICT|INTERRES
   135   69   70 1    
   136   69  190 1    
   137   70   71 1    
   138   70   72 1    
   139   70  191 1    
   140   71  192 1    
   141   71  193 1    
   142   71  194 1    
   143   72   73 2    
   144   72   74 am   BACKBONE|DICT|INTERRES
   145   74   75 1    
   146   74  195 1    
   147   75   76 1    
   148   75   77 1    
   149   75  196 1    
   150   76  197 1    
   151   76  198 1    
   152   76  199 1    
   153   77   78 2    
   154   77   79 am   BACKBONE|DICT|INTERRES
   155   79   80 1    
   156   79  200 1    
   157   80   81 1    
   158   80   82 1    
   159   80  201 1    
   160   81  202 1    
   161   81  203 1    
   162   81  204 1    
   163   82   83 2    
   164   82   84 am   BACKBONE|DICT|INTERRES
   165   84   85 1    
   166   84  205 1    
   167   85   86 1    
   168   85   87 1    
   169   85  206 1    
   170   86  207 1    
   171   86  208 1    
   172   86  209 1    
   173   87   88 2    
   174   87   89 am   BACKBONE|DICT|INTERRES
   175   89   90 1    
   176   89  210 1    
   177   90   91 1    
   178   90   92 1    
   179   90  211 1    
   180   91  212 1    
   181   91  213 1    
   182   91  214 1    
   183   92   93 2    
   184   92   94 am   BACKBONE|DICT|INTERRES
   185   94   95 1    
   186   94  215 1    
   187   95   96 1    
   188   95   97 1    
   189   95  216 1    
   190   96  217 1    
   191   96  218 1    
   192   96  219 1    
   193   97   98 2    
   194   97   99 am   BACKBONE|DICT|INTERRES
   195   99  100 1    
   196   99  220 1    
   197  100  101 1    
   198  100  102 1    
   199  100  221 1    
   200  101  222 1    
   201  101  223 1    
   202  101  224 1    
   203  102  103 2    
   204  102  104 am   BACKBONE|DICT|INTERRES
   205  104  105 1    
   206  104  225 1    
   207  105  106 1    
   208  105  107 1    
   209  105  226 1    
   210  106  227 1    
   211  106  228 1    
   212  106  229 1    
   213  107  108 2    
   214  107  109 am   BACKBONE|DICT|INTERRES
   215  109  110 1    
   216  109  230 1    
   217  110  111 1    
   218  110  112 1    
   219  110  231 1    
   220  111  232 1    
   221  111  233 1    
   222  111  234 1    
   223  112  113 2    
   224  112  114 am   BACKBONE|DICT|INTERRES
   225  114  115 1    
   226  114  235 1    
   227  115  116 1    
   228  115  117 1    
   229  115  236 1    
   230  116  237 1    
   231  116  238 1    
   232  116  239 1    
   233  117  118 2    
   234  117  119 am   BACKBONE|DICT|INTERRES
   235  119  120 1    
   236  119  240 1    
   237  120  121 1    
   238  120  124 1    
   239  120  241 1    
   240  121  122 am   BACKBONE|DICT|INTERRES
   241  121  123 2    
   242  122  242 1    
   243  122  243 1    
   244  124  125 1    
   245  124  244 1    
   246  124  245 1    
   247  125  126 1    
   248  126  246 1    
   249  126  247 1    
@<TRIPOS>SUBSTRUCTURE
     1 UNK         1 GROUP             0       ****    0 ROOT    
