@<TRIPOS>MOLECULE
3R540
247   249    1
SMALL
USER_CHARGES


@<TRIPOS>ATOM
      1 CA         -4.3550  -14.5055  -47.8639 C.3       0 UNK        -0.1800 
      2 C          -3.4772  -13.4676  -48.5483 C.2       0 UNK         0.5000 
      3 O          -3.9318  -12.8143  -49.4877 O.2       0 UNK        -0.5000 
      4 N          -2.2376  -13.2918  -48.0766 N.am      1 UNK        -0.5000 
      5 CA         -1.3283  -12.2418  -48.5287 C.3       1 UNK         0.1400 
      6 C6         -0.5628  -12.6031  -49.8306 C.3       23 UNK        -0.0398 
      7 S7          0.6873  -13.9308  -49.6801 S.3       23 UNK        -0.2404 
      8 C8         -0.1000  -15.2917  -50.5942 C.3       23 UNK        -0.0205 
      9 C9          0.8991  -16.4027  -50.8746 C.ar      23 UNK        -0.0193 
     10 C10         1.4821  -16.5214  -52.1409 C.ar      23 UNK        -0.1150 
     11 C11         2.4214  -17.5241  -52.4005 C.ar      23 UNK        -0.0193 
     12 C12         2.8006  -18.3864  -51.3682 C.ar      23 UNK        -0.1150 
     13 C13         2.2218  -18.2835  -50.1022 C.ar      23 UNK        -0.0193 
     14 C14         1.2561  -17.3015  -49.8647 C.ar      23 UNK        -0.1150 
     15 C15         2.6721  -19.2238  -48.9980 C.3       23 UNK        -0.0205 
     16 S16         1.7893  -20.8106  -49.0830 S.3       23 UNK        -0.2404 
     17 C17         0.5723  -20.6139  -47.7413 C.3       23 UNK        -0.0398 
     18 CA          0.0214  -21.9850  -47.2736 C.3       11 UNK         0.1400 
     19 N          -0.1078  -22.0671  -45.8183 N.am      11 UNK        -0.5000 
     20 C          -0.3705  -23.1903  -45.1359 C.2       10 UNK         0.5000 
     21 O          -0.4891  -24.2989  -45.6574 O.2       10 UNK        -0.5000 
     22 CA         -0.5929  -23.0336  -43.6225 C.3       10 UNK         0.1400 
     23 CB          0.7435  -23.0124  -42.8652 C.3       10 UNK        -0.1800 
     24 N          -1.3553  -21.8222  -43.3184 N.am      10 UNK        -0.5000 
     25 C          -2.6561  -21.6667  -43.6021 C.2       9 UNK         0.5000 
     26 O          -3.3591  -22.5569  -44.0818 O.2       9 UNK        -0.5000 
     27 CA         -3.2577  -20.2720  -43.3450 C.3       9 UNK         0.1400 
     28 CB         -3.6788  -20.1259  -41.8753 C.3       9 UNK        -0.1800 
     29 N          -2.3397  -19.1857  -43.6954 N.am      9 UNK        -0.5000 
     30 C          -1.9534  -18.8926  -44.9453 C.2       8 UNK         0.5000 
     31 O          -2.3506  -19.4927  -45.9418 O.2       8 UNK        -0.5000 
     32 CA         -0.9044  -17.7786  -45.1111 C.3       8 UNK         0.1400 
     33 CB         -1.5868  -16.4123  -45.2571 C.3       8 UNK        -0.1800 
     34 N           0.0738  -17.7289  -44.0211 N.am      8 UNK        -0.5000 
     35 C           0.9198  -18.7268  -43.7181 C.2       7 UNK         0.5000 
     36 O           0.9111  -19.8108  -44.3011 O.2       7 UNK        -0.5000 
     37 CA          1.9474  -18.4998  -42.5938 C.3       7 UNK         0.1400 
     38 CB          3.3734  -18.4956  -43.1666 C.3       7 UNK        -0.1800 
     39 N           1.7213  -17.2607  -41.8485 N.am      7 UNK        -0.5000 
     40 C           0.8315  -17.1304  -40.8536 C.2       6 UNK         0.5000 
     41 O           0.1252  -18.0552  -40.4505 O.2       6 UNK        -0.5000 
     42 CA          0.6818  -15.7335  -40.2155 C.3       6 UNK         0.1400 
     43 CB          1.5415  -15.6281  -38.9470 C.3       6 UNK        -0.1800 
     44 N           1.0249  -14.6303  -41.1164 N.am      6 UNK        -0.5000 
     45 C           0.3753  -14.3369  -42.2506 C.2       5 UNK         0.5000 
     46 O          -0.6066  -14.9641  -42.6454 O.2       5 UNK        -0.5000 
     47 CA          0.9316  -13.1896  -43.1184 C.3       5 UNK         0.1400 
     48 CB          1.9217  -12.2644  -42.3768 C.3       5 UNK        -0.1800 
     49 N           1.5322  -13.6921  -44.3577 N.am      5 UNK        -0.5000 
     50 C           2.5151  -14.6002  -44.4698 C.2       4 UNK         0.5000 
     51 O           3.0495  -15.1553  -43.5089 O.2       4 UNK        -0.5000 
     52 CA          2.9988  -14.9333  -45.8903 C.3       4 UNK         0.1400 
     53 CB          2.0802  -15.9575  -46.5674 C.3       4 UNK        -0.1800 
     54 N           3.0743  -13.7342  -46.7211 N.am      4 UNK        -0.5000 
     55 C           4.1763  -12.9864  -46.8691 C.2       3 UNK         0.5000 
     56 O           5.2699  -13.2657  -46.3763 O.2       3 UNK        -0.5000 
     57 CA          4.0280  -11.6943  -47.6951 C.3       3 UNK         0.1400 
     58 CB          4.2404  -11.9780  -49.1901 C.3       3 UNK        -0.1800 
     59 N           2.7254  -11.0560  -47.5039 N.am      3 UNK        -0.5000 
     60 C           2.3187  -10.4876  -46.3594 C.2       2 UNK         0.5000 
     61 O           3.0402  -10.3558  -45.3710 O.2       2 UNK        -0.5000 
     62 CA          0.8610   -9.9902  -46.2980 C.3       2 UNK         0.1400 
     63 CB          0.8101   -8.4589  -46.4130 C.3       2 UNK        -0.1800 
     64 N          -0.0102  -10.5716  -47.3241 N.am      2 UNK        -0.5000 
     65 C          -0.4025  -11.8516  -47.3642 C.2       1 UNK         0.5000 
     66 O          -0.0442  -12.7053  -46.5466 O.2       1 UNK        -0.5000 
     67 C          -1.2935  -22.3600  -47.9877 C.2       11 UNK         0.5000 
     68 O          -1.2616  -23.1415  -48.9349 O.2       11 UNK        -0.5000 
     69 N          -2.4293  -21.8629  -47.4741 N.am      12 UNK        -0.5000 
     70 CA         -3.7793  -22.1991  -47.9301 C.3       12 UNK         0.1400 
     71 CB         -4.8128  -21.3730  -47.1478 C.3       12 UNK        -0.1800 
     72 C          -4.0911  -23.6985  -47.8100 C.2       12 UNK         0.5000 
     73 O          -4.6300  -24.2800  -48.7511 O.2       12 UNK        -0.5000 
     74 N          -3.7143  -24.3042  -46.6750 N.am      13 UNK        -0.5000 
     75 CA         -3.8377  -25.7408  -46.4299 C.3       13 UNK         0.1400 
     76 CB         -3.5100  -26.0483  -44.9611 C.3       13 UNK        -0.1800 
     77 C          -2.9655  -26.5760  -47.3859 C.2       13 UNK         0.5000 
     78 O          -3.4641  -27.5360  -47.9749 O.2       13 UNK        -0.5000 
     79 N          -1.7005  -26.1679  -47.5653 N.am      14 UNK        -0.5000 
     80 CA         -0.7456  -26.7836  -48.4924 C.3       14 UNK         0.1400 
     81 CB          0.6419  -26.1567  -48.2882 C.3       14 UNK        -0.1800 
     82 C          -1.1792  -26.6814  -49.9686 C.2       14 UNK         0.5000 
     83 O          -0.9863  -27.6307  -50.7284 O.2       14 UNK        -0.5000 
     84 N          -1.7968  -25.5509  -50.3327 N.am      15 UNK        -0.5000 
     85 CA         -2.3747  -25.2709  -51.6478 C.3       15 UNK         0.1400 
     86 CB         -2.4021  -23.7478  -51.8567 C.3       15 UNK        -0.1800 
     87 C          -3.7714  -25.8985  -51.8633 C.2       15 UNK         0.5000 
     88 O          -4.3893  -25.6314  -52.8941 O.2       15 UNK        -0.5000 
     89 N          -4.2397  -26.7229  -50.9133 N.am      16 UNK        -0.5000 
     90 CA         -5.4885  -27.4905  -50.9310 C.3       16 UNK         0.1400 
     91 CB         -5.4934  -28.5191  -52.0822 C.3       16 UNK        -0.1800 
     92 C          -6.7454  -26.5981  -50.8990 C.2       16 UNK         0.5000 
     93 O          -7.6478  -26.7582  -51.7230 O.2       16 UNK        -0.5000 
     94 N          -6.7747  -25.6853  -49.9192 N.am      17 UNK        -0.5000 
     95 CA         -7.8524  -24.7450  -49.5957 C.3       17 UNK         0.1400 
     96 CB         -9.1739  -25.4761  -49.2753 C.3       17 UNK        -0.1800 
     97 C          -8.0096  -23.6138  -50.6305 C.2       17 UNK         0.5000 
     98 O          -9.1145  -23.1034  -50.8272 O.2       17 UNK        -0.5000 
     99 N          -6.8910  -23.2134  -51.2475 N.am      18 UNK        -0.5000 
    100 CA        -6.7854  -21.9969  -52.0529 C.3       18 UNK         0.1400 
    101 CB        -5.5606  -22.1151  -52.9708 C.3       18 UNK        -0.1800 
    102 C         -6.6595  -20.7574  -51.1457 C.2       18 UNK         0.5000 
    103 O         -6.3951  -20.8907  -49.9480 O.2       18 UNK        -0.5000 
    104 N         -6.8050  -19.5622  -51.7304 N.am      19 UNK        -0.5000 
    105 CA        -6.6769  -18.2651  -51.0557 C.3       19 UNK         0.1400 
    106 CB        -7.3821  -17.1954  -51.9090 C.3       19 UNK        -0.1800 
    107 C         -5.2055  -17.9034  -50.7477 C.2       19 UNK         0.5000 
    108 O         -4.6979  -16.8936  -51.2390 O.2       19 UNK        -0.5000 
    109 N         -4.5400  -18.7661  -49.9679 N.am      20 UNK        -0.5000 
    110 CA        -3.1317  -18.7685  -49.5515 C.3       20 UNK         0.1400 
    111 CB        -2.7805  -17.5235  -48.7248 C.3       20 UNK        -0.1800 
    112 C         -2.1319  -18.9924  -50.6988 C.2       20 UNK         0.5000 
    113 O         -1.2555  -19.8448  -50.5726 O.2       20 UNK        -0.5000 
    114 N         -2.2910  -18.2502  -51.7992 N.am      21 UNK        -0.5000 
    115 CA        -1.5321  -18.4073  -53.0336 C.3       21 UNK         0.1400 
    116 CB        -1.8800  -17.2494  -53.9818 C.3       21 UNK        -0.1800 
    117 C         -1.8379  -19.7740  -53.6886 C.2       21 UNK         0.5000 
    118 O         -3.0072  -20.0389  -53.9676 O.2       21 UNK        -0.5000 
    119 N         -0.8545  -20.6422  -53.9496 N.am      22 UNK        -0.5000 
    120 CA         0.5776  -20.5274  -53.6570 C.3       22 UNK         0.1400 
    121 C          1.1540  -21.9610  -53.5344 C.2       22 UNK         0.5000 
    122 N          1.7180  -22.3237  -52.3903 N.am      22 UNK        -0.7600 
    123 O          1.0943  -22.7472  -54.4772 O.2       22 UNK        -0.5000 
    124 C124        1.2937  -19.6704  -54.7384 C.3       23 UNK        -0.0398 
    125 S125        3.0635  -19.3631  -54.4133 S.3       23 UNK        -0.2404 
    126 C126        3.0521  -17.6499  -53.7822 C.3       23 UNK        -0.0205 
    127 H127       -3.8190  -15.0380  -47.0804 H         1 UNK         0.0600 
    128 H128       -4.7195  -15.2314  -48.5906 H         1 UNK         0.0600 
    129 H129       -5.2189  -14.0202  -47.4101 H         1 UNK         0.0600 
    130 H130       -1.8950  -13.8203  -47.2847 H         1 UNK         0.3000 
    131 H131       -1.9331  -11.3571  -48.7413 H         1 UNK         0.0600 
    132 H132       -0.0469  -11.7174  -50.2038 H         1 UNK         0.0800 
    133 H133       -1.2775  -12.8619  -50.6125 H         1 UNK         0.0800 
    134 H134       -0.5172  -14.9178  -51.5303 H         1 UNK         0.0800 
    135 H135       -0.9355  -15.6774  -50.0130 H         1 UNK         0.0800 
    136 H136        1.2045  -15.8299  -52.9240 H         1 UNK         0.1150 
    137 H137        3.5466  -19.1470  -51.5516 H         1 UNK         0.1150 
    138 H138        0.8004  -17.2180  -48.8889 H         1 UNK         0.1150 
    139 H139        3.7412  -19.4161  -49.0993 H         1 UNK         0.0800 
    140 H140        2.5466  -18.7556  -48.0212 H         1 UNK         0.0800 
    141 H141       -0.2175  -19.9285  -48.0542 H         1 UNK         0.0800 
    142 H142        1.0817  -20.1186  -46.9149 H         1 UNK         0.0800 
    143 H143        0.7483  -22.7570  -47.5360 H         1 UNK         0.0600 
    144 H144        0.0344  -21.2078  -45.2957 H         1 UNK         0.3000 
    145 H145       -1.1649  -23.8973  -43.2764 H         1 UNK         0.0600 
    146 H146        0.5854  -22.9400  -41.7891 H         1 UNK         0.0600 
    147 H147        1.3075  -23.9275  -43.0497 H         1 UNK         0.0600 
    148 H148        1.3722  -22.1752  -43.1689 H         1 UNK         0.0600 
    149 H149       -0.8343  -21.0308  -42.9708 H         1 UNK         0.3000 
    150 H150       -4.1502  -20.1758  -43.9669 H         1 UNK         0.0600 
    151 H151       -4.3736  -20.9163  -41.5880 H         1 UNK         0.0600 
    152 H152       -4.1814  -19.1741  -41.7025 H         1 UNK         0.0600 
    153 H153       -2.8221  -20.1800  -41.2023 H         1 UNK         0.0600 
    154 H154       -1.9542  -18.6464  -42.9336 H         1 UNK         0.3000 
    155 H155       -0.3559  -17.9809  -46.0332 H         1 UNK         0.0600 
    156 H156       -2.2130  -16.1812  -44.3947 H         1 UNK         0.0600 
    157 H157       -2.2262  -16.3932  -46.1363 H         1 UNK         0.0600 
    158 H158       -0.8599  -15.6081  -45.3677 H         1 UNK         0.0600 
    159 H159        0.1022  -16.8743  -43.4782 H         1 UNK         0.3000 
    160 H160        1.8677  -19.3453  -41.9073 H         1 UNK         0.0600 
    161 H161        3.5043  -17.7247  -43.9258 H         1 UNK         0.0600 
    162 H162        3.6075  -19.4531  -43.6339 H         1 UNK         0.0600 
    163 H163        4.1139  -18.3274  -42.3846 H         1 UNK         0.0600 
    164 H164        2.2416  -16.4458  -42.1602 H         1 UNK         0.3000 
    165 H165       -0.3656  -15.6167  -39.9295 H         1 UNK         0.0600 
    166 H166        1.3802  -14.6776  -38.4382 H         1 UNK         0.0600 
    167 H167        1.2929  -16.4201  -38.2392 H         1 UNK         0.0600 
    168 H168        2.6050  -15.7126  -39.1741 H         1 UNK         0.0600 
    169 H169        1.8455  -14.0913  -40.8809 H         1 UNK         0.3000 
    170 H170        0.0724  -12.5858  -43.4141 H         1 UNK         0.0600 
    171 H171        1.4795  -11.8645  -41.4634 H         1 UNK         0.0600 
    172 H172        2.8461  -12.7755  -42.1063 H         1 UNK         0.0600 
    173 H173        2.1916  -11.4112  -42.9984 H         1 UNK         0.0600 
    174 H174        1.0981  -13.3440  -45.2087 H         1 UNK         0.3000 
    175 H175        3.9879  -15.3882  -45.8034 H         1 UNK         0.0600 
    176 H176        1.0787  -15.5606  -46.7340 H         1 UNK         0.0600 
    177 H177        2.4896  -16.2467  -47.5343 H         1 UNK         0.0600 
    178 H178        1.9914  -16.8639  -45.9691 H         1 UNK         0.0600 
    179 H179        2.2130  -13.4214  -47.1472 H         1 UNK         0.3000 
    180 H180        4.8013  -10.9966  -47.3666 H         1 UNK         0.0600 
    181 H181        3.4906  -12.6660  -49.5820 H         1 UNK         0.0600 
    182 H182        5.2190  -12.4265  -49.3657 H         1 UNK         0.0600 
    183 H183        4.1942  -11.0605  -49.7768 H         1 UNK         0.0600 
    184 H184        2.0758  -11.1050  -48.2741 H         1 UNK         0.3000 
    185 H185        0.4658  -10.2726  -45.3197 H         1 UNK         0.0600 
    186 H186        1.4213   -7.9877  -45.6420 H         1 UNK         0.0600 
    187 H187        1.1798   -8.1154  -47.3800 H         1 UNK         0.0600 
    188 H188       -0.2073   -8.0870  -46.2897 H         1 UNK         0.0600 
    189 H189       -0.3444   -9.9330  -48.0320 H         1 UNK         0.3000 
    190 H190       -2.3668  -21.1761  -46.7266 H         1 UNK         0.3000 
    191 H191       -3.8517  -21.9327  -48.9864 H         1 UNK         0.0600 
    192 H192       -4.7477  -21.5528  -46.0758 H         1 UNK         0.0600 
    193 H193       -5.8284  -21.6251  -47.4548 H         1 UNK         0.0600 
    194 H194       -4.6808  -20.3042  -47.3121 H         1 UNK         0.0600 
    195 H195       -3.3043  -23.7455  -45.9359 H         1 UNK         0.3000 
    196 H196       -4.8793  -26.0178  -46.6057 H         1 UNK         0.0600 
    197 H197       -3.6388  -27.1101  -44.7476 H         1 UNK         0.0600 
    198 H198       -4.1679  -25.4983  -44.2879 H         1 UNK         0.0600 
    199 H199       -2.4826  -25.7862  -44.7095 H         1 UNK         0.0600 
    200 H200       -1.3594  -25.3817  -47.0186 H         1 UNK         0.3000 
    201 H201       -0.6789  -27.8440  -48.2411 H         1 UNK         0.0600 
    202 H202        0.9839  -26.2816  -47.2607 H         1 UNK         0.0600 
    203 H203        0.6381  -25.0896  -48.5114 H         1 UNK         0.0600 
    204 H204        1.3819  -26.6254  -48.9379 H         1 UNK         0.0600 
    205 H205       -1.8387  -24.7881  -49.6607 H         1 UNK         0.3000 
    206 H206       -1.7186  -25.6969  -52.4093 H         1 UNK         0.0600 
    207 H207       -1.4056  -23.3168  -51.7553 H         1 UNK         0.0600 
    208 H208       -2.7609  -23.4908  -52.8538 H         1 UNK         0.0600 
    209 H209       -3.0500  -23.2589  -51.1286 H         1 UNK         0.0600 
    210 H210       -3.6745  -26.8470  -50.0824 H         1 UNK         0.3000 
    211 H211       -5.5015  -28.0567  -49.9985 H         1 UNK         0.0600 
    212 H212       -5.5289  -28.0389  -53.0603 H         1 UNK         0.0600 
    213 H213       -6.3606  -29.1766  -52.0118 H         1 UNK         0.0600 
    214 H214       -4.6052  -29.1501  -52.0500 H         1 UNK         0.0600 
    215 H215       -5.9279  -25.5494  -49.3729 H         1 UNK         0.3000 
    216 H216       -7.5347  -24.2496  -48.6770 H         1 UNK         0.0600 
    217 H217       -9.9099  -24.7860  -48.8615 H         1 UNK         0.0600 
    218 H218       -9.0206  -26.2643  -48.5382 H         1 UNK         0.0600 
    219 H219       -9.6169  -25.9266  -50.1637 H         1 UNK         0.0600 
    220 H220       -6.0249  -23.6657  -50.9924 H         1 UNK         0.3000 
    221 H221       -7.6806  -21.8956  -52.6699 H         1 UNK         0.0600 
    222 H222       -4.6313  -22.0455  -52.4068 H         1 UNK         0.0600 
    223 H223       -5.5570  -23.0591  -53.5164 H         1 UNK         0.0600 
    224 H224       -5.5477  -21.3140  -53.7104 H         1 UNK         0.0600 
    225 H225       -6.9781  -19.5268  -52.7247 H         1 UNK         0.3000 
    226 H226       -7.1994  -18.3185  -50.0982 H         1 UNK         0.0600 
    227 H227       -8.4345  -17.4388  -52.0560 H         1 UNK         0.0600 
    228 H228       -7.3416  -16.2189  -51.4245 H         1 UNK         0.0600 
    229 H229       -6.9200  -17.0946  -52.8919 H         1 UNK         0.0600 
    230 H230       -5.0700  -19.5881  -49.6880 H         1 UNK         0.3000 
    231 H231       -3.0218  -19.6222  -48.8868 H         1 UNK         0.0600 
    232 H232       -1.7516  -17.5706  -48.3667 H         1 UNK         0.0600 
    233 H233       -3.4292  -17.4508  -47.8526 H         1 UNK         0.0600 
    234 H234       -2.8883  -16.6085  -49.3044 H         1 UNK         0.0600 
    235 H235       -3.0765  -17.6054  -51.8158 H         1 UNK         0.3000 
    236 H236       -0.4816  -18.3105  -52.7778 H         1 UNK         0.0600 
    237 H237       -1.3228  -17.3277  -54.9158 H         1 UNK         0.0600 
    238 H238       -2.9418  -17.2382  -54.2316 H         1 UNK         0.0600 
    239 H239       -1.6318  -16.2867  -53.5347 H         1 UNK         0.0600 
    240 H240       -1.1018  -21.5300  -54.3636 H         1 UNK         0.3000 
    241 H241        0.7074  -20.0563  -52.6821 H         1 UNK         0.0600 
    242 H242        2.0976  -23.2531  -52.3065 H         1 UNK         0.3800 
    243 H243        1.7483  -21.7023  -51.5952 H         1 UNK         0.3800 
    244 H244        1.2123  -20.1555  -55.7126 H         1 UNK         0.0800 
    245 H245        0.7942  -18.7086  -54.8515 H         1 UNK         0.0800 
    246 H246        2.5466  -17.0062  -54.5038 H         1 UNK         0.0800 
    247 H247        4.0815  -17.2946  -53.7228 H         1 UNK         0.0800 
@<TRIPOS>BOND
     1    1    2 1    
     2    1  127 1    
     3    1  128 1    
     4    1  129 1    
     5    2    3 2    
     6    2    4 am   BACKBONE|DICT|INTERRES
     7    4    5 1    
     8    4  130 1    
     9    5    6 1    
    10    5   65 1    
    11    5  131 1    
    12    6    7 1    
    13    6  132 1    
    14    6  133 1    
    15    7    8 1    
    16    8    9 1    
    17    8  134 1    
    18    8  135 1    
    19    9   10 ar   
    20    9   14 ar   
    21   10   11 ar   
    22   10  136 1    
    23   11   12 ar   
    24   11  126 1    
    25   12   13 ar   
    26   12  137 1    
    27   13   14 ar   
    28   13   15 1    
    29   14  138 1    
    30   15   16 1    
    31   15  139 1    
    32   15  140 1    
    33   16   17 1    
    34   17   18 1    
    35   17  141 1    
    36   17  142 1    
    37   18   19 1    
    38   18   67 1    
    39   18  143 1    
    40   19   20 am   BACKBONE|DICT|INTERRES
    41   19  144 1    
    42   20   21 2    
    43   20   22 1    
    44   22   23 1    
    45   22   24 1    
    46   22  145 1    
    47   23  146 1    
    48   23  147 1    
    49   23  148 1    
    50   24   25 am   BACKBONE|DICT|INTERRES
    51   24  149 1    
    52   25   26 2    
    53   25   27 1    
    54   27   28 1    
    55   27   29 1    
    56   27  150 1    
    57   28  151 1    
    58   28  152 1    
    59   28  153 1    
    60   29   30 am   BACKBONE|DICT|INTERRES
    61   29  154 1    
    62   30   31 2    
    63   30   32 1    
    64   32   33 1    
    65   32   34 1    
    66   32  155 1    
    67   33  156 1    
    68   33  157 1    
    69   33  158 1    
    70   34   35 am   BACKBONE|DICT|INTERRES
    71   34  159 1    
    72   35   36 2    
    73   35   37 1    
    74   37   38 1    
    75   37   39 1    
    76   37  160 1    
    77   38  161 1    
    78   38  162 1    
    79   38  163 1    
    80   39   40 am   BACKBONE|DICT|INTERRES
    81   39  164 1    
    82   40   41 2    
    83   40   42 1    
    84   42   43 1    
    85   42   44 1    
    86   42  165 1    
    87   43  166 1    
    88   43  167 1    
    89   43  168 1    
    90   44   45 am   BACKBONE|DICT|INTERRES
    91   44  169 1    
    92   45   46 2    
    93   45   47 1    
    94   47   48 1    
    95   47   49 1    
    96   47  170 1    
    97   48  171 1    
    98   48  172 1    
    99   48  173 1    
   100   49   50 am   BACKBONE|DICT|INTERRES
   101   49  174 1    
   102   50   51 2    
   103   50   52 1    
   104   52   53 1    
   105   52   54 1    
   106   52  175 1    
   107   53  176 1    
   108   53  177 1    
   109   53  178 1    
   110   54   55 am   BACKBONE|DICT|INTERRES
   111   54  179 1    
   112   55   56 2    
   113   55   57 1    
   114   57   58 1    
   115   57   59 1    
   116   57  180 1    
   117   58  181 1    
   118   58  182 1    
   119   58  183 1    
   120   59   60 am   BACKBONE|DICT|INTERRES
   121   59  184 1    
   122   60   61 2    
   123   60   62 1    
   124   62   63 1    
   125   62   64 1    
   126   62  185 1    
   127   63  186 1    
   128   63  187 1    
   129   63  188 1    
   130   64   65 am   BACKBONE|DICT|INTERRES
   131   64  189 1    
   132   65   66 2    
   133   67   68 2    
   134   67   69 am   BACKBONE|DICT|INTERRES
   135   69   70 1    
   136   69  190 1    
   137   70   71 1    
   138   70   72 1    
   139   70  191 1    
   140   71  192 1    
   141   71  193 1    
   142   71  194 1    
   143   72   73 2    
   144   72   74 am   BACKBONE|DICT|INTERRES
   145   74   75 1    
   146   74  195 1    
   147   75   76 1    
   148   75   77 1    
   149   75  196 1    
   150   76  197 1    
   151   76  198 1    
   152   76  199 1    
   153   77   78 2    
   154   77   79 am   BACKBONE|DICT|INTERRES
   155   79   80 1    
   156   79  200 1    
   157   80   81 1    
   158   80   82 1    
   159   80  201 1    
   160   81  202 1    
   161   81  203 1    
   162   81  204 1    
   163   82   83 2    
   164   82   84 am   BACKBONE|DICT|INTERRES
   165   84   85 1    
   166   84  205 1    
   167   85   86 1    
   168   85   87 1    
   169   85  206 1    
   170   86  207 1    
   171   86  208 1    
   172   86  209 1    
   173   87   88 2    
   174   87   89 am   BACKBONE|DICT|INTERRES
   175   89   90 1    
   176   89  210 1    
   177   90   91 1    
   178   90   92 1    
   179   90  211 1    
   180   91  212 1    
   181   91  213 1    
   182   91  214 1    
   183   92   93 2    
   184   92   94 am   BACKBONE|DICT|INTERRES
   185   94   95 1    
   186   94  215 1    
   187   95   96 1    
   188   95   97 1    
   189   95  216 1    
   190   96  217 1    
   191   96  218 1    
   192   96  219 1    
   193   97   98 2    
   194   97   99 am   BACKBONE|DICT|INTERRES
   195   99  100 1    
   196   99  220 1    
   197  100  101 1    
   198  100  102 1    
   199  100  221 1    
   200  101  222 1    
   201  101  223 1    
   202  101  224 1    
   203  102  103 2    
   204  102  104 am   BACKBONE|DICT|INTERRES
   205  104  105 1    
   206  104  225 1    
   207  105  106 1    
   208  105  107 1    
   209  105  226 1    
   210  106  227 1    
   211  106  228 1    
   212  106  229 1    
   213  107  108 2    
   214  107  109 am   BACKBONE|DICT|INTERRES
   215  109  110 1    
   216  109  230 1    
   217  110  111 1    
   218  110  112 1    
   219  110  231 1    
   220  111  232 1    
   221  111  233 1    
   222  111  234 1    
   223  112  113 2    
   224  112  114 am   BACKBONE|DICT|INTERRES
   225  114  115 1    
   226  114  235 1    
   227  115  116 1    
   228  115  117 1    
   229  115  236 1    
   230  116  237 1    
   231  116  238 1    
   232  116  239 1    
   233  117  118 2    
   234  117  119 am   BACKBONE|DICT|INTERRES
   235  119  120 1    
   236  119  240 1    
   237  120  121 1    
   238  120  124 1    
   239  120  241 1    
   240  121  122 am   BACKBONE|DICT|INTERRES
   241  121  123 2    
   242  122  242 1    
   243  122  243 1    
   244  124  125 1    
   245  124  244 1    
   246  124  245 1    
   247  125  126 1    
   248  126  246 1    
   249  126  247 1    
@<TRIPOS>SUBSTRUCTURE
     1 UNK         1 GROUP             0       ****    0 ROOT    
