@<TRIPOS>MOLECULE
3R540
247   249    1
SMALL
USER_CHARGES


@<TRIPOS>ATOM
      1 CA          0.9495   -8.1747  -46.9672 C.3       0 UNK        -0.1800 
      2 C           1.0686   -9.4173  -47.8384 C.2       0 UNK         0.5000 
      3 O           0.9455   -9.3248  -49.0599 O.2       0 UNK        -0.5000 
      4 N           1.3063  -10.5759  -47.2183 N.am      1 UNK        -0.5000 
      5 CA          1.4804  -11.8708  -47.8693 C.3       1 UNK         0.1400 
      6 C6          0.1196  -12.5186  -48.2322 C.3       23 UNK        -0.0398 
      7 S7          0.2666  -13.9170  -49.3961 S.3       23 UNK        -0.2404 
      8 C8         -0.1854  -15.2932  -48.3002 C.3       23 UNK        -0.0205 
      9 C9         -0.1457  -16.6293  -49.0211 C.ar      23 UNK        -0.0193 
     10 C10        -1.2970  -17.1455  -49.6220 C.ar      23 UNK        -0.1150 
     11 C11        -1.2768  -18.3845  -50.2711 C.ar      23 UNK        -0.0193 
     12 C12        -0.0740  -19.1062  -50.3086 C.ar      23 UNK        -0.1150 
     13 C13         1.0843  -18.6005  -49.7105 C.ar      23 UNK        -0.0193 
     14 C14         1.0416  -17.3603  -49.0713 C.ar      23 UNK        -0.1150 
     15 C15         2.3902  -19.3831  -49.7561 C.3       23 UNK        -0.0205 
     16 S16         2.2713  -21.0280  -48.9818 S.3       23 UNK        -0.2404 
     17 C17         1.7277  -20.6297  -47.2827 C.3       23 UNK        -0.0398 
     18 CA          0.8938  -21.7714  -46.6565 C.3       11 UNK         0.1400 
     19 N           0.7541  -21.6236  -45.2085 N.am      11 UNK        -0.5000 
     20 C           0.2929  -22.5806  -44.3915 C.2       10 UNK         0.5000 
     21 O          -0.0340  -23.7054  -44.7713 O.2       10 UNK        -0.5000 
     22 CA          0.1333  -22.2063  -42.9074 C.3       10 UNK         0.1400 
     23 CB          1.4877  -22.2516  -42.1845 C.3       10 UNK        -0.1800 
     24 N          -0.4848  -20.8929  -42.7186 N.am      10 UNK        -0.5000 
     25 C          -1.7294  -20.5808  -43.1089 C.2       9 UNK         0.5000 
     26 O          -2.4977  -21.3776  -43.6460 O.2       9 UNK        -0.5000 
     27 CA         -2.1815  -19.1249  -42.9029 C.3       9 UNK         0.1400 
     28 CB         -2.5744  -18.8755  -41.4392 C.3       9 UNK        -0.1800 
     29 N          -1.1699  -18.1525  -43.3140 N.am      9 UNK        -0.5000 
     30 C          -0.6959  -18.0265  -44.5620 C.2       8 UNK         0.5000 
     31 O          -1.0705  -18.7072  -45.5151 O.2       8 UNK        -0.5000 
     32 CA          0.4295  -17.0022  -44.7678 C.3       8 UNK         0.1400 
     33 CB         -0.1240  -15.5695  -44.7216 C.3       8 UNK        -0.1800 
     34 N           1.4989  -17.1533  -43.7823 N.am      8 UNK        -0.5000 
     35 C           2.2392  -18.2588  -43.6151 C.2       7 UNK         0.5000 
     36 O           2.1468  -19.2623  -44.3209 O.2       7 UNK        -0.5000 
     37 CA          3.2087  -18.2626  -42.4220 C.3       7 UNK         0.1400 
     38 CB          4.5248  -17.5518  -42.7757 C.3       7 UNK        -0.1800 
     39 N           2.6117  -17.6476  -41.2360 N.am      7 UNK        -0.5000 
     40 C           1.5978  -18.1802  -40.5378 C.2       6 UNK         0.5000 
     41 O           1.0825  -19.2670  -40.7992 O.2       6 UNK        -0.5000 
     42 CA          1.0400  -17.3342  -39.3788 C.3       6 UNK         0.1400 
     43 CB          1.9079  -17.4950  -38.1219 C.3       6 UNK        -0.1800 
     44 N           0.9405  -15.9152  -39.7230 N.am      6 UNK        -0.5000 
     45 C           0.0970  -15.4177  -40.6387 C.2       5 UNK         0.5000 
     46 O          -0.7244  -16.1003  -41.2501 O.2       5 UNK        -0.5000 
     47 CA          0.2271  -13.9149  -40.9583 C.3       5 UNK         0.1400 
     48 CB         -0.6546  -13.0855  -40.0131 C.3       5 UNK        -0.1800 
     49 N           1.6067  -13.4194  -40.8965 N.am      5 UNK        -0.5000 
     50 C           2.6089  -13.8659  -41.6646 C.2       4 UNK         0.5000 
     51 O           2.4784  -14.7584  -42.5071 O.2       4 UNK        -0.5000 
     52 CA          3.9963  -13.2631  -41.4064 C.3       4 UNK         0.1400 
     53 CB          4.5749  -13.8004  -40.0817 C.3       4 UNK        -0.1800 
     54 N           4.8620  -13.6316  -42.5201 N.am      4 UNK        -0.5000 
     55 C           6.0755  -13.1409  -42.7942 C.2       3 UNK         0.5000 
     56 O           6.6225  -12.2569  -42.1338 O.2       3 UNK        -0.5000 
     57 CA          6.8117  -13.7479  -44.0054 C.3       3 UNK         0.1400 
     58 CB          7.7793  -14.8480  -43.5409 C.3       3 UNK        -0.1800 
     59 N           5.8996  -14.3140  -45.0023 N.am      3 UNK        -0.5000 
     60 C           5.1950  -13.5910  -45.8826 C.2       2 UNK         0.5000 
     61 O           5.3135  -12.3686  -46.0004 O.2       2 UNK        -0.5000 
     62 CA          4.2306  -14.3775  -46.8017 C.3       2 UNK         0.1400 
     63 CB          3.5213  -15.5333  -46.0640 C.3       2 UNK        -0.1800 
     64 N           3.2492  -13.5226  -47.4830 N.am      2 UNK        -0.5000 
     65 C           2.3212  -12.7376  -46.9156 C.2       1 UNK         0.5000 
     66 O           2.1148  -12.6653  -45.7010 O.2       1 UNK        -0.5000 
     67 C          -0.4762  -21.9533  -47.3416 C.2       11 UNK         0.5000 
     68 O          -0.6327  -22.8939  -48.1176 O.2       11 UNK        -0.5000 
     69 N          -1.4585  -21.1066  -47.0025 N.am      12 UNK        -0.5000 
     70 CA         -2.8195  -21.1706  -47.5398 C.3       12 UNK         0.1400 
     71 CB         -3.5995  -19.9196  -47.1105 C.3       12 UNK        -0.1800 
     72 C          -3.5839  -22.4515  -47.1504 C.2       12 UNK         0.5000 
     73 O          -4.4360  -22.8986  -47.9154 O.2       12 UNK        -0.5000 
     74 N          -3.2704  -23.0309  -45.9838 N.am      13 UNK        -0.5000 
     75 CA         -3.8037  -24.3211  -45.5470 C.3       13 UNK         0.1400 
     76 CB         -3.5571  -24.4944  -44.0405 C.3       13 UNK        -0.1800 
     77 C          -3.2108  -25.5064  -46.3340 C.2       13 UNK         0.5000 
     78 O          -3.9172  -26.4878  -46.5691 O.2       13 UNK        -0.5000 
     79 N          -1.9290  -25.4056  -46.7096 N.am      14 UNK        -0.5000 
     80 CA         -1.2009  -26.4336  -47.4504 C.3       14 UNK         0.1400 
     81 CB          0.3032  -26.2874  -47.1675 C.3       14 UNK        -0.1800 
     82 C          -1.4803  -26.3795  -48.9631 C.2       14 UNK         0.5000 
     83 O          -1.7390  -27.4188  -49.5724 O.2       14 UNK        -0.5000 
     84 N          -1.3936  -25.1777  -49.5436 N.am      15 UNK        -0.5000 
     85 CA         -1.5611  -24.9142  -50.9707 C.3       15 UNK         0.1400 
     86 CB         -0.7477  -23.6594  -51.3282 C.3       15 UNK        -0.1800 
     87 C          -3.0410  -24.7727  -51.3792 C.2       15 UNK         0.5000 
     88 O          -3.9355  -24.7377  -50.5317 O.2       15 UNK        -0.5000 
     89 N          -3.2734  -24.7029  -52.6955 N.am      16 UNK        -0.5000 
     90 CA         -4.5838  -24.6519  -53.3477 C.3       16 UNK         0.1400 
     91 CB         -4.3973  -25.0945  -54.8113 C.3       16 UNK        -0.1800 
     92 C          -5.2739  -23.2734  -53.2413 C.2       16 UNK         0.5000 
     93 O          -5.6290  -22.6850  -54.2656 O.2       16 UNK        -0.5000 
     94 N          -5.4493  -22.7637  -52.0160 N.am      17 UNK        -0.5000 
     95 CA         -6.0413  -21.4517  -51.7334 C.3       17 UNK         0.1400 
     96 CB         -5.9203  -21.1348  -50.2366 C.3       17 UNK        -0.1800 
     97 C          -7.5053  -21.3297  -52.1855 C.2       17 UNK         0.5000 
     98 O          -7.8767  -20.3215  -52.7852 O.2       17 UNK        -0.5000 
     99 N          -8.3049  -22.3653  -51.9056 N.am      18 UNK        -0.5000 
    100 CA        -9.7263  -22.4075  -52.2499 C.3       18 UNK         0.1400 
    101 CB       -10.4185  -23.4726  -51.3853 C.3       18 UNK        -0.1800 
    102 C         -9.9756  -22.6851  -53.7434 C.2       18 UNK         0.5000 
    103 O        -10.9821  -22.2245  -54.2835 O.2       18 UNK        -0.5000 
    104 N         -9.0761  -23.4533  -54.3715 N.am      19 UNK        -0.5000 
    105 CA        -9.2434  -23.9561  -55.7334 C.3       19 UNK         0.1400 
    106 CB        -8.6545  -25.3726  -55.8190 C.3       19 UNK        -0.1800 
    107 C         -8.6148  -23.0476  -56.8020 C.2       19 UNK         0.5000 
    108 O         -9.1820  -22.9360  -57.8900 O.2       19 UNK        -0.5000 
    109 N         -7.4551  -22.4444  -56.5053 N.am      20 UNK        -0.5000 
    110 CA        -6.6297  -21.7512  -57.4988 C.3       20 UNK         0.1400 
    111 CB        -5.6327  -22.7604  -58.1021 C.3       20 UNK        -0.1800 
    112 C         -5.9091  -20.5130  -56.9372 C.2       20 UNK         0.5000 
    113 O         -4.9798  -20.0232  -57.5819 O.2       20 UNK        -0.5000 
    114 N         -6.3054  -20.0379  -55.7449 N.am      21 UNK        -0.5000 
    115 CA        -5.7027  -18.9113  -55.0125 C.3       21 UNK         0.1400 
    116 CB        -6.0106  -17.5784  -55.7262 C.3       21 UNK        -0.1800 
    117 C         -4.1947  -19.1033  -54.7268 C.2       21 UNK         0.5000 
    118 O         -3.4425  -18.1283  -54.6917 O.2       21 UNK        -0.5000 
    119 N         -3.7885  -20.3687  -54.5570 N.am      22 UNK        -0.5000 
    120 CA        -2.4000  -20.8427  -54.4278 C.3       22 UNK         0.1400 
    121 C         -1.5566  -20.7426  -55.7367 C.2       22 UNK         0.5000 
    122 N         -2.1422  -20.4731  -56.8982 N.am      22 UNK        -0.7600 
    123 O         -0.3465  -20.9495  -55.7106 O.2       22 UNK        -0.5000 
    124 C124       -1.6469  -20.2665  -53.1950 C.3       23 UNK        -0.0398 
    125 S125       -2.5366  -20.5565  -51.6289 S.3       23 UNK        -0.2404 
    126 C126       -2.5808  -18.8836  -50.9017 C.3       23 UNK        -0.0205 
    127 H127        1.0783   -8.4073  -45.9097 H         1 UNK         0.0600 
    128 H128       -0.0313   -7.7175  -47.0975 H         1 UNK         0.0600 
    129 H129        1.7078   -7.4442  -47.2494 H         1 UNK         0.0600 
    130 H130        1.4311  -10.6097  -46.2134 H         1 UNK         0.3000 
    131 H131        2.0568  -11.7135  -48.7840 H         1 UNK         0.0600 
    132 H132       -0.5188  -11.7810  -48.7200 H         1 UNK         0.0800 
    133 H133       -0.4194  -12.8202  -47.3322 H         1 UNK         0.0800 
    134 H134       -1.1817  -15.1215  -47.8899 H         1 UNK         0.0800 
    135 H135        0.5046  -15.3106  -47.4572 H         1 UNK         0.0800 
    136 H136       -2.2167  -16.5785  -49.5820 H         1 UNK         0.1150 
    137 H137       -0.0205  -20.0700  -50.7914 H         1 UNK         0.1150 
    138 H138        1.9345  -16.9610  -48.6135 H         1 UNK         0.1150 
    139 H139        2.6895  -19.5063  -50.7976 H         1 UNK         0.0800 
    140 H140        3.1940  -18.8277  -49.2703 H         1 UNK         0.0800 
    141 H141        1.1702  -19.6926  -47.2558 H         1 UNK         0.0800 
    142 H142        2.6282  -20.4603  -46.6913 H         1 UNK         0.0800 
    143 H143        1.4503  -22.6986  -46.8127 H         1 UNK         0.0600 
    144 H144        1.0367  -20.7295  -44.8150 H         1 UNK         0.3000 
    145 H145       -0.5209  -22.9500  -42.4477 H         1 UNK         0.0600 
    146 H146        1.3690  -22.0761  -41.1152 H         1 UNK         0.0600 
    147 H147        2.1765  -21.5005  -42.5719 H         1 UNK         0.0600 
    148 H148        1.9621  -23.2265  -42.3036 H         1 UNK         0.0600 
    149 H149        0.0748  -20.1899  -42.2453 H         1 UNK         0.3000 
    150 H150       -3.0653  -18.9631  -43.5235 H         1 UNK         0.0600 
    151 H151       -3.3354  -19.5851  -41.1119 H         1 UNK         0.0600 
    152 H152       -2.9848  -17.8742  -41.3074 H         1 UNK         0.0600 
    153 H153       -1.7198  -18.9762  -40.7695 H         1 UNK         0.0600 
    154 H154       -0.8262  -17.5246  -42.5931 H         1 UNK         0.3000 
    155 H155        0.8580  -17.1766  -45.7564 H         1 UNK         0.0600 
    156 H156       -0.9266  -15.4359  -45.4468 H         1 UNK         0.0600 
    157 H157        0.6491  -14.8361  -44.9462 H         1 UNK         0.0600 
    158 H158       -0.5359  -15.3259  -43.7444 H         1 UNK         0.0600 
    159 H159        1.6851  -16.3523  -43.1852 H         1 UNK         0.3000 
    160 H160        3.4406  -19.3027  -42.1834 H         1 UNK         0.0600 
    161 H161        4.3657  -16.5083  -43.0425 H         1 UNK         0.0600 
    162 H162        5.0096  -18.0351  -43.6248 H         1 UNK         0.0600 
    163 H163        5.2261  -17.5810  -41.9416 H         1 UNK         0.0600 
    164 H164        2.9357  -16.7242  -40.9921 H         1 UNK         0.3000 
    165 H165        0.0369  -17.7012  -39.1508 H         1 UNK         0.0600 
    166 H166        1.4774  -16.9602  -37.2751 H         1 UNK         0.0600 
    167 H167        1.9879  -18.5445  -37.8354 H         1 UNK         0.0600 
    168 H168        2.9198  -17.1188  -38.2775 H         1 UNK         0.0600 
    169 H169        1.5787  -15.2842  -39.2621 H         1 UNK         0.3000 
    170 H170       -0.1321  -13.7623  -41.9777 H         1 UNK         0.0600 
    171 H171       -0.3245  -13.1683  -38.9769 H         1 UNK         0.0600 
    172 H172       -0.6429  -12.0304  -40.2868 H         1 UNK         0.0600 
    173 H173       -1.6925  -13.4189  -40.0549 H         1 UNK         0.0600 
    174 H174        1.7928  -12.6923  -40.2209 H         1 UNK         0.3000 
    175 H175        3.9054  -12.1760  -41.3664 H         1 UNK         0.0600 
    176 H176        4.6946  -14.8843  -40.1074 H         1 UNK         0.0600 
    177 H177        5.5496  -13.3641  -39.8644 H         1 UNK         0.0600 
    178 H178        3.9262  -13.5605  -39.2386 H         1 UNK         0.0600 
    179 H179        4.4454  -14.3111  -43.1433 H         1 UNK         0.3000 
    180 H180        7.3978  -12.9531  -44.4719 H         1 UNK         0.0600 
    181 H181        8.3532  -15.2479  -44.3771 H         1 UNK         0.0600 
    182 H182        7.2509  -15.6768  -43.0679 H         1 UNK         0.0600 
    183 H183        8.4941  -14.4581  -42.8150 H         1 UNK         0.0600 
    184 H184        5.7827  -15.3162  -44.9885 H         1 UNK         0.3000 
    185 H185        4.8459  -14.8133  -47.5901 H         1 UNK         0.0600 
    186 H186        3.0229  -15.1831  -45.1606 H         1 UNK         0.0600 
    187 H187        2.7712  -16.0031  -46.6965 H         1 UNK         0.0600 
    188 H188        4.2213  -16.3165  -45.7727 H         1 UNK         0.0600 
    189 H189        3.3456  -13.4857  -48.4880 H         1 UNK         0.3000 
    190 H190       -1.2620  -20.3388  -46.3633 H         1 UNK         0.3000 
    191 H191       -2.7388  -21.1615  -48.6283 H         1 UNK         0.0600 
    192 H192       -3.1116  -19.0116  -47.4660 H         1 UNK         0.0600 
    193 H193       -3.6819  -19.8537  -46.0249 H         1 UNK         0.0600 
    194 H194       -4.6103  -19.9280  -47.5198 H         1 UNK         0.0600 
    195 H195       -2.6267  -22.5614  -45.3565 H         1 UNK         0.3000 
    196 H196       -4.8833  -24.3208  -45.7119 H         1 UNK         0.0600 
    197 H197       -4.0494  -23.7080  -43.4683 H         1 UNK         0.0600 
    198 H198       -2.4940  -24.4673  -43.8001 H         1 UNK         0.0600 
    199 H199       -3.9505  -25.4482  -43.6868 H         1 UNK         0.0600 
    200 H200       -1.4164  -24.5656  -46.4723 H         1 UNK         0.3000 
    201 H201       -1.5118  -27.4159  -47.0880 H         1 UNK         0.0600 
    202 H202        0.5155  -26.4011  -46.1043 H         1 UNK         0.0600 
    203 H203        0.6811  -25.3126  -47.4786 H         1 UNK         0.0600 
    204 H204        0.8769  -27.0480  -47.6983 H         1 UNK         0.0600 
    205 H205       -1.1923  -24.3649  -48.9628 H         1 UNK         0.3000 
    206 H206       -1.1473  -25.7541  -51.5327 H         1 UNK         0.0600 
    207 H207       -1.0640  -22.8020  -50.7363 H         1 UNK         0.0600 
    208 H208        0.3140  -23.8136  -51.1347 H         1 UNK         0.0600 
    209 H209       -0.8486  -23.3923  -52.3803 H         1 UNK         0.0600 
    210 H210       -2.4801  -24.7198  -53.3193 H         1 UNK         0.3000 
    211 H211       -5.2420  -25.3744  -52.8610 H         1 UNK         0.0600 
    212 H212       -3.7225  -24.4274  -55.3495 H         1 UNK         0.0600 
    213 H213       -5.3434  -25.1013  -55.3508 H         1 UNK         0.0600 
    214 H214       -3.9883  -26.1034  -54.8697 H         1 UNK         0.0600 
    215 H215       -5.0940  -23.2954  -51.2260 H         1 UNK         0.3000 
    216 H216       -5.4682  -20.7025  -52.2808 H         1 UNK         0.0600 
    217 H217       -6.3353  -20.1526  -50.0074 H         1 UNK         0.0600 
    218 H218       -4.8786  -21.1255  -49.9212 H         1 UNK         0.0600 
    219 H219       -6.4464  -21.8678  -49.6240 H         1 UNK         0.0600 
    220 H220       -7.9239  -23.1564  -51.4072 H         1 UNK         0.3000 
    221 H221      -10.1727  -21.4389  -52.0136 H         1 UNK         0.0600 
    222 H222      -11.4874  -23.5149  -51.5992 H         1 UNK         0.0600 
    223 H223      -10.0084  -24.4673  -51.5645 H         1 UNK         0.0600 
    224 H224      -10.3098  -23.2502  -50.3236 H         1 UNK         0.0600 
    225 H225       -8.2673  -23.7681  -53.8581 H         1 UNK         0.3000 
    226 H226      -10.3087  -24.0364  -55.9620 H         1 UNK         0.0600 
    227 H227       -9.1668  -26.0527  -55.1383 H         1 UNK         0.0600 
    228 H228       -8.7602  -25.7808  -56.8251 H         1 UNK         0.0600 
    229 H229       -7.5949  -25.3856  -55.5693 H         1 UNK         0.0600 
    230 H230       -7.0195  -22.5944  -55.5996 H         1 UNK         0.3000 
    231 H231       -7.2605  -21.3716  -58.3050 H         1 UNK         0.0600 
    232 H232       -5.0338  -22.3062  -58.8923 H         1 UNK         0.0600 
    233 H233       -6.1494  -23.6129  -58.5431 H         1 UNK         0.0600 
    234 H234       -4.9461  -23.1405  -57.3445 H         1 UNK         0.0600 
    235 H235       -7.0674  -20.5052  -55.2733 H         1 UNK         0.3000 
    236 H236       -6.1852  -18.8723  -54.0372 H         1 UNK         0.0600 
    237 H237       -5.5029  -17.5066  -56.6884 H         1 UNK         0.0600 
    238 H238       -7.0802  -17.4640  -55.9014 H         1 UNK         0.0600 
    239 H239       -5.6900  -16.7280  -55.1234 H         1 UNK         0.0600 
    240 H240       -4.4905  -21.0998  -54.6057 H         1 UNK         0.3000 
    241 H241       -2.4942  -21.9159  -54.2593 H         1 UNK         0.0600 
    242 H242       -1.5774  -20.4261  -57.7310 H         1 UNK         0.3800 
    243 H243       -3.1395  -20.2958  -56.9653 H         1 UNK         0.3800 
    244 H244       -1.4542  -19.2010  -53.3245 H         1 UNK         0.0800 
    245 H245       -0.6672  -20.7364  -53.0965 H         1 UNK         0.0800 
    246 H246       -3.3539  -18.8828  -50.1324 H         1 UNK         0.0800 
    247 H247       -2.9075  -18.1744  -51.6638 H         1 UNK         0.0800 
@<TRIPOS>BOND
     1    1    2 1    
     2    1  127 1    
     3    1  128 1    
     4    1  129 1    
     5    2    3 2    
     6    2    4 am   BACKBONE|DICT|INTERRES
     7    4    5 1    
     8    4  130 1    
     9    5    6 1    
    10    5   65 1    
    11    5  131 1    
    12    6    7 1    
    13    6  132 1    
    14    6  133 1    
    15    7    8 1    
    16    8    9 1    
    17    8  134 1    
    18    8  135 1    
    19    9   10 ar   
    20    9   14 ar   
    21   10   11 ar   
    22   10  136 1    
    23   11   12 ar   
    24   11  126 1    
    25   12   13 ar   
    26   12  137 1    
    27   13   14 ar   
    28   13   15 1    
    29   14  138 1    
    30   15   16 1    
    31   15  139 1    
    32   15  140 1    
    33   16   17 1    
    34   17   18 1    
    35   17  141 1    
    36   17  142 1    
    37   18   19 1    
    38   18   67 1    
    39   18  143 1    
    40   19   20 am   BACKBONE|DICT|INTERRES
    41   19  144 1    
    42   20   21 2    
    43   20   22 1    
    44   22   23 1    
    45   22   24 1    
    46   22  145 1    
    47   23  146 1    
    48   23  147 1    
    49   23  148 1    
    50   24   25 am   BACKBONE|DICT|INTERRES
    51   24  149 1    
    52   25   26 2    
    53   25   27 1    
    54   27   28 1    
    55   27   29 1    
    56   27  150 1    
    57   28  151 1    
    58   28  152 1    
    59   28  153 1    
    60   29   30 am   BACKBONE|DICT|INTERRES
    61   29  154 1    
    62   30   31 2    
    63   30   32 1    
    64   32   33 1    
    65   32   34 1    
    66   32  155 1    
    67   33  156 1    
    68   33  157 1    
    69   33  158 1    
    70   34   35 am   BACKBONE|DICT|INTERRES
    71   34  159 1    
    72   35   36 2    
    73   35   37 1    
    74   37   38 1    
    75   37   39 1    
    76   37  160 1    
    77   38  161 1    
    78   38  162 1    
    79   38  163 1    
    80   39   40 am   BACKBONE|DICT|INTERRES
    81   39  164 1    
    82   40   41 2    
    83   40   42 1    
    84   42   43 1    
    85   42   44 1    
    86   42  165 1    
    87   43  166 1    
    88   43  167 1    
    89   43  168 1    
    90   44   45 am   BACKBONE|DICT|INTERRES
    91   44  169 1    
    92   45   46 2    
    93   45   47 1    
    94   47   48 1    
    95   47   49 1    
    96   47  170 1    
    97   48  171 1    
    98   48  172 1    
    99   48  173 1    
   100   49   50 am   BACKBONE|DICT|INTERRES
   101   49  174 1    
   102   50   51 2    
   103   50   52 1    
   104   52   53 1    
   105   52   54 1    
   106   52  175 1    
   107   53  176 1    
   108   53  177 1    
   109   53  178 1    
   110   54   55 am   BACKBONE|DICT|INTERRES
   111   54  179 1    
   112   55   56 2    
   113   55   57 1    
   114   57   58 1    
   115   57   59 1    
   116   57  180 1    
   117   58  181 1    
   118   58  182 1    
   119   58  183 1    
   120   59   60 am   BACKBONE|DICT|INTERRES
   121   59  184 1    
   122   60   61 2    
   123   60   62 1    
   124   62   63 1    
   125   62   64 1    
   126   62  185 1    
   127   63  186 1    
   128   63  187 1    
   129   63  188 1    
   130   64   65 am   BACKBONE|DICT|INTERRES
   131   64  189 1    
   132   65   66 2    
   133   67   68 2    
   134   67   69 am   BACKBONE|DICT|INTERRES
   135   69   70 1    
   136   69  190 1    
   137   70   71 1    
   138   70   72 1    
   139   70  191 1    
   140   71  192 1    
   141   71  193 1    
   142   71  194 1    
   143   72   73 2    
   144   72   74 am   BACKBONE|DICT|INTERRES
   145   74   75 1    
   146   74  195 1    
   147   75   76 1    
   148   75   77 1    
   149   75  196 1    
   150   76  197 1    
   151   76  198 1    
   152   76  199 1    
   153   77   78 2    
   154   77   79 am   BACKBONE|DICT|INTERRES
   155   79   80 1    
   156   79  200 1    
   157   80   81 1    
   158   80   82 1    
   159   80  201 1    
   160   81  202 1    
   161   81  203 1    
   162   81  204 1    
   163   82   83 2    
   164   82   84 am   BACKBONE|DICT|INTERRES
   165   84   85 1    
   166   84  205 1    
   167   85   86 1    
   168   85   87 1    
   169   85  206 1    
   170   86  207 1    
   171   86  208 1    
   172   86  209 1    
   173   87   88 2    
   174   87   89 am   BACKBONE|DICT|INTERRES
   175   89   90 1    
   176   89  210 1    
   177   90   91 1    
   178   90   92 1    
   179   90  211 1    
   180   91  212 1    
   181   91  213 1    
   182   91  214 1    
   183   92   93 2    
   184   92   94 am   BACKBONE|DICT|INTERRES
   185   94   95 1    
   186   94  215 1    
   187   95   96 1    
   188   95   97 1    
   189   95  216 1    
   190   96  217 1    
   191   96  218 1    
   192   96  219 1    
   193   97   98 2    
   194   97   99 am   BACKBONE|DICT|INTERRES
   195   99  100 1    
   196   99  220 1    
   197  100  101 1    
   198  100  102 1    
   199  100  221 1    
   200  101  222 1    
   201  101  223 1    
   202  101  224 1    
   203  102  103 2    
   204  102  104 am   BACKBONE|DICT|INTERRES
   205  104  105 1    
   206  104  225 1    
   207  105  106 1    
   208  105  107 1    
   209  105  226 1    
   210  106  227 1    
   211  106  228 1    
   212  106  229 1    
   213  107  108 2    
   214  107  109 am   BACKBONE|DICT|INTERRES
   215  109  110 1    
   216  109  230 1    
   217  110  111 1    
   218  110  112 1    
   219  110  231 1    
   220  111  232 1    
   221  111  233 1    
   222  111  234 1    
   223  112  113 2    
   224  112  114 am   BACKBONE|DICT|INTERRES
   225  114  115 1    
   226  114  235 1    
   227  115  116 1    
   228  115  117 1    
   229  115  236 1    
   230  116  237 1    
   231  116  238 1    
   232  116  239 1    
   233  117  118 2    
   234  117  119 am   BACKBONE|DICT|INTERRES
   235  119  120 1    
   236  119  240 1    
   237  120  121 1    
   238  120  124 1    
   239  120  241 1    
   240  121  122 am   BACKBONE|DICT|INTERRES
   241  121  123 2    
   242  122  242 1    
   243  122  243 1    
   244  124  125 1    
   245  124  244 1    
   246  124  245 1    
   247  125  126 1    
   248  126  246 1    
   249  126  247 1    
@<TRIPOS>SUBSTRUCTURE
     1 UNK         1 GROUP             0       ****    0 ROOT    
