@<TRIPOS>MOLECULE
3R540
247   249    1
SMALL
USER_CHARGES


@<TRIPOS>ATOM
      1 CA         -0.3915  -13.9853  -53.1924 C.3       0 UNK        -0.1800 
      2 C          -0.3535  -13.3694  -51.8005 C.2       0 UNK         0.5000 
      3 O          -0.8939  -12.2818  -51.5961 O.2       0 UNK        -0.5000 
      4 N           0.2941  -14.0530  -50.8500 N.am      1 UNK        -0.5000 
      5 CA          0.3936  -13.6503  -49.4430 C.3       1 UNK         0.1400 
      6 C6          1.5277  -14.3979  -48.6934 C.3       23 UNK        -0.0398 
      7 S7          3.1585  -14.2010  -49.4937 S.3       23 UNK        -0.2404 
      8 C8          3.9601  -15.8067  -49.1363 C.3       23 UNK        -0.0205 
      9 C9          3.2432  -17.0443  -49.6800 C.ar      23 UNK        -0.0193 
     10 C10         2.3735  -16.9840  -50.7771 C.ar      23 UNK        -0.1150 
     11 C11         1.6852  -18.1199  -51.2087 C.ar      23 UNK        -0.0193 
     12 C12         1.9203  -19.3413  -50.5748 C.ar      23 UNK        -0.1150 
     13 C13         2.8320  -19.4342  -49.5217 C.ar      23 UNK        -0.0193 
     14 C14         3.4734  -18.2799  -49.0648 C.ar      23 UNK        -0.1150 
     15 C15         3.1416  -20.7913  -48.9121 C.3       23 UNK        -0.0205 
     16 S16         1.7632  -21.4081  -47.9050 S.3       23 UNK        -0.2404 
     17 C17         2.1727  -23.1855  -47.8669 C.3       23 UNK        -0.0398 
     18 CA          1.4208  -24.0102  -46.7928 C.3       11 UNK         0.1400 
     19 N           1.7828  -23.5818  -45.4407 N.am      11 UNK        -0.5000 
     20 C           2.3513  -24.3654  -44.5165 C.2       10 UNK         0.5000 
     21 O           2.6313  -25.5516  -44.7044 O.2       10 UNK        -0.5000 
     22 CA          2.6629  -23.7059  -43.1586 C.3       10 UNK         0.1400 
     23 CB          3.4781  -24.6070  -42.2078 C.3       10 UNK        -0.1800 
     24 N           3.2975  -22.3952  -43.3021 N.am      10 UNK        -0.5000 
     25 C           4.4787  -22.0874  -43.8563 C.2       9 UNK         0.5000 
     26 O           5.2567  -22.9147  -44.3323 O.2       9 UNK        -0.5000 
     27 CA          4.8609  -20.5904  -43.8774 C.3       9 UNK         0.1400 
     28 CB          4.6501  -20.0028  -45.2820 C.3       9 UNK        -0.1800 
     29 N           4.1100  -19.7880  -42.9056 N.am      9 UNK        -0.5000 
     30 C           4.2818  -19.8331  -41.5760 C.2       8 UNK         0.5000 
     31 O           5.1764  -20.4746  -41.0242 O.2       8 UNK        -0.5000 
     32 CA          3.2484  -19.0773  -40.7164 C.3       8 UNK         0.1400 
     33 CB          3.6373  -17.6010  -40.5456 C.3       8 UNK        -0.1800 
     34 N           1.8923  -19.1748  -41.2633 N.am      8 UNK        -0.5000 
     35 C           1.1757  -20.3079  -41.3053 C.2       7 UNK         0.5000 
     36 O           1.5516  -21.3710  -40.8127 O.2       7 UNK        -0.5000 
     37 CA         -0.1608  -20.2679  -42.0654 C.3       7 UNK         0.1400 
     38 CB         -1.2972  -19.7996  -41.1448 C.3       7 UNK        -0.1800 
     39 N          -0.0981  -19.4243  -43.2606 N.am      7 UNK        -0.5000 
     40 C           0.6074  -19.7202  -44.3622 C.2       6 UNK         0.5000 
     41 O           1.2061  -20.7840  -44.5111 O.2       6 UNK        -0.5000 
     42 CA          0.6985  -18.6407  -45.4599 C.3       6 UNK         0.1400 
     43 CB         -0.4553  -18.7675  -46.4546 C.3       6 UNK        -0.1800 
     44 N           0.7200  -17.2824  -44.9238 N.am      6 UNK        -0.5000 
     45 C           1.7125  -16.7826  -44.1782 C.2       5 UNK         0.5000 
     46 O           2.7478  -17.3962  -43.9225 O.2       5 UNK        -0.5000 
     47 CA          1.4751  -15.3932  -43.5641 C.3       5 UNK         0.1400 
     48 CB          1.8096  -14.2775  -44.5648 C.3       5 UNK        -0.1800 
     49 N           0.0951  -15.2422  -43.0996 N.am      5 UNK        -0.5000 
     50 C          -0.4013  -15.8478  -42.0121 C.2       4 UNK         0.5000 
     51 O           0.2720  -16.5568  -41.2641 O.2       4 UNK        -0.5000 
     52 CA         -1.9049  -15.6564  -41.7325 C.3       4 UNK         0.1400 
     53 CB         -2.1470  -14.3531  -40.9571 C.3       4 UNK        -0.1800 
     54 N          -2.7158  -15.6506  -42.9523 N.am      4 UNK        -0.5000 
     55 C          -2.9219  -16.7228  -43.7307 C.2       3 UNK         0.5000 
     56 O          -2.4814  -17.8408  -43.4767 O.2       3 UNK        -0.5000 
     57 CA         -3.7036  -16.5023  -45.0409 C.3       3 UNK         0.1400 
     58 CB         -5.2078  -16.7158  -44.8204 C.3       3 UNK        -0.1800 
     59 N          -3.4786  -15.1870  -45.6482 N.am      3 UNK        -0.5000 
     60 C          -2.2828  -14.7299  -46.0417 C.2       2 UNK         0.5000 
     61 O          -1.2270  -15.3455  -45.8720 O.2       2 UNK        -0.5000 
     62 CA         -2.2576  -13.3260  -46.6748 C.3       2 UNK         0.1400 
     63 CB         -2.1662  -12.2554  -45.5761 C.3       2 UNK        -0.1800 
     64 N          -1.1273  -13.1567  -47.5888 N.am      2 UNK        -0.5000 
     65 C          -0.9510  -13.8597  -48.7151 C.2       1 UNK         0.5000 
     66 O          -1.7789  -14.6616  -49.1560 O.2       1 UNK        -0.5000 
     67 C          -0.1107  -23.9891  -46.9852 C.2       11 UNK         0.5000 
     68 O          -0.8355  -23.3761  -46.1968 O.2       11 UNK        -0.5000 
     69 N          -0.5777  -24.6493  -48.0568 N.am      12 UNK        -0.5000 
     70 CA         -1.9923  -24.8167  -48.4192 C.3       12 UNK         0.1400 
     71 CB         -2.0875  -25.7380  -49.6442 C.3       12 UNK        -0.1800 
     72 C          -2.7558  -23.5043  -48.6846 C.2       12 UNK         0.5000 
     73 O          -3.9824  -23.4785  -48.5614 O.2       12 UNK        -0.5000 
     74 N          -2.0260  -22.4213  -48.9876 N.am      13 UNK        -0.5000 
     75 CA         -2.5622  -21.0673  -49.1332 C.3       13 UNK         0.1400 
     76 CB         -1.4883  -20.1443  -49.7245 C.3       13 UNK        -0.1800 
     77 C          -3.1661  -20.4881  -47.8370 C.2       13 UNK         0.5000 
     78 O          -3.9020  -19.5077  -47.9156 O.2       13 UNK        -0.5000 
     79 N          -2.9002  -21.1149  -46.6808 N.am      14 UNK        -0.5000 
     80 CA         -3.5750  -20.8291  -45.4144 C.3       14 UNK         0.1400 
     81 CB         -2.8774  -21.6087  -44.2923 C.3       14 UNK        -0.1800 
     82 C          -5.0730  -21.1898  -45.4513 C.2       14 UNK         0.5000 
     83 O          -5.8798  -20.4947  -44.8343 O.2       14 UNK        -0.5000 
     84 N          -5.4124  -22.2630  -46.1793 N.am      15 UNK        -0.5000 
     85 CA         -6.7798  -22.7396  -46.3725 C.3       15 UNK         0.1400 
     86 CB         -6.7782  -24.2761  -46.4084 C.3       15 UNK        -0.1800 
     87 C          -7.3877  -22.1694  -47.6633 C.2       15 UNK         0.5000 
     88 O          -8.5456  -21.7515  -47.6557 O.2       15 UNK        -0.5000 
     89 N          -6.5972  -22.1532  -48.7466 N.am      16 UNK        -0.5000 
     90 CA         -7.0218  -21.7008  -50.0749 C.3       16 UNK         0.1400 
     91 CB         -6.1275  -22.3656  -51.1338 C.3       16 UNK        -0.1800 
     92 C          -7.0249  -20.1681  -50.2496 C.2       16 UNK         0.5000 
     93 O          -7.4320  -19.6904  -51.3091 O.2       16 UNK        -0.5000 
     94 N          -6.5267  -19.4255  -49.2485 N.am      17 UNK        -0.5000 
     95 CA         -6.3961  -17.9605  -49.1918 C.3       17 UNK         0.1400 
     96 CB         -7.7896  -17.3031  -49.1190 C.3       17 UNK        -0.1800 
     97 C          -5.5222  -17.3708  -50.3230 C.2       17 UNK         0.5000 
     98 O          -5.7111  -16.2157  -50.7063 O.2       17 UNK        -0.5000 
     99 N          -4.6186  -18.2030  -50.8657 N.am      18 UNK        -0.5000 
    100 CA        -3.7821  -17.9918  -52.0545 C.3       18 UNK         0.1400 
    101 CB        -2.7770  -16.8446  -51.8211 C.3       18 UNK        -0.1800 
    102 C         -4.5766  -17.8036  -53.3695 C.2       18 UNK         0.5000 
    103 O         -3.9825  -17.4253  -54.3801 O.2       18 UNK        -0.5000 
    104 N         -5.8930  -18.0635  -53.3534 N.am      19 UNK        -0.5000 
    105 CA        -6.7917  -17.8306  -54.4833 C.3       19 UNK         0.1400 
    106 CB        -8.2326  -17.6934  -53.9679 C.3       19 UNK        -0.1800 
    107 C         -6.6968  -18.9365  -55.5456 C.2       19 UNK         0.5000 
    108 O         -6.7859  -18.6389  -56.7375 O.2       19 UNK        -0.5000 
    109 N         -6.5179  -20.1873  -55.0981 N.am      20 UNK        -0.5000 
    110 CA        -6.3494  -21.3497  -55.9696 C.3       20 UNK         0.1400 
    111 CB        -6.6468  -22.6367  -55.1825 C.3       20 UNK        -0.1800 
    112 C         -4.9397  -21.3863  -56.5831 C.2       20 UNK         0.5000 
    113 O         -4.8054  -21.4507  -57.8055 O.2       20 UNK        -0.5000 
    114 N         -3.9248  -21.3249  -55.7141 N.am      21 UNK        -0.5000 
    115 CA        -2.4969  -21.3653  -56.0125 C.3       21 UNK         0.1400 
    116 CB        -2.1109  -22.7100  -56.6678 C.3       21 UNK        -0.1800 
    117 C         -1.7292  -21.1835  -54.6936 C.2       21 UNK         0.5000 
    118 O         -2.3305  -21.2538  -53.6163 O.2       21 UNK        -0.5000 
    119 N         -0.4122  -20.9865  -54.8035 N.am      22 UNK        -0.5000 
    120 CA         0.5314  -21.0757  -53.6828 C.3       22 UNK         0.1400 
    121 C          0.9875  -22.5446  -53.4767 C.2       22 UNK         0.5000 
    122 N          1.0022  -23.0369  -52.2448 N.am      22 UNK        -0.7600 
    123 O          1.3631  -23.2314  -54.4249 O.2       22 UNK        -0.5000 
    124 C124        1.7599  -20.1502  -53.8822 C.3       23 UNK        -0.0398 
    125 S125        1.3457  -18.3728  -53.9774 S.3       23 UNK        -0.2404 
    126 C126        0.6591  -18.0140  -52.3276 C.3       23 UNK        -0.0205 
    127 H127        0.3239  -14.8011  -53.2947 H         1 UNK         0.0600 
    128 H128       -0.1499  -13.2331  -53.9435 H         1 UNK         0.0600 
    129 H129       -1.3883  -14.3719  -53.4048 H         1 UNK         0.0600 
    130 H130        0.6937  -14.9512  -51.0690 H         1 UNK         0.3000 
    131 H131        0.6215  -12.5823  -49.4188 H         1 UNK         0.0600 
    132 H132        1.6240  -14.0187  -47.6762 H         1 UNK         0.0800 
    133 H133        1.2849  -15.4575  -48.5962 H         1 UNK         0.0800 
    134 H134        4.0698  -15.8939  -48.0540 H         1 UNK         0.0800 
    135 H135        4.9696  -15.7870  -49.5483 H         1 UNK         0.0800 
    136 H136        2.2136  -16.0490  -51.2908 H         1 UNK         0.1150 
    137 H137        1.4013  -20.2286  -50.9024 H         1 UNK         0.1150 
    138 H138        4.1640  -18.3460  -48.2356 H         1 UNK         0.1150 
    139 H139        3.3514  -21.4963  -49.7181 H         1 UNK         0.0800 
    140 H140        4.0424  -20.7471  -48.2986 H         1 UNK         0.0800 
    141 H141        3.2464  -23.2857  -47.6999 H         1 UNK         0.0800 
    142 H142        1.9922  -23.5992  -48.8601 H         1 UNK         0.0800 
    143 H143        1.7188  -25.0508  -46.9349 H         1 UNK         0.0600 
    144 H144        1.5424  -22.6225  -45.2024 H         1 UNK         0.3000 
    145 H145        1.6970  -23.5225  -42.6861 H         1 UNK         0.0600 
    146 H146        3.6528  -24.1115  -41.2526 H         1 UNK         0.0600 
    147 H147        2.9461  -25.5357  -41.9984 H         1 UNK         0.0600 
    148 H148        4.4472  -24.8732  -42.6304 H         1 UNK         0.0600 
    149 H149        2.7227  -21.6158  -43.0122 H         1 UNK         0.3000 
    150 H150        5.9224  -20.5166  -43.6325 H         1 UNK         0.0600 
    151 H151        5.2651  -20.5225  -46.0174 H         1 UNK         0.0600 
    152 H152        4.9213  -18.9475  -45.3169 H         1 UNK         0.0600 
    153 H153        3.6130  -20.0932  -45.6039 H         1 UNK         0.0600 
    154 H154        3.4055  -19.1600  -43.2804 H         1 UNK         0.3000 
    155 H155        3.2427  -19.5374  -39.7260 H         1 UNK         0.0600 
    156 H156        4.6167  -17.5101  -40.0745 H         1 UNK         0.0600 
    157 H157        2.9214  -17.0755  -39.9133 H         1 UNK         0.0600 
    158 H158        3.6856  -17.0786  -41.5003 H         1 UNK         0.0600 
    159 H159        1.4888  -18.3273  -41.6442 H         1 UNK         0.3000 
    160 H160       -0.3853  -21.2883  -42.3821 H         1 UNK         0.0600 
    161 H161       -1.1425  -18.7787  -40.7975 H         1 UNK         0.0600 
    162 H162       -1.3721  -20.4373  -40.2633 H         1 UNK         0.0600 
    163 H163       -2.2601  -19.8373  -41.6534 H         1 UNK         0.0600 
    164 H164       -0.6627  -18.5815  -43.2519 H         1 UNK         0.3000 
    165 H165        1.6297  -18.8018  -46.0064 H         1 UNK         0.0600 
    166 H166       -1.4163  -18.5662  -45.9840 H         1 UNK         0.0600 
    167 H167       -0.3371  -18.0814  -47.2937 H         1 UNK         0.0600 
    168 H168       -0.4891  -19.7781  -46.8563 H         1 UNK         0.0600 
    169 H169       -0.0777  -16.6888  -45.1350 H         1 UNK         0.3000 
    170 H170        2.1443  -15.2895  -42.7072 H         1 UNK         0.0600 
    171 H171        2.8270  -14.3832  -44.9438 H         1 UNK         0.0600 
    172 H172        1.1364  -14.2898  -45.4204 H         1 UNK         0.0600 
    173 H173        1.7361  -13.2957  -44.0971 H         1 UNK         0.0600 
    174 H174       -0.5344  -14.7392  -43.7079 H         1 UNK         0.3000 
    175 H175       -2.2352  -16.4895  -41.1086 H         1 UNK         0.0600 
    176 H176       -1.5687  -14.3364  -40.0322 H         1 UNK         0.0600 
    177 H177       -1.8601  -13.4767  -41.5397 H         1 UNK         0.0600 
    178 H178       -3.1970  -14.2462  -40.6841 H         1 UNK         0.0600 
    179 H179       -3.1155  -14.7677  -43.2332 H         1 UNK         0.3000 
    180 H180       -3.3621  -17.2527  -45.7564 H         1 UNK         0.0600 
    181 H181       -5.4020  -17.6973  -44.3854 H         1 UNK         0.0600 
    182 H182       -5.6272  -15.9683  -44.1461 H         1 UNK         0.0600 
    183 H183       -5.7556  -16.6676  -45.7618 H         1 UNK         0.0600 
    184 H184       -4.2977  -14.6168  -45.8021 H         1 UNK         0.3000 
    185 H185       -3.1797  -13.1793  -47.2411 H         1 UNK         0.0600 
    186 H186       -3.0097  -12.3239  -44.8879 H         1 UNK         0.0600 
    187 H187       -1.2533  -12.3586  -44.9876 H         1 UNK         0.0600 
    188 H188       -2.1792  -11.2517  -46.0014 H         1 UNK         0.0600 
    189 H189       -0.4001  -12.5277  -47.2824 H         1 UNK         0.3000 
    190 H190        0.0811  -25.1281  -48.6538 H         1 UNK         0.3000 
    191 H191       -2.4894  -25.3092  -47.5811 H         1 UNK         0.0600 
    192 H192       -1.5796  -25.3101  -50.5097 H         1 UNK         0.0600 
    193 H193       -3.1276  -25.9091  -49.9260 H         1 UNK         0.0600 
    194 H194       -1.6444  -26.7132  -49.4414 H         1 UNK         0.0600 
    195 H195       -1.0234  -22.5212  -49.0306 H         1 UNK         0.3000 
    196 H196       -3.3789  -21.1140  -49.8537 H         1 UNK         0.0600 
    197 H197       -1.8363  -19.1123  -49.7746 H         1 UNK         0.0600 
    198 H198       -1.2337  -20.4498  -50.7385 H         1 UNK         0.0600 
    199 H199       -0.5751  -20.1492  -49.1333 H         1 UNK         0.0600 
    200 H200       -2.2508  -21.8944  -46.6774 H         1 UNK         0.3000 
    201 H201       -3.4833  -19.7614  -45.2084 H         1 UNK         0.0600 
    202 H202       -3.2746  -21.3287  -43.3165 H         1 UNK         0.0600 
    203 H203       -3.0076  -22.6856  -44.4070 H         1 UNK         0.0600 
    204 H204       -1.8080  -21.4095  -44.2852 H         1 UNK         0.0600 
    205 H205       -4.6902  -22.7514  -46.6941 H         1 UNK         0.3000 
    206 H206       -7.4065  -22.4247  -45.5353 H         1 UNK         0.0600 
    207 H207       -6.3944  -24.6898  -45.4757 H         1 UNK         0.0600 
    208 H208       -7.7884  -24.6641  -46.5445 H         1 UNK         0.0600 
    209 H209       -6.1649  -24.6635  -47.2229 H         1 UNK         0.0600 
    210 H210       -5.6685  -22.5605  -48.6802 H         1 UNK         0.3000 
    211 H211       -8.0456  -22.0400  -50.2461 H         1 UNK         0.0600 
    212 H212       -6.4627  -22.1111  -52.1390 H         1 UNK         0.0600 
    213 H213       -6.1576  -23.4521  -51.0495 H         1 UNK         0.0600 
    214 H214       -5.0877  -22.0536  -51.0467 H         1 UNK         0.0600 
    215 H215       -6.1532  -19.9141  -48.4462 H         1 UNK         0.3000 
    216 H216       -5.8774  -17.7326  -48.2598 H         1 UNK         0.0600 
    217 H217       -7.7094  -16.2325  -48.9274 H         1 UNK         0.0600 
    218 H218       -8.3849  -17.7311  -48.3125 H         1 UNK         0.0600 
    219 H219       -8.3447  -17.4285  -50.0492 H         1 UNK         0.0600 
    220 H220       -4.5538  -19.1168  -50.4436 H         1 UNK         0.3000 
    221 H221       -3.2072  -18.9098  -52.1852 H         1 UNK         0.0600 
    222 H222       -3.2749  -15.8802  -51.7188 H         1 UNK         0.0600 
    223 H223       -2.1850  -17.0080  -50.9209 H         1 UNK         0.0600 
    224 H224       -2.0823  -16.7589  -52.6564 H         1 UNK         0.0600 
    225 H225       -6.3210  -18.4064  -52.5003 H         1 UNK         0.3000 
    226 H226       -6.5158  -16.8862  -54.9577 H         1 UNK         0.0600 
    227 H227       -8.9159  -17.4513  -54.7827 H         1 UNK         0.0600 
    228 H228       -8.5875  -18.6157  -53.5068 H         1 UNK         0.0600 
    229 H229       -8.3125  -16.8970  -53.2276 H         1 UNK         0.0600 
    230 H230       -6.4668  -20.3391  -54.1018 H         1 UNK         0.3000 
    231 H231       -7.0729  -21.2832  -56.7853 H         1 UNK         0.0600 
    232 H232       -7.6523  -22.6188  -54.7616 H         1 UNK         0.0600 
    233 H233       -5.9425  -22.7886  -54.3643 H         1 UNK         0.0600 
    234 H234       -6.5827  -23.5103  -55.8323 H         1 UNK         0.0600 
    235 H235       -4.1165  -21.2543  -54.7225 H         1 UNK         0.3000 
    236 H236       -2.2508  -20.5368  -56.6791 H         1 UNK         0.0600 
    237 H237       -2.5845  -22.8394  -57.6402 H         1 UNK         0.0600 
    238 H238       -1.0352  -22.7782  -56.8340 H         1 UNK         0.0600 
    239 H239       -2.3979  -23.5553  -56.0412 H         1 UNK         0.0600 
    240 H240        0.0045  -20.9638  -55.7226 H         1 UNK         0.3000 
    241 H241        0.0186  -20.7678  -52.7729 H         1 UNK         0.0600 
    242 H242        0.6926  -22.5003  -51.4524 H         1 UNK         0.3800 
    243 H243        1.3134  -23.9864  -52.1125 H         1 UNK         0.3800 
    244 H244        2.4908  -20.2910  -53.0853 H         1 UNK         0.0800 
    245 H245        2.2816  -20.4163  -54.8031 H         1 UNK         0.0800 
    246 H246       -0.1969  -18.6556  -52.1227 H         1 UNK         0.0800 
    247 H247        0.2574  -17.0017  -52.3472 H         1 UNK         0.0800 
@<TRIPOS>BOND
     1    1    2 1    
     2    1  127 1    
     3    1  128 1    
     4    1  129 1    
     5    2    3 2    
     6    2    4 am   BACKBONE|DICT|INTERRES
     7    4    5 1    
     8    4  130 1    
     9    5    6 1    
    10    5   65 1    
    11    5  131 1    
    12    6    7 1    
    13    6  132 1    
    14    6  133 1    
    15    7    8 1    
    16    8    9 1    
    17    8  134 1    
    18    8  135 1    
    19    9   10 ar   
    20    9   14 ar   
    21   10   11 ar   
    22   10  136 1    
    23   11   12 ar   
    24   11  126 1    
    25   12   13 ar   
    26   12  137 1    
    27   13   14 ar   
    28   13   15 1    
    29   14  138 1    
    30   15   16 1    
    31   15  139 1    
    32   15  140 1    
    33   16   17 1    
    34   17   18 1    
    35   17  141 1    
    36   17  142 1    
    37   18   19 1    
    38   18   67 1    
    39   18  143 1    
    40   19   20 am   BACKBONE|DICT|INTERRES
    41   19  144 1    
    42   20   21 2    
    43   20   22 1    
    44   22   23 1    
    45   22   24 1    
    46   22  145 1    
    47   23  146 1    
    48   23  147 1    
    49   23  148 1    
    50   24   25 am   BACKBONE|DICT|INTERRES
    51   24  149 1    
    52   25   26 2    
    53   25   27 1    
    54   27   28 1    
    55   27   29 1    
    56   27  150 1    
    57   28  151 1    
    58   28  152 1    
    59   28  153 1    
    60   29   30 am   BACKBONE|DICT|INTERRES
    61   29  154 1    
    62   30   31 2    
    63   30   32 1    
    64   32   33 1    
    65   32   34 1    
    66   32  155 1    
    67   33  156 1    
    68   33  157 1    
    69   33  158 1    
    70   34   35 am   BACKBONE|DICT|INTERRES
    71   34  159 1    
    72   35   36 2    
    73   35   37 1    
    74   37   38 1    
    75   37   39 1    
    76   37  160 1    
    77   38  161 1    
    78   38  162 1    
    79   38  163 1    
    80   39   40 am   BACKBONE|DICT|INTERRES
    81   39  164 1    
    82   40   41 2    
    83   40   42 1    
    84   42   43 1    
    85   42   44 1    
    86   42  165 1    
    87   43  166 1    
    88   43  167 1    
    89   43  168 1    
    90   44   45 am   BACKBONE|DICT|INTERRES
    91   44  169 1    
    92   45   46 2    
    93   45   47 1    
    94   47   48 1    
    95   47   49 1    
    96   47  170 1    
    97   48  171 1    
    98   48  172 1    
    99   48  173 1    
   100   49   50 am   BACKBONE|DICT|INTERRES
   101   49  174 1    
   102   50   51 2    
   103   50   52 1    
   104   52   53 1    
   105   52   54 1    
   106   52  175 1    
   107   53  176 1    
   108   53  177 1    
   109   53  178 1    
   110   54   55 am   BACKBONE|DICT|INTERRES
   111   54  179 1    
   112   55   56 2    
   113   55   57 1    
   114   57   58 1    
   115   57   59 1    
   116   57  180 1    
   117   58  181 1    
   118   58  182 1    
   119   58  183 1    
   120   59   60 am   BACKBONE|DICT|INTERRES
   121   59  184 1    
   122   60   61 2    
   123   60   62 1    
   124   62   63 1    
   125   62   64 1    
   126   62  185 1    
   127   63  186 1    
   128   63  187 1    
   129   63  188 1    
   130   64   65 am   BACKBONE|DICT|INTERRES
   131   64  189 1    
   132   65   66 2    
   133   67   68 2    
   134   67   69 am   BACKBONE|DICT|INTERRES
   135   69   70 1    
   136   69  190 1    
   137   70   71 1    
   138   70   72 1    
   139   70  191 1    
   140   71  192 1    
   141   71  193 1    
   142   71  194 1    
   143   72   73 2    
   144   72   74 am   BACKBONE|DICT|INTERRES
   145   74   75 1    
   146   74  195 1    
   147   75   76 1    
   148   75   77 1    
   149   75  196 1    
   150   76  197 1    
   151   76  198 1    
   152   76  199 1    
   153   77   78 2    
   154   77   79 am   BACKBONE|DICT|INTERRES
   155   79   80 1    
   156   79  200 1    
   157   80   81 1    
   158   80   82 1    
   159   80  201 1    
   160   81  202 1    
   161   81  203 1    
   162   81  204 1    
   163   82   83 2    
   164   82   84 am   BACKBONE|DICT|INTERRES
   165   84   85 1    
   166   84  205 1    
   167   85   86 1    
   168   85   87 1    
   169   85  206 1    
   170   86  207 1    
   171   86  208 1    
   172   86  209 1    
   173   87   88 2    
   174   87   89 am   BACKBONE|DICT|INTERRES
   175   89   90 1    
   176   89  210 1    
   177   90   91 1    
   178   90   92 1    
   179   90  211 1    
   180   91  212 1    
   181   91  213 1    
   182   91  214 1    
   183   92   93 2    
   184   92   94 am   BACKBONE|DICT|INTERRES
   185   94   95 1    
   186   94  215 1    
   187   95   96 1    
   188   95   97 1    
   189   95  216 1    
   190   96  217 1    
   191   96  218 1    
   192   96  219 1    
   193   97   98 2    
   194   97   99 am   BACKBONE|DICT|INTERRES
   195   99  100 1    
   196   99  220 1    
   197  100  101 1    
   198  100  102 1    
   199  100  221 1    
   200  101  222 1    
   201  101  223 1    
   202  101  224 1    
   203  102  103 2    
   204  102  104 am   BACKBONE|DICT|INTERRES
   205  104  105 1    
   206  104  225 1    
   207  105  106 1    
   208  105  107 1    
   209  105  226 1    
   210  106  227 1    
   211  106  228 1    
   212  106  229 1    
   213  107  108 2    
   214  107  109 am   BACKBONE|DICT|INTERRES
   215  109  110 1    
   216  109  230 1    
   217  110  111 1    
   218  110  112 1    
   219  110  231 1    
   220  111  232 1    
   221  111  233 1    
   222  111  234 1    
   223  112  113 2    
   224  112  114 am   BACKBONE|DICT|INTERRES
   225  114  115 1    
   226  114  235 1    
   227  115  116 1    
   228  115  117 1    
   229  115  236 1    
   230  116  237 1    
   231  116  238 1    
   232  116  239 1    
   233  117  118 2    
   234  117  119 am   BACKBONE|DICT|INTERRES
   235  119  120 1    
   236  119  240 1    
   237  120  121 1    
   238  120  124 1    
   239  120  241 1    
   240  121  122 am   BACKBONE|DICT|INTERRES
   241  121  123 2    
   242  122  242 1    
   243  122  243 1    
   244  124  125 1    
   245  124  244 1    
   246  124  245 1    
   247  125  126 1    
   248  126  246 1    
   249  126  247 1    
@<TRIPOS>SUBSTRUCTURE
     1 UNK         1 GROUP             0       ****    0 ROOT    
