@<TRIPOS>MOLECULE
3R540
247   249    1
SMALL
USER_CHARGES


@<TRIPOS>ATOM
      1 CA          1.6983  -14.0491  -41.8644 C.3       0 UNK        -0.1800 
      2 C           0.3746  -13.3267  -42.0567 C.2       0 UNK         0.5000 
      3 O          -0.1985  -12.8333  -41.0854 O.2       0 UNK        -0.5000 
      4 N          -0.1071  -13.2517  -43.3055 N.am      1 UNK        -0.5000 
      5 CA         -1.3223  -12.5119  -43.6835 C.3       1 UNK         0.1400 
      6 C6         -1.8158  -12.8943  -45.0988 C.3       23 UNK        -0.0398 
      7 S7         -2.2153  -14.6683  -45.2650 S.3       23 UNK        -0.2404 
      8 C8         -3.9900  -14.6185  -45.6696 C.3       23 UNK        -0.0205 
      9 C9         -4.3864  -15.8112  -46.5238 C.ar      23 UNK        -0.0193 
     10 C10        -4.1341  -15.7887  -47.8979 C.ar      23 UNK        -0.1150 
     11 C11        -4.4830  -16.8745  -48.7036 C.ar      23 UNK        -0.0193 
     12 C12        -5.0978  -17.9867  -48.1244 C.ar      23 UNK        -0.1150 
     13 C13        -5.3494  -18.0295  -46.7500 C.ar      23 UNK        -0.0193 
     14 C14        -5.0013  -16.9306  -45.9547 C.ar      23 UNK        -0.1150 
     15 C15        -5.9880  -19.2758  -46.1441 C.3       23 UNK        -0.0205 
     16 S16        -5.1167  -19.9274  -44.6766 S.3       23 UNK        -0.2404 
     17 C17        -3.3829  -20.0389  -45.2389 C.3       23 UNK        -0.0398 
     18 CA         -2.9978  -21.4019  -45.8603 C.3       11 UNK         0.1400 
     19 N          -1.7477  -21.3035  -46.6162 N.am      11 UNK        -0.5000 
     20 C          -1.2484  -22.2488  -47.4215 C.2       10 UNK         0.5000 
     21 O          -1.8485  -23.2835  -47.7095 O.2       10 UNK        -0.5000 
     22 CA          0.1678  -22.0184  -47.9815 C.3       10 UNK         0.1400 
     23 CB          0.1167  -21.2352  -49.3000 C.3       10 UNK        -0.1800 
     24 N           1.0512  -21.3358  -47.0353 N.am      10 UNK        -0.5000 
     25 C           1.4529  -21.8581  -45.8674 C.2       9 UNK         0.5000 
     26 O           1.1508  -22.9889  -45.4870 O.2       9 UNK        -0.5000 
     27 CA          2.2793  -20.9457  -44.9432 C.3       9 UNK         0.1400 
     28 CB          3.7402  -20.8638  -45.4094 C.3       9 UNK        -0.1800 
     29 N           1.7134  -19.6003  -44.8407 N.am      9 UNK        -0.5000 
     30 C           0.5050  -19.3264  -44.3294 C.2       8 UNK         0.5000 
     31 O          -0.2320  -20.1760  -43.8302 O.2       8 UNK        -0.5000 
     32 CA          0.0118  -17.8735  -44.4369 C.3       8 UNK         0.1400 
     33 CB          0.5521  -17.0237  -43.2824 C.3       8 UNK        -0.1800 
     34 N           0.3582  -17.2519  -45.7147 N.am      8 UNK        -0.5000 
     35 C          -0.1394  -17.6440  -46.8963 C.2       7 UNK         0.5000 
     36 O          -0.9474  -18.5613  -47.0265 O.2       7 UNK        -0.5000 
     37 CA          0.4179  -16.9408  -48.1445 C.3       7 UNK         0.1400 
     38 CB         -0.2216  -15.5579  -48.3320 C.3       7 UNK        -0.1800 
     39 N           1.8732  -16.8060  -48.0865 N.am      7 UNK        -0.5000 
     40 C           2.7279  -17.8387  -48.1177 C.2       6 UNK         0.5000 
     41 O           2.3808  -19.0125  -48.2424 O.2       6 UNK        -0.5000 
     42 CA          4.2196  -17.5063  -47.9350 C.3       6 UNK         0.1400 
     43 CB          4.8617  -17.1476  -49.2832 C.3       6 UNK        -0.1800 
     44 N           4.4515  -16.4182  -46.9830 N.am      6 UNK        -0.5000 
     45 C           4.1596  -16.4698  -45.6748 C.2       5 UNK         0.5000 
     46 O           3.6536  -17.4477  -45.1256 O.2       5 UNK        -0.5000 
     47 CA          4.4472  -15.1995  -44.8544 C.3       5 UNK         0.1400 
     48 CB          5.8951  -15.1993  -44.3437 C.3       5 UNK        -0.1800 
     49 N           4.2022  -13.9750  -45.6187 N.am      5 UNK        -0.5000 
     50 C           2.9993  -13.5518  -46.0242 C.2       4 UNK         0.5000 
     51 O           1.9372  -14.0818  -45.6848 O.2       4 UNK        -0.5000 
     52 CA          3.0032  -12.3364  -46.9733 C.3       4 UNK         0.1400 
     53 CB          1.7051  -12.2310  -47.7912 C.3       4 UNK        -0.1800 
     54 N           3.2034  -11.0802  -46.2570 N.am      4 UNK        -0.5000 
     55 C           4.3504  -10.6406  -45.7174 C.2       3 UNK         0.5000 
     56 O           5.4137  -11.2591  -45.7825 O.2       3 UNK        -0.5000 
     57 CA          4.3008   -9.2760  -44.9916 C.3       3 UNK         0.1400 
     58 CB          4.9204   -8.1773  -45.8687 C.3       3 UNK        -0.1800 
     59 N           2.9331   -8.8837  -44.6336 N.am      3 UNK        -0.5000 
     60 C           2.2287   -9.4507  -43.6459 C.2       2 UNK         0.5000 
     61 O           2.7219  -10.2213  -42.8198 O.2       2 UNK        -0.5000 
     62 CA          0.7073   -9.2306  -43.6394 C.3       2 UNK         0.1400 
     63 CB          0.1835   -8.3110  -44.7665 C.3       2 UNK        -0.1800 
     64 N           0.1569  -10.5723  -43.7626 N.am      2 UNK        -0.5000 
     65 C          -1.1031  -10.9834  -43.5943 C.2       1 UNK         0.5000 
     66 O          -2.0535  -10.2338  -43.3682 O.2       1 UNK        -0.5000 
     67 C          -2.9266  -22.5276  -44.8080 C.2       11 UNK         0.5000 
     68 O          -3.8047  -23.3904  -44.7837 O.2       11 UNK        -0.5000 
     69 N          -1.8581  -22.5316  -43.9970 N.am      12 UNK        -0.5000 
     70 CA         -1.5925  -23.5315  -42.9591 C.3       12 UNK         0.1400 
     71 CB         -0.3699  -23.0980  -42.1365 C.3       12 UNK        -0.1800 
     72 C          -1.3972  -24.9543  -43.5165 C.2       12 UNK         0.5000 
     73 O          -1.8678  -25.9163  -42.9087 O.2       12 UNK        -0.5000 
     74 N          -0.7388  -25.0582  -44.6782 N.am      13 UNK        -0.5000 
     75 CA         -0.5426  -26.3032  -45.4235 C.3       13 UNK         0.1400 
     76 CB          0.5969  -26.0918  -46.4337 C.3       13 UNK        -0.1800 
     77 C          -1.8092  -26.7974  -46.1539 C.2       13 UNK         0.5000 
     78 O          -1.8116  -27.9281  -46.6407 O.2       13 UNK        -0.5000 
     79 N          -2.8337  -25.9362  -46.2595 N.am      14 UNK        -0.5000 
     80 CA         -4.0786  -26.0928  -47.0240 C.3       14 UNK         0.1400 
     81 CB         -4.8985  -27.3052  -46.5397 C.3       14 UNK        -0.1800 
     82 C          -3.8744  -26.0939  -48.5544 C.2       14 UNK         0.5000 
     83 O          -4.8196  -26.3562  -49.2994 O.2       14 UNK        -0.5000 
     84 N          -2.6686  -25.7339  -49.0115 N.am      15 UNK        -0.5000 
     85 CA         -2.3099  -25.5637  -50.4168 C.3       15 UNK         0.1400 
     86 CB         -0.7962  -25.3290  -50.5307 C.3       15 UNK        -0.1800 
     87 C          -3.0880  -24.4115  -51.0702 C.2       15 UNK         0.5000 
     88 O          -3.5045  -24.5427  -52.2183 O.2       15 UNK        -0.5000 
     89 N          -3.3133  -23.3318  -50.3066 N.am      16 UNK        -0.5000 
     90 CA         -4.1003  -22.1686  -50.7239 C.3       16 UNK         0.1400 
     91 CB         -3.7464  -20.9695  -49.8368 C.3       16 UNK        -0.1800 
     92 C          -5.6228  -22.4162  -50.7268 C.2       16 UNK         0.5000 
     93 O          -6.3622  -21.5964  -51.2724 O.2       16 UNK        -0.5000 
     94 N          -6.0708  -23.5233  -50.1190 N.am      17 UNK        -0.5000 
     95 CA         -7.4476  -24.0054  -50.2135 C.3       17 UNK         0.1400 
     96 CB         -7.8469  -24.6942  -48.8985 C.3       17 UNK        -0.1800 
     97 C          -7.6023  -24.9600  -51.4107 C.2       17 UNK         0.5000 
     98 O          -8.6103  -24.8919  -52.1147 O.2       17 UNK        -0.5000 
     99 N          -6.6010  -25.8264  -51.6229 N.am      18 UNK        -0.5000 
    100 CA        -6.5590  -26.8116  -52.7032 C.3       18 UNK         0.1400 
    101 CB        -5.4399  -27.8227  -52.4102 C.3       18 UNK        -0.1800 
    102 C         -6.3707  -26.1950  -54.1030 C.2       18 UNK         0.5000 
    103 O         -6.9442  -26.7051  -55.0669 O.2       18 UNK        -0.5000 
    104 N         -5.5707  -25.1279  -54.1980 N.am      19 UNK        -0.5000 
    105 CA        -5.2186  -24.4383  -55.4362 C.3       19 UNK         0.1400 
    106 CB        -3.9928  -25.1293  -56.0634 C.3       19 UNK        -0.1800 
    107 C         -4.9356  -22.9564  -55.1447 C.2       19 UNK         0.5000 
    108 O         -4.9286  -22.5412  -53.9860 O.2       19 UNK        -0.5000 
    109 N         -4.6684  -22.1716  -56.1950 N.am      20 UNK        -0.5000 
    110 CA        -4.3188  -20.7490  -56.1166 C.3       20 UNK         0.1400 
    111 CB        -4.6683  -20.0817  -57.4593 C.3       20 UNK        -0.1800 
    112 C         -2.8442  -20.5224  -55.7065 C.2       20 UNK         0.5000 
    113 O         -2.1266  -19.7655  -56.3638 O.2       20 UNK        -0.5000 
    114 N         -2.4079  -21.1838  -54.6250 N.am      21 UNK        -0.5000 
    115 CA        -1.0278  -21.1868  -54.1242 C.3       21 UNK         0.1400 
    116 CB        -0.8988  -22.2271  -53.0037 C.3       21 UNK        -0.1800 
    117 C         -0.5166  -19.8110  -53.6504 C.2       21 UNK         0.5000 
    118 O          0.6948  -19.5897  -53.6436 O.2       21 UNK        -0.5000 
    119 N         -1.4395  -18.9068  -53.2978 N.am      22 UNK        -0.5000 
    120 CA        -1.1574  -17.4872  -53.0295 C.3       22 UNK         0.1400 
    121 C         -0.8056  -16.6530  -54.3001 C.2       22 UNK         0.5000 
    122 N         -0.9888  -17.1558  -55.5166 N.am      22 UNK        -0.7600 
    123 O         -0.3480  -15.5201  -54.1784 O.2       22 UNK        -0.5000 
    124 C124       -2.3078  -16.8097  -52.2427 C.3       23 UNK        -0.0398 
    125 S125       -2.5622  -17.5234  -50.5853 S.3       23 UNK        -0.2404 
    126 C126       -4.2013  -16.8354  -50.1970 C.3       23 UNK        -0.0205 
    127 H127        2.4415  -13.3688  -41.4486 H         1 UNK         0.0600 
    128 H128        2.0779  -14.4294  -42.8099 H         1 UNK         0.0600 
    129 H129        1.5764  -14.8890  -41.1807 H         1 UNK         0.0600 
    130 H130        0.3970  -13.6909  -44.0677 H         1 UNK         0.3000 
    131 H131       -2.1102  -12.7670  -42.9714 H         1 UNK         0.0600 
    132 H132       -2.6898  -12.2974  -45.3638 H         1 UNK         0.0800 
    133 H133       -1.0557  -12.6574  -45.8442 H         1 UNK         0.0800 
    134 H134       -4.2323  -13.7060  -46.2157 H         1 UNK         0.0800 
    135 H135       -4.5708  -14.5904  -44.7465 H         1 UNK         0.0800 
    136 H136       -3.6568  -14.9252  -48.3394 H         1 UNK         0.1150 
    137 H137       -5.3789  -18.8234  -48.7456 H         1 UNK         0.1150 
    138 H138       -5.1937  -16.9550  -44.8914 H         1 UNK         0.1150 
    139 H139       -7.0162  -19.0415  -45.8660 H         1 UNK         0.0800 
    140 H140       -6.0458  -20.0749  -46.8850 H         1 UNK         0.0800 
    141 H141       -2.7443  -19.8056  -44.3873 H         1 UNK         0.0800 
    142 H142       -3.1951  -19.2436  -45.9580 H         1 UNK         0.0800 
    143 H143       -3.7774  -21.6762  -46.5727 H         1 UNK         0.0600 
    144 H144       -1.2306  -20.4346  -46.5198 H         1 UNK         0.3000 
    145 H145        0.6009  -22.9986  -48.1895 H         1 UNK         0.0600 
    146 H146       -0.3029  -20.2378  -49.1632 H         1 UNK         0.0600 
    147 H147        1.1113  -21.1221  -49.7314 H         1 UNK         0.0600 
    148 H148       -0.4961  -21.7565  -50.0342 H         1 UNK         0.0600 
    149 H149        1.3734  -20.4093  -47.3004 H         1 UNK         0.3000 
    150 H150        2.2679  -21.3869  -43.9444 H         1 UNK         0.0600 
    151 H151        4.1925  -21.8554  -45.4480 H         1 UNK         0.0600 
    152 H152        4.3382  -20.2588  -44.7276 H         1 UNK         0.0600 
    153 H153        3.8233  -20.4268  -46.4041 H         1 UNK         0.0600 
    154 H154        2.2895  -18.8326  -45.1735 H         1 UNK         0.3000 
    155 H155       -1.0774  -17.8882  -44.3594 H         1 UNK         0.0600 
    156 H156        0.0875  -16.0399  -43.2881 H         1 UNK         0.0600 
    157 H157        0.3276  -17.4816  -42.3183 H         1 UNK         0.0600 
    158 H158        1.6327  -16.8934  -43.3436 H         1 UNK         0.0600 
    159 H159        1.0284  -16.4962  -45.6932 H         1 UNK         0.3000 
    160 H160        0.1671  -17.5533  -49.0133 H         1 UNK         0.0600 
    161 H161       -1.3064  -15.6410  -48.3909 H         1 UNK         0.0600 
    162 H162        0.1171  -15.0867  -49.2545 H         1 UNK         0.0600 
    163 H163        0.0081  -14.8889  -47.5024 H         1 UNK         0.0600 
    164 H164        2.2411  -15.8770  -47.9517 H         1 UNK         0.3000 
    165 H165        4.7137  -18.4001  -47.5490 H         1 UNK         0.0600 
    166 H166        5.9356  -16.9914  -49.1795 H         1 UNK         0.0600 
    167 H167        4.7201  -17.9505  -50.0081 H         1 UNK         0.0600 
    168 H168        4.4292  -16.2412  -49.7086 H         1 UNK         0.0600 
    169 H169        4.8706  -15.5759  -47.3480 H         1 UNK         0.3000 
    170 H170        3.7850  -15.2103  -43.9896 H         1 UNK         0.0600 
    171 H171        6.1010  -16.0939  -43.7543 H         1 UNK         0.0600 
    172 H172        6.6133  -15.1731  -45.1641 H         1 UNK         0.0600 
    173 H173        6.0857  -14.3379  -43.7033 H         1 UNK         0.0600 
    174 H174        5.0107  -13.4157  -45.8636 H         1 UNK         0.3000 
    175 H175        3.8264  -12.4673  -47.6789 H         1 UNK         0.0600 
    176 H176        0.8347  -12.0740  -47.1543 H         1 UNK         0.0600 
    177 H177        1.7527  -11.4043  -48.5001 H         1 UNK         0.0600 
    178 H178        1.5344  -13.1391  -48.3692 H         1 UNK         0.0600 
    179 H179        2.3873  -10.4975  -46.1557 H         1 UNK         0.3000 
    180 H180        4.8956   -9.3633  -44.0799 H         1 UNK         0.0600 
    181 H181        4.3674   -8.0440  -46.7993 H         1 UNK         0.0600 
    182 H182        5.9506   -8.4216  -46.1312 H         1 UNK         0.0600 
    183 H183        4.9379   -7.2199  -45.3475 H         1 UNK         0.0600 
    184 H184        2.4629   -8.2524  -45.2665 H         1 UNK         0.3000 
    185 H185        0.4301   -8.8152  -42.6689 H         1 UNK         0.0600 
    186 H186       -0.8936   -8.1654  -44.6865 H         1 UNK         0.0600 
    187 H187        0.6365   -7.3205  -44.7109 H         1 UNK         0.0600 
    188 H188        0.3837   -8.7219  -45.7568 H         1 UNK         0.0600 
    189 H189        0.8610  -11.2923  -43.8572 H         1 UNK         0.3000 
    190 H190       -1.1877  -21.7691  -44.0673 H         1 UNK         0.3000 
    191 H191       -2.4586  -23.5543  -42.2947 H         1 UNK         0.0600 
    192 H192        0.5250  -23.0233  -42.7551 H         1 UNK         0.0600 
    193 H193       -0.1608  -23.8123  -41.3392 H         1 UNK         0.0600 
    194 H194       -0.5339  -22.1269  -41.6690 H         1 UNK         0.0600 
    195 H195       -0.3099  -24.2236  -45.0689 H         1 UNK         0.3000 
    196 H196       -0.2407  -27.0845  -44.7231 H         1 UNK         0.0600 
    197 H197        0.3513  -25.3145  -47.1581 H         1 UNK         0.0600 
    198 H198        0.8058  -27.0061  -46.9905 H         1 UNK         0.0600 
    199 H199        1.5198  -25.8009  -45.9316 H         1 UNK         0.0600 
    200 H200       -2.7276  -25.0318  -45.8157 H         1 UNK         0.3000 
    201 H201       -4.6657  -25.1990  -46.8091 H         1 UNK         0.0600 
    202 H202       -5.0332  -27.2832  -45.4583 H         1 UNK         0.0600 
    203 H203       -4.4235  -28.2506  -46.8019 H         1 UNK         0.0600 
    204 H204       -5.8921  -27.3075  -46.9896 H         1 UNK         0.0600 
    205 H205       -1.9893  -25.4231  -48.3306 H         1 UNK         0.3000 
    206 H206       -2.5595  -26.4855  -50.9459 H         1 UNK         0.0600 
    207 H207       -0.2351  -26.1628  -50.1085 H         1 UNK         0.0600 
    208 H208       -0.4951  -25.2287  -51.5743 H         1 UNK         0.0600 
    209 H209       -0.4879  -24.4209  -50.0121 H         1 UNK         0.0600 
    210 H210       -2.9292  -23.3191  -49.3665 H         1 UNK         0.3000 
    211 H211       -3.8163  -21.9133  -51.7450 H         1 UNK         0.0600 
    212 H212       -4.0646  -21.1178  -48.8059 H         1 UNK         0.0600 
    213 H213       -4.2347  -20.0706  -50.2109 H         1 UNK         0.0600 
    214 H214       -2.6769  -20.7683  -49.8391 H         1 UNK         0.0600 
    215 H215       -5.3975  -24.1520  -49.7059 H         1 UNK         0.3000 
    216 H216       -8.1272  -23.1637  -50.3637 H         1 UNK         0.0600 
    217 H217       -8.8900  -25.0112  -48.9301 H         1 UNK         0.0600 
    218 H218       -7.7387  -24.0173  -48.0509 H         1 UNK         0.0600 
    219 H219       -7.2450  -25.5801  -48.6983 H         1 UNK         0.0600 
    220 H220       -5.8384  -25.8640  -50.9556 H         1 UNK         0.3000 
    221 H221       -7.5093  -27.3497  -52.7039 H         1 UNK         0.0600 
    222 H222       -4.4619  -27.3408  -52.3832 H         1 UNK         0.0600 
    223 H223       -5.5953  -28.3176  -51.4512 H         1 UNK         0.0600 
    224 H224       -5.4031  -28.5988  -53.1757 H         1 UNK         0.0600 
    225 H225       -5.1202  -24.7550  -53.3654 H         1 UNK         0.3000 
    226 H226       -6.0591  -24.4802  -56.1319 H         1 UNK         0.0600 
    227 H227       -4.1941  -26.1807  -56.2691 H         1 UNK         0.0600 
    228 H228       -3.7119  -24.6666  -57.0098 H         1 UNK         0.0600 
    229 H229       -3.1271  -25.0793  -55.4012 H         1 UNK         0.0600 
    230 H230       -4.6571  -22.5804  -57.1183 H         1 UNK         0.3000 
    231 H231       -4.9353  -20.2781  -55.3480 H         1 UNK         0.0600 
    232 H232       -4.4812  -19.0076  -57.4249 H         1 UNK         0.0600 
    233 H233       -5.7221  -20.2163  -57.7040 H         1 UNK         0.0600 
    234 H234       -4.0779  -20.4930  -58.2790 H         1 UNK         0.0600 
    235 H235       -3.0765  -21.7747  -54.1412 H         1 UNK         0.3000 
    236 H236       -0.3849  -21.4998  -54.9493 H         1 UNK         0.0600 
    237 H237        0.1329  -22.3072  -52.6587 H         1 UNK         0.0600 
    238 H238       -1.2061  -23.2162  -53.3437 H         1 UNK         0.0600 
    239 H239       -1.5101  -21.9586  -52.1443 H         1 UNK         0.0600 
    240 H240       -2.4110  -19.1760  -53.3208 H         1 UNK         0.3000 
    241 H241       -0.2670  -17.4472  -52.3987 H         1 UNK         0.0600 
    242 H242       -0.7484  -16.5950  -56.3184 H         1 UNK         0.3800 
    243 H243       -1.3579  -18.0903  -55.6600 H         1 UNK         0.3800 
    244 H244       -3.2390  -16.8727  -52.8084 H         1 UNK         0.0800 
    245 H245       -2.1050  -15.7462  -52.1029 H         1 UNK         0.0800 
    246 H246       -4.9651  -17.3927  -50.7415 H         1 UNK         0.0800 
    247 H247       -4.2599  -15.8051  -50.5514 H         1 UNK         0.0800 
@<TRIPOS>BOND
     1    1    2 1    
     2    1  127 1    
     3    1  128 1    
     4    1  129 1    
     5    2    3 2    
     6    2    4 am   BACKBONE|DICT|INTERRES
     7    4    5 1    
     8    4  130 1    
     9    5    6 1    
    10    5   65 1    
    11    5  131 1    
    12    6    7 1    
    13    6  132 1    
    14    6  133 1    
    15    7    8 1    
    16    8    9 1    
    17    8  134 1    
    18    8  135 1    
    19    9   10 ar   
    20    9   14 ar   
    21   10   11 ar   
    22   10  136 1    
    23   11   12 ar   
    24   11  126 1    
    25   12   13 ar   
    26   12  137 1    
    27   13   14 ar   
    28   13   15 1    
    29   14  138 1    
    30   15   16 1    
    31   15  139 1    
    32   15  140 1    
    33   16   17 1    
    34   17   18 1    
    35   17  141 1    
    36   17  142 1    
    37   18   19 1    
    38   18   67 1    
    39   18  143 1    
    40   19   20 am   BACKBONE|DICT|INTERRES
    41   19  144 1    
    42   20   21 2    
    43   20   22 1    
    44   22   23 1    
    45   22   24 1    
    46   22  145 1    
    47   23  146 1    
    48   23  147 1    
    49   23  148 1    
    50   24   25 am   BACKBONE|DICT|INTERRES
    51   24  149 1    
    52   25   26 2    
    53   25   27 1    
    54   27   28 1    
    55   27   29 1    
    56   27  150 1    
    57   28  151 1    
    58   28  152 1    
    59   28  153 1    
    60   29   30 am   BACKBONE|DICT|INTERRES
    61   29  154 1    
    62   30   31 2    
    63   30   32 1    
    64   32   33 1    
    65   32   34 1    
    66   32  155 1    
    67   33  156 1    
    68   33  157 1    
    69   33  158 1    
    70   34   35 am   BACKBONE|DICT|INTERRES
    71   34  159 1    
    72   35   36 2    
    73   35   37 1    
    74   37   38 1    
    75   37   39 1    
    76   37  160 1    
    77   38  161 1    
    78   38  162 1    
    79   38  163 1    
    80   39   40 am   BACKBONE|DICT|INTERRES
    81   39  164 1    
    82   40   41 2    
    83   40   42 1    
    84   42   43 1    
    85   42   44 1    
    86   42  165 1    
    87   43  166 1    
    88   43  167 1    
    89   43  168 1    
    90   44   45 am   BACKBONE|DICT|INTERRES
    91   44  169 1    
    92   45   46 2    
    93   45   47 1    
    94   47   48 1    
    95   47   49 1    
    96   47  170 1    
    97   48  171 1    
    98   48  172 1    
    99   48  173 1    
   100   49   50 am   BACKBONE|DICT|INTERRES
   101   49  174 1    
   102   50   51 2    
   103   50   52 1    
   104   52   53 1    
   105   52   54 1    
   106   52  175 1    
   107   53  176 1    
   108   53  177 1    
   109   53  178 1    
   110   54   55 am   BACKBONE|DICT|INTERRES
   111   54  179 1    
   112   55   56 2    
   113   55   57 1    
   114   57   58 1    
   115   57   59 1    
   116   57  180 1    
   117   58  181 1    
   118   58  182 1    
   119   58  183 1    
   120   59   60 am   BACKBONE|DICT|INTERRES
   121   59  184 1    
   122   60   61 2    
   123   60   62 1    
   124   62   63 1    
   125   62   64 1    
   126   62  185 1    
   127   63  186 1    
   128   63  187 1    
   129   63  188 1    
   130   64   65 am   BACKBONE|DICT|INTERRES
   131   64  189 1    
   132   65   66 2    
   133   67   68 2    
   134   67   69 am   BACKBONE|DICT|INTERRES
   135   69   70 1    
   136   69  190 1    
   137   70   71 1    
   138   70   72 1    
   139   70  191 1    
   140   71  192 1    
   141   71  193 1    
   142   71  194 1    
   143   72   73 2    
   144   72   74 am   BACKBONE|DICT|INTERRES
   145   74   75 1    
   146   74  195 1    
   147   75   76 1    
   148   75   77 1    
   149   75  196 1    
   150   76  197 1    
   151   76  198 1    
   152   76  199 1    
   153   77   78 2    
   154   77   79 am   BACKBONE|DICT|INTERRES
   155   79   80 1    
   156   79  200 1    
   157   80   81 1    
   158   80   82 1    
   159   80  201 1    
   160   81  202 1    
   161   81  203 1    
   162   81  204 1    
   163   82   83 2    
   164   82   84 am   BACKBONE|DICT|INTERRES
   165   84   85 1    
   166   84  205 1    
   167   85   86 1    
   168   85   87 1    
   169   85  206 1    
   170   86  207 1    
   171   86  208 1    
   172   86  209 1    
   173   87   88 2    
   174   87   89 am   BACKBONE|DICT|INTERRES
   175   89   90 1    
   176   89  210 1    
   177   90   91 1    
   178   90   92 1    
   179   90  211 1    
   180   91  212 1    
   181   91  213 1    
   182   91  214 1    
   183   92   93 2    
   184   92   94 am   BACKBONE|DICT|INTERRES
   185   94   95 1    
   186   94  215 1    
   187   95   96 1    
   188   95   97 1    
   189   95  216 1    
   190   96  217 1    
   191   96  218 1    
   192   96  219 1    
   193   97   98 2    
   194   97   99 am   BACKBONE|DICT|INTERRES
   195   99  100 1    
   196   99  220 1    
   197  100  101 1    
   198  100  102 1    
   199  100  221 1    
   200  101  222 1    
   201  101  223 1    
   202  101  224 1    
   203  102  103 2    
   204  102  104 am   BACKBONE|DICT|INTERRES
   205  104  105 1    
   206  104  225 1    
   207  105  106 1    
   208  105  107 1    
   209  105  226 1    
   210  106  227 1    
   211  106  228 1    
   212  106  229 1    
   213  107  108 2    
   214  107  109 am   BACKBONE|DICT|INTERRES
   215  109  110 1    
   216  109  230 1    
   217  110  111 1    
   218  110  112 1    
   219  110  231 1    
   220  111  232 1    
   221  111  233 1    
   222  111  234 1    
   223  112  113 2    
   224  112  114 am   BACKBONE|DICT|INTERRES
   225  114  115 1    
   226  114  235 1    
   227  115  116 1    
   228  115  117 1    
   229  115  236 1    
   230  116  237 1    
   231  116  238 1    
   232  116  239 1    
   233  117  118 2    
   234  117  119 am   BACKBONE|DICT|INTERRES
   235  119  120 1    
   236  119  240 1    
   237  120  121 1    
   238  120  124 1    
   239  120  241 1    
   240  121  122 am   BACKBONE|DICT|INTERRES
   241  121  123 2    
   242  122  242 1    
   243  122  243 1    
   244  124  125 1    
   245  124  244 1    
   246  124  245 1    
   247  125  126 1    
   248  126  246 1    
   249  126  247 1    
@<TRIPOS>SUBSTRUCTURE
     1 UNK         1 GROUP             0       ****    0 ROOT    
