@<TRIPOS>MOLECULE
3R540
247   249    1
SMALL
USER_CHARGES


@<TRIPOS>ATOM
      1 CA         -2.9306  -11.2776  -45.4449 C.3       0 UNK        -0.1800 
      2 C          -1.7717  -10.8653  -46.3415 C.2       0 UNK         0.5000 
      3 O          -1.9760  -10.1389  -47.3141 O.2       0 UNK        -0.5000 
      4 N          -0.5600  -11.3222  -46.0173 N.am      1 UNK        -0.5000 
      5 CA          0.6805  -11.0472  -46.7391 C.3       1 UNK         0.1400 
      6 C6          0.7726  -11.7554  -48.1197 C.3       23 UNK        -0.0398 
      7 S7          0.3847  -13.5452  -48.1127 S.3       23 UNK        -0.2404 
      8 C8         -0.9783  -13.5438  -49.3204 C.3       23 UNK        -0.0205 
      9 C9         -1.4575  -14.9397  -49.6867 C.ar      23 UNK        -0.0193 
     10 C10        -0.6288  -15.8010  -50.4092 C.ar      23 UNK        -0.1150 
     11 C11        -1.0844  -17.0572  -50.8198 C.ar      23 UNK        -0.0193 
     12 C12        -2.3931  -17.4445  -50.4986 C.ar      23 UNK        -0.1150 
     13 C13        -3.2419  -16.5873  -49.7836 C.ar      23 UNK        -0.0193 
     14 C14        -2.7570  -15.3426  -49.3719 C.ar      23 UNK        -0.1150 
     15 C15        -4.7112  -16.9153  -49.5146 C.3       23 UNK        -0.0205 
     16 S16        -5.1412  -18.6872  -49.5031 S.3       23 UNK        -0.2404 
     17 C17        -4.8651  -19.1294  -47.7576 C.3       23 UNK        -0.0398 
     18 CA         -4.4300  -20.6058  -47.6278 C.3       11 UNK         0.1400 
     19 N          -3.0815  -20.8237  -48.1612 N.am      11 UNK        -0.5000 
     20 C          -2.4770  -22.0112  -48.2884 C.2       10 UNK         0.5000 
     21 O          -3.0143  -23.0845  -48.0132 O.2       10 UNK        -0.5000 
     22 CA         -1.0082  -22.0001  -48.7502 C.3       10 UNK         0.1400 
     23 CB         -0.9443  -22.1789  -50.2724 C.3       10 UNK        -0.1800 
     24 N          -0.2453  -20.8020  -48.3761 N.am      10 UNK        -0.5000 
     25 C          -0.1053  -20.3083  -47.1375 C.2       9 UNK         0.5000 
     26 O          -0.6895  -20.7588  -46.1486 O.2       9 UNK        -0.5000 
     27 CA          0.7958  -19.0712  -46.9951 C.3       9 UNK         0.1400 
     28 CB          0.0064  -17.8054  -47.3525 C.3       9 UNK        -0.1800 
     29 N           1.3031  -18.9493  -45.6312 N.am      9 UNK        -0.5000 
     30 C           2.2934  -19.6917  -45.1168 C.2       8 UNK         0.5000 
     31 O           2.9592  -20.4867  -45.7814 O.2       8 UNK        -0.5000 
     32 CA          2.5997  -19.5251  -43.6153 C.3       8 UNK         0.1400 
     33 CB          4.0148  -18.9640  -43.3995 C.3       8 UNK        -0.1800 
     34 N           1.6288  -18.6504  -42.9530 N.am      8 UNK        -0.5000 
     35 C           0.5633  -19.0865  -42.2663 C.2       7 UNK         0.5000 
     36 O           0.3362  -20.2762  -42.0461 O.2       7 UNK        -0.5000 
     37 CA         -0.4235  -18.0263  -41.7399 C.3       7 UNK         0.1400 
     38 CB         -0.1338  -17.7168  -40.2646 C.3       7 UNK        -0.1800 
     39 N          -0.4040  -16.7898  -42.5286 N.am      7 UNK        -0.5000 
     40 C          -0.9884  -16.6651  -43.7309 C.2       6 UNK         0.5000 
     41 O          -1.6374  -17.5742  -44.2471 O.2       6 UNK        -0.5000 
     42 CA         -0.7828  -15.3512  -44.5208 C.3       6 UNK         0.1400 
     43 CB         -2.0343  -14.9274  -45.3178 C.3       6 UNK        -0.1800 
     44 N          -0.2452  -14.2414  -43.7292 N.am      6 UNK        -0.5000 
     45 C          -0.8242  -13.5792  -42.7177 C.2       5 UNK         0.5000 
     46 O          -1.9847  -13.7566  -42.3468 O.2       5 UNK        -0.5000 
     47 CA          0.0876  -12.5637  -41.9927 C.3       5 UNK         0.1400 
     48 CB         -0.4604  -12.1251  -40.6182 C.3       5 UNK        -0.1800 
     49 N           1.4748  -13.0460  -41.8889 N.am      5 UNK        -0.5000 
     50 C           1.8830  -14.1446  -41.2350 C.2       4 UNK         0.5000 
     51 O           1.1270  -14.8567  -40.5766 O.2       4 UNK        -0.5000 
     52 CA          3.3666  -14.5381  -41.3921 C.3       4 UNK         0.1400 
     53 CB          3.6950  -15.9019  -40.7475 C.3       4 UNK        -0.1800 
     54 N           3.8197  -14.5202  -42.7866 N.am      4 UNK        -0.5000 
     55 C           3.3282  -15.2146  -43.8221 C.2       3 UNK         0.5000 
     56 O           2.3523  -15.9631  -43.7397 O.2       3 UNK        -0.5000 
     57 CA          4.0461  -15.0207  -45.1780 C.3       3 UNK         0.1400 
     58 CB          3.4365  -15.8872  -46.2942 C.3       3 UNK        -0.1800 
     59 N           4.0187  -13.6261  -45.6178 N.am      3 UNK        -0.5000 
     60 C           4.7080  -12.6085  -45.0857 C.2       2 UNK         0.5000 
     61 O           5.5639  -12.7556  -44.2115 O.2       2 UNK        -0.5000 
     62 CA          4.3633  -11.1844  -45.5700 C.3       2 UNK         0.1400 
     63 CB          5.4886  -10.6376  -46.4623 C.3       2 UNK        -0.1800 
     64 N           3.0879  -11.0481  -46.2859 N.am      2 UNK        -0.5000 
     65 C           1.8714  -11.3630  -45.8170 C.2       1 UNK         0.5000 
     66 O           1.6757  -11.8837  -44.7147 O.2       1 UNK        -0.5000 
     67 C          -4.6115  -21.1150  -46.1806 C.2       11 UNK         0.5000 
     68 O          -5.7267  -21.4906  -45.8179 O.2       11 UNK        -0.5000 
     69 N          -3.5252  -21.1514  -45.3996 N.am      12 UNK        -0.5000 
     70 CA         -3.4942  -21.7029  -44.0491 C.3       12 UNK         0.1400 
     71 CB         -2.9327  -20.6430  -43.0921 C.3       12 UNK        -0.1800 
     72 C          -2.6478  -22.9841  -44.0075 C.2       12 UNK         0.5000 
     73 O          -3.1168  -24.0042  -43.5028 O.2       12 UNK        -0.5000 
     74 N          -1.4249  -22.9200  -44.5516 N.am      13 UNK        -0.5000 
     75 CA         -0.4050  -23.9669  -44.4565 C.3       13 UNK         0.1400 
     76 CB          0.9452  -23.3903  -44.9077 C.3       13 UNK        -0.1800 
     77 C          -0.7314  -25.2493  -45.2427 C.2       13 UNK         0.5000 
     78 O          -0.2678  -26.3226  -44.8554 O.2       13 UNK        -0.5000 
     79 N          -1.5204  -25.1219  -46.3160 N.am      14 UNK        -0.5000 
     80 CA         -1.9871  -26.2293  -47.1521 C.3       14 UNK         0.1400 
     81 CB         -1.4094  -26.0651  -48.5697 C.3       14 UNK        -0.1800 
     82 C          -3.5250  -26.3005  -47.1694 C.2       14 UNK         0.5000 
     83 O          -4.0879  -26.9356  -48.0611 O.2       14 UNK        -0.5000 
     84 N          -4.1851  -25.6196  -46.2171 N.am      15 UNK        -0.5000 
     85 CA         -5.6414  -25.5174  -46.0453 C.3       15 UNK         0.1400 
     86 CB         -6.2035  -26.8528  -45.5168 C.3       15 UNK        -0.1800 
     87 C          -6.3892  -25.0164  -47.3035 C.2       15 UNK         0.5000 
     88 O          -7.5357  -25.4031  -47.5347 O.2       15 UNK        -0.5000 
     89 N          -5.7067  -24.1848  -48.1036 N.am      16 UNK        -0.5000 
     90 CA         -6.1251  -23.6263  -49.3900 C.3       16 UNK         0.1400 
     91 CB         -7.4058  -22.7762  -49.2548 C.3       16 UNK        -0.1800 
     92 C          -6.2068  -24.6463  -50.5439 C.2       16 UNK         0.5000 
     93 O          -6.7160  -24.2965  -51.6089 O.2       16 UNK        -0.5000 
     94 N          -5.6654  -25.8612  -50.3645 N.am      17 UNK        -0.5000 
     95 CA         -5.6034  -26.8816  -51.4161 C.3       17 UNK         0.1400 
     96 CB         -5.2888  -28.2501  -50.7939 C.3       17 UNK        -0.1800 
     97 C          -4.5736  -26.5349  -52.5082 C.2       17 UNK         0.5000 
     98 O          -4.8130  -26.8146  -53.6830 O.2       17 UNK        -0.5000 
     99 N          -3.4588  -25.9134  -52.0996 N.am      18 UNK        -0.5000 
    100 CA        -2.3667  -25.4860  -52.9783 C.3       18 UNK         0.1400 
    101 CB        -1.0286  -25.7739  -52.2775 C.3       18 UNK        -0.1800 
    102 C         -2.4654  -23.9997  -53.3758 C.2       18 UNK         0.5000 
    103 O         -1.6202  -23.5254  -54.1350 O.2       18 UNK        -0.5000 
    104 N         -3.4824  -23.2802  -52.8743 N.am      19 UNK        -0.5000 
    105 CA        -3.6630  -21.8341  -53.0602 C.3       19 UNK         0.1400 
    106 CB        -4.7540  -21.3157  -52.1140 C.3       19 UNK        -0.1800 
    107 C         -3.9230  -21.3860  -54.5119 C.2       19 UNK         0.5000 
    108 O         -3.7974  -20.1979  -54.8050 O.2       19 UNK        -0.5000 
    109 N         -4.2154  -22.3331  -55.4137 N.am      20 UNK        -0.5000 
    110 CA        -4.2660  -22.1194  -56.8623 C.3       20 UNK         0.1400 
    111 CB        -4.7295  -23.4163  -57.5421 C.3       20 UNK        -0.1800 
    112 C         -2.9209  -21.6468  -57.4574 C.2       20 UNK         0.5000 
    113 O         -2.9211  -20.9448  -58.4693 O.2       20 UNK        -0.5000 
    114 N         -1.8035  -22.0031  -56.8048 N.am      21 UNK        -0.5000 
    115 CA        -0.4538  -21.5626  -57.1612 C.3       21 UNK         0.1400 
    116 CB         0.5660  -22.4935  -56.4870 C.3       21 UNK        -0.1800 
    117 C         -0.1658  -20.0926  -56.7894 C.2       21 UNK         0.5000 
    118 O          0.8015  -19.5276  -57.3018 O.2       21 UNK        -0.5000 
    119 N         -0.9868  -19.4985  -55.9120 N.am      22 UNK        -0.5000 
    120 CA        -0.8525  -18.1076  -55.4442 C.3       22 UNK         0.1400 
    121 C         -1.3594  -17.0408  -56.4598 C.2       22 UNK         0.5000 
    122 N         -2.0121  -17.4140  -57.5549 N.am      22 UNK        -0.7600 
    123 O         -1.1468  -15.8488  -56.2556 O.2       22 UNK        -0.5000 
    124 C124       -1.5051  -17.8939  -54.0526 C.3       23 UNK        -0.0398 
    125 S125       -0.9118  -19.0786  -52.7945 S.3       23 UNK        -0.2404 
    126 C126       -0.1239  -17.9776  -51.5734 C.3       23 UNK        -0.0205 
    127 H127       -3.4584  -10.3957  -45.0821 H         1 UNK         0.0600 
    128 H128       -2.5922  -11.8489  -44.5805 H         1 UNK         0.0600 
    129 H129       -3.6353  -11.8933  -46.0038 H         1 UNK         0.0600 
    130 H130       -0.4216  -11.8956  -45.1961 H         1 UNK         0.3000 
    131 H131        0.7229   -9.9695  -46.9105 H         1 UNK         0.0600 
    132 H132        1.7569  -11.6244  -48.5707 H         1 UNK         0.0800 
    133 H133        0.0928  -11.2472  -48.8042 H         1 UNK         0.0800 
    134 H134       -0.6498  -13.0444  -50.2331 H         1 UNK         0.0800 
    135 H135       -1.7999  -12.9466  -48.9213 H         1 UNK         0.0800 
    136 H136        0.3761  -15.4858  -50.6535 H         1 UNK         0.1150 
    137 H137       -2.7556  -18.4070  -50.8270 H         1 UNK         0.1150 
    138 H138       -3.4093  -14.6663  -48.8373 H         1 UNK         0.1150 
    139 H139       -5.0326  -16.4669  -48.5731 H         1 UNK         0.0800 
    140 H140       -5.3024  -16.4356  -50.2954 H         1 UNK         0.0800 
    141 H141       -5.8013  -18.9456  -47.2267 H         1 UNK         0.0800 
    142 H142       -4.1197  -18.4670  -47.3131 H         1 UNK         0.0800 
    143 H143       -5.1094  -21.2014  -48.2350 H         1 UNK         0.0600 
    144 H144       -2.5638  -19.9955  -48.4139 H         1 UNK         0.3000 
    145 H145       -0.5191  -22.8568  -48.2825 H         1 UNK         0.0600 
    146 H146        0.0789  -22.3371  -50.6134 H         1 UNK         0.0600 
    147 H147       -1.5301  -23.0411  -50.5899 H         1 UNK         0.0600 
    148 H148       -1.3415  -21.3068  -50.7913 H         1 UNK         0.0600 
    149 H149        0.2602  -20.3571  -49.1277 H         1 UNK         0.3000 
    150 H150        1.6405  -19.1651  -47.6808 H         1 UNK         0.0600 
    151 H151       -0.3455  -17.8551  -48.3793 H         1 UNK         0.0600 
    152 H152        0.6180  -16.9088  -47.2665 H         1 UNK         0.0600 
    153 H153       -0.8737  -17.6811  -46.7234 H         1 UNK         0.0600 
    154 H154        0.7582  -18.3847  -44.9975 H         1 UNK         0.3000 
    155 H155        2.5703  -20.5215  -43.1699 H         1 UNK         0.0600 
    156 H156        4.1552  -18.0086  -43.9017 H         1 UNK         0.0600 
    157 H157        4.7678  -19.6489  -43.7910 H         1 UNK         0.0600 
    158 H158        4.2265  -18.8216  -42.3397 H         1 UNK         0.0600 
    159 H159        1.7547  -17.6512  -43.0995 H         1 UNK         0.3000 
    160 H160       -1.4283  -18.4496  -41.7935 H         1 UNK         0.0600 
    161 H161        0.8996  -17.4049  -40.1133 H         1 UNK         0.0600 
    162 H162       -0.2981  -18.5994  -39.6454 H         1 UNK         0.0600 
    163 H163       -0.7851  -16.9280  -39.8876 H         1 UNK         0.0600 
    164 H164        0.1295  -16.0162  -42.1502 H         1 UNK         0.3000 
    165 H165       -0.0061  -15.5775  -45.2519 H         1 UNK         0.0600 
    166 H166       -2.8796  -14.7089  -44.6656 H         1 UNK         0.0600 
    167 H167       -1.8342  -14.0436  -45.9220 H         1 UNK         0.0600 
    168 H168       -2.3483  -15.7140  -46.0049 H         1 UNK         0.0600 
    169 H169        0.7245  -14.0214  -43.9159 H         1 UNK         0.3000 
    170 H170        0.1138  -11.6742  -42.6227 H         1 UNK         0.0600 
    171 H171       -1.4263  -11.6302  -40.7253 H         1 UNK         0.0600 
    172 H172       -0.6030  -12.9707  -39.9450 H         1 UNK         0.0600 
    173 H173        0.2129  -11.4189  -40.1327 H         1 UNK         0.0600 
    174 H174        2.1446  -12.5494  -42.4622 H         1 UNK         0.3000 
    175 H175        3.9433  -13.7756  -40.8669 H         1 UNK         0.0600 
    176 H176        3.1280  -16.7136  -41.2036 H         1 UNK         0.0600 
    177 H177        4.7542  -16.1392  -40.8451 H         1 UNK         0.0600 
    178 H178        3.4606  -15.8983  -39.6824 H         1 UNK         0.0600 
    179 H179        4.5966  -13.8973  -42.9905 H         1 UNK         0.3000 
    180 H180        5.0855  -15.3262  -45.0429 H         1 UNK         0.0600 
    181 H181        2.3993  -15.6134  -46.4875 H         1 UNK         0.0600 
    182 H182        3.4568  -16.9447  -46.0312 H         1 UNK         0.0600 
    183 H183        3.9900  -15.7768  -47.2267 H         1 UNK         0.0600 
    184 H184        3.3203  -13.3969  -46.3090 H         1 UNK         0.3000 
    185 H185        4.3008  -10.5572  -44.6786 H         1 UNK         0.0600 
    186 H186        5.5772  -11.2056  -47.3892 H         1 UNK         0.0600 
    187 H187        5.3156   -9.5931  -46.7222 H         1 UNK         0.0600 
    188 H188        6.4526  -10.6868  -45.9540 H         1 UNK         0.0600 
    189 H189        3.1544  -10.6232  -47.1994 H         1 UNK         0.3000 
    190 H190       -2.6336  -20.8511  -45.7812 H         1 UNK         0.3000 
    191 H191       -4.4980  -21.9630  -43.7069 H         1 UNK         0.0600 
    192 H192       -2.8094  -21.0407  -42.0840 H         1 UNK         0.0600 
    193 H193       -3.5968  -19.7810  -43.0274 H         1 UNK         0.0600 
    194 H194       -1.9610  -20.2842  -43.4303 H         1 UNK         0.0600 
    195 H195       -1.1271  -22.0524  -44.9939 H         1 UNK         0.3000 
    196 H196       -0.3167  -24.2458  -43.4044 H         1 UNK         0.0600 
    197 H197        0.9228  -23.0810  -45.9532 H         1 UNK         0.0600 
    198 H198        1.2211  -22.5233  -44.3075 H         1 UNK         0.0600 
    199 H199        1.7426  -24.1266  -44.8001 H         1 UNK         0.0600 
    200 H200       -1.8759  -24.2065  -46.5634 H         1 UNK         0.3000 
    201 H201       -1.6421  -27.1859  -46.7554 H         1 UNK         0.0600 
    202 H202       -1.7943  -25.1723  -49.0608 H         1 UNK         0.0600 
    203 H203       -1.6614  -26.9197  -49.1989 H         1 UNK         0.0600 
    204 H204       -0.3221  -25.9920  -48.5465 H         1 UNK         0.0600 
    205 H205       -3.6329  -25.1390  -45.5191 H         1 UNK         0.3000 
    206 H206       -5.8047  -24.7596  -45.2774 H         1 UNK         0.0600 
    207 H207       -5.6762  -27.1739  -44.6185 H         1 UNK         0.0600 
    208 H208       -7.2582  -26.7606  -45.2554 H         1 UNK         0.0600 
    209 H209       -6.1172  -27.6475  -46.2587 H         1 UNK         0.0600 
    210 H210       -4.7546  -23.9507  -47.8360 H         1 UNK         0.3000 
    211 H211       -5.3177  -22.9551  -49.6734 H         1 UNK         0.0600 
    212 H212       -7.5748  -22.1810  -50.1529 H         1 UNK         0.0600 
    213 H213       -7.3394  -22.0834  -48.4161 H         1 UNK         0.0600 
    214 H214       -8.2897  -23.3966  -49.1061 H         1 UNK         0.0600 
    215 H215       -5.2530  -26.1038  -49.4685 H         1 UNK         0.3000 
    216 H216       -6.5857  -26.9463  -51.8894 H         1 UNK         0.0600 
    217 H217       -4.2902  -28.2759  -50.3566 H         1 UNK         0.0600 
    218 H218       -5.3355  -29.0385  -51.5461 H         1 UNK         0.0600 
    219 H219       -6.0044  -28.5029  -50.0113 H         1 UNK         0.0600 
    220 H220       -3.3471  -25.7329  -51.1128 H         1 UNK         0.3000 
    221 H221       -2.3866  -26.0647  -53.9040 H         1 UNK         0.0600 
    222 H222       -0.9401  -26.8284  -52.0155 H         1 UNK         0.0600 
    223 H223       -0.9133  -25.1917  -51.3642 H         1 UNK         0.0600 
    224 H224       -0.1862  -25.5315  -52.9266 H         1 UNK         0.0600 
    225 H225       -4.1748  -23.7566  -52.3165 H         1 UNK         0.3000 
    226 H226       -2.7269  -21.3586  -52.7672 H         1 UNK         0.0600 
    227 H227       -5.6988  -21.8404  -52.2557 H         1 UNK         0.0600 
    228 H228       -4.4474  -21.4222  -51.0746 H         1 UNK         0.0600 
    229 H229       -4.9424  -20.2534  -52.2760 H         1 UNK         0.0600 
    230 H230       -4.3040  -23.2851  -55.0911 H         1 UNK         0.3000 
    231 H231       -5.0060  -21.3414  -57.0609 H         1 UNK         0.0600 
    232 H232       -4.0364  -24.2378  -57.3560 H         1 UNK         0.0600 
    233 H233       -4.8025  -23.2864  -58.6227 H         1 UNK         0.0600 
    234 H234       -5.7140  -23.7194  -57.1853 H         1 UNK         0.0600 
    235 H235       -1.8804  -22.5671  -55.9646 H         1 UNK         0.3000 
    236 H236       -0.3358  -21.6567  -58.2427 H         1 UNK         0.0600 
    237 H237        0.3903  -23.5353  -56.7558 H         1 UNK         0.0600 
    238 H238        1.5833  -22.2459  -56.7926 H         1 UNK         0.0600 
    239 H239        0.5230  -22.4152  -55.3999 H         1 UNK         0.0600 
    240 H240       -1.7823  -20.0078  -55.5486 H         1 UNK         0.3000 
    241 H241        0.2141  -17.9092  -55.3228 H         1 UNK         0.0600 
    242 H242       -2.1923  -18.3895  -57.7377 H         1 UNK         0.3800 
    243 H243       -2.3299  -16.7141  -58.2070 H         1 UNK         0.3800 
    244 H244       -2.5896  -17.9866  -54.1197 H         1 UNK         0.0800 
    245 H245       -1.3172  -16.8781  -53.7007 H         1 UNK         0.0800 
    246 H246        0.6405  -17.3910  -52.0857 H         1 UNK         0.0800 
    247 H247        0.4011  -18.5939  -50.8436 H         1 UNK         0.0800 
@<TRIPOS>BOND
     1    1    2 1    
     2    1  127 1    
     3    1  128 1    
     4    1  129 1    
     5    2    3 2    
     6    2    4 am   BACKBONE|DICT|INTERRES
     7    4    5 1    
     8    4  130 1    
     9    5    6 1    
    10    5   65 1    
    11    5  131 1    
    12    6    7 1    
    13    6  132 1    
    14    6  133 1    
    15    7    8 1    
    16    8    9 1    
    17    8  134 1    
    18    8  135 1    
    19    9   10 ar   
    20    9   14 ar   
    21   10   11 ar   
    22   10  136 1    
    23   11   12 ar   
    24   11  126 1    
    25   12   13 ar   
    26   12  137 1    
    27   13   14 ar   
    28   13   15 1    
    29   14  138 1    
    30   15   16 1    
    31   15  139 1    
    32   15  140 1    
    33   16   17 1    
    34   17   18 1    
    35   17  141 1    
    36   17  142 1    
    37   18   19 1    
    38   18   67 1    
    39   18  143 1    
    40   19   20 am   BACKBONE|DICT|INTERRES
    41   19  144 1    
    42   20   21 2    
    43   20   22 1    
    44   22   23 1    
    45   22   24 1    
    46   22  145 1    
    47   23  146 1    
    48   23  147 1    
    49   23  148 1    
    50   24   25 am   BACKBONE|DICT|INTERRES
    51   24  149 1    
    52   25   26 2    
    53   25   27 1    
    54   27   28 1    
    55   27   29 1    
    56   27  150 1    
    57   28  151 1    
    58   28  152 1    
    59   28  153 1    
    60   29   30 am   BACKBONE|DICT|INTERRES
    61   29  154 1    
    62   30   31 2    
    63   30   32 1    
    64   32   33 1    
    65   32   34 1    
    66   32  155 1    
    67   33  156 1    
    68   33  157 1    
    69   33  158 1    
    70   34   35 am   BACKBONE|DICT|INTERRES
    71   34  159 1    
    72   35   36 2    
    73   35   37 1    
    74   37   38 1    
    75   37   39 1    
    76   37  160 1    
    77   38  161 1    
    78   38  162 1    
    79   38  163 1    
    80   39   40 am   BACKBONE|DICT|INTERRES
    81   39  164 1    
    82   40   41 2    
    83   40   42 1    
    84   42   43 1    
    85   42   44 1    
    86   42  165 1    
    87   43  166 1    
    88   43  167 1    
    89   43  168 1    
    90   44   45 am   BACKBONE|DICT|INTERRES
    91   44  169 1    
    92   45   46 2    
    93   45   47 1    
    94   47   48 1    
    95   47   49 1    
    96   47  170 1    
    97   48  171 1    
    98   48  172 1    
    99   48  173 1    
   100   49   50 am   BACKBONE|DICT|INTERRES
   101   49  174 1    
   102   50   51 2    
   103   50   52 1    
   104   52   53 1    
   105   52   54 1    
   106   52  175 1    
   107   53  176 1    
   108   53  177 1    
   109   53  178 1    
   110   54   55 am   BACKBONE|DICT|INTERRES
   111   54  179 1    
   112   55   56 2    
   113   55   57 1    
   114   57   58 1    
   115   57   59 1    
   116   57  180 1    
   117   58  181 1    
   118   58  182 1    
   119   58  183 1    
   120   59   60 am   BACKBONE|DICT|INTERRES
   121   59  184 1    
   122   60   61 2    
   123   60   62 1    
   124   62   63 1    
   125   62   64 1    
   126   62  185 1    
   127   63  186 1    
   128   63  187 1    
   129   63  188 1    
   130   64   65 am   BACKBONE|DICT|INTERRES
   131   64  189 1    
   132   65   66 2    
   133   67   68 2    
   134   67   69 am   BACKBONE|DICT|INTERRES
   135   69   70 1    
   136   69  190 1    
   137   70   71 1    
   138   70   72 1    
   139   70  191 1    
   140   71  192 1    
   141   71  193 1    
   142   71  194 1    
   143   72   73 2    
   144   72   74 am   BACKBONE|DICT|INTERRES
   145   74   75 1    
   146   74  195 1    
   147   75   76 1    
   148   75   77 1    
   149   75  196 1    
   150   76  197 1    
   151   76  198 1    
   152   76  199 1    
   153   77   78 2    
   154   77   79 am   BACKBONE|DICT|INTERRES
   155   79   80 1    
   156   79  200 1    
   157   80   81 1    
   158   80   82 1    
   159   80  201 1    
   160   81  202 1    
   161   81  203 1    
   162   81  204 1    
   163   82   83 2    
   164   82   84 am   BACKBONE|DICT|INTERRES
   165   84   85 1    
   166   84  205 1    
   167   85   86 1    
   168   85   87 1    
   169   85  206 1    
   170   86  207 1    
   171   86  208 1    
   172   86  209 1    
   173   87   88 2    
   174   87   89 am   BACKBONE|DICT|INTERRES
   175   89   90 1    
   176   89  210 1    
   177   90   91 1    
   178   90   92 1    
   179   90  211 1    
   180   91  212 1    
   181   91  213 1    
   182   91  214 1    
   183   92   93 2    
   184   92   94 am   BACKBONE|DICT|INTERRES
   185   94   95 1    
   186   94  215 1    
   187   95   96 1    
   188   95   97 1    
   189   95  216 1    
   190   96  217 1    
   191   96  218 1    
   192   96  219 1    
   193   97   98 2    
   194   97   99 am   BACKBONE|DICT|INTERRES
   195   99  100 1    
   196   99  220 1    
   197  100  101 1    
   198  100  102 1    
   199  100  221 1    
   200  101  222 1    
   201  101  223 1    
   202  101  224 1    
   203  102  103 2    
   204  102  104 am   BACKBONE|DICT|INTERRES
   205  104  105 1    
   206  104  225 1    
   207  105  106 1    
   208  105  107 1    
   209  105  226 1    
   210  106  227 1    
   211  106  228 1    
   212  106  229 1    
   213  107  108 2    
   214  107  109 am   BACKBONE|DICT|INTERRES
   215  109  110 1    
   216  109  230 1    
   217  110  111 1    
   218  110  112 1    
   219  110  231 1    
   220  111  232 1    
   221  111  233 1    
   222  111  234 1    
   223  112  113 2    
   224  112  114 am   BACKBONE|DICT|INTERRES
   225  114  115 1    
   226  114  235 1    
   227  115  116 1    
   228  115  117 1    
   229  115  236 1    
   230  116  237 1    
   231  116  238 1    
   232  116  239 1    
   233  117  118 2    
   234  117  119 am   BACKBONE|DICT|INTERRES
   235  119  120 1    
   236  119  240 1    
   237  120  121 1    
   238  120  124 1    
   239  120  241 1    
   240  121  122 am   BACKBONE|DICT|INTERRES
   241  121  123 2    
   242  122  242 1    
   243  122  243 1    
   244  124  125 1    
   245  124  244 1    
   246  124  245 1    
   247  125  126 1    
   248  126  246 1    
   249  126  247 1    
@<TRIPOS>SUBSTRUCTURE
     1 UNK         1 GROUP             0       ****    0 ROOT    
