@<TRIPOS>MOLECULE
3R540
247   249    1
SMALL
USER_CHARGES


@<TRIPOS>ATOM
      1 CA          6.8245  -11.8936  -48.1408 C.3       0 UNK        -0.1800 
      2 C           6.9272  -13.4113  -48.0952 C.2       0 UNK         0.5000 
      3 O           7.6477  -13.9543  -47.2588 O.2       0 UNK        -0.5000 
      4 N           6.1929  -14.1006  -48.9763 N.am      1 UNK        -0.5000 
      5 CA          6.1724  -15.5632  -49.1264 C.3       1 UNK         0.1400 
      6 C6          5.9251  -15.9640  -50.6062 C.3       23 UNK        -0.0398 
      7 S7          4.2931  -15.4453  -51.2569 S.3       23 UNK        -0.2404 
      8 C8          3.4656  -17.0516  -51.4986 C.3       23 UNK        -0.0205 
      9 C9          1.9944  -16.9831  -51.1231 C.ar      23 UNK        -0.0193 
     10 C10         1.0495  -16.5451  -52.0542 C.ar      23 UNK        -0.1150 
     11 C11        -0.3068  -16.4968  -51.7196 C.ar      23 UNK        -0.0193 
     12 C12        -0.7128  -16.8791  -50.4375 C.ar      23 UNK        -0.1150 
     13 C13         0.2203  -17.3317  -49.5011 C.ar      23 UNK        -0.0193 
     14 C14         1.5733  -17.3754  -49.8489 C.ar      23 UNK        -0.1150 
     15 C15        -0.2314  -17.7676  -48.1134 C.3       23 UNK        -0.0205 
     16 S16        -1.2318  -19.2889  -48.1499 S.3       23 UNK        -0.2404 
     17 C17        -0.0224  -20.5124  -48.7596 C.3       23 UNK        -0.0398 
     18 CA          0.1868  -21.7626  -47.8709 C.3       11 UNK         0.1400 
     19 N           0.7335  -21.4812  -46.5397 N.am      11 UNK        -0.5000 
     20 C           1.4668  -22.3725  -45.8530 C.2       10 UNK         0.5000 
     21 O           1.7658  -23.4854  -46.2881 O.2       10 UNK        -0.5000 
     22 CA          1.9192  -21.9749  -44.4364 C.3       10 UNK         0.1400 
     23 CB          3.0722  -20.9627  -44.4979 C.3       10 UNK        -0.1800 
     24 N           0.8327  -21.4262  -43.6280 N.am      10 UNK        -0.5000 
     25 C          -0.2572  -22.1098  -43.2446 C.2       9 UNK         0.5000 
     26 O          -0.4433  -23.2993  -43.5023 O.2       9 UNK        -0.5000 
     27 CA         -1.3469  -21.3194  -42.4865 C.3       9 UNK         0.1400 
     28 CB         -1.1076  -21.3934  -40.9716 C.3       9 UNK        -0.1800 
     29 N          -1.4256  -19.9142  -42.8900 N.am      9 UNK        -0.5000 
     30 C          -1.6119  -19.4867  -44.1458 C.2       8 UNK         0.5000 
     31 O          -1.8967  -20.2412  -45.0743 O.2       8 UNK        -0.5000 
     32 CA         -1.3793  -17.9925  -44.4393 C.3       8 UNK         0.1400 
     33 CB         -2.7055  -17.2955  -44.7802 C.3       8 UNK        -0.1800 
     34 N          -0.6914  -17.2312  -43.3918 N.am      8 UNK        -0.5000 
     35 C           0.5235  -17.4712  -42.8759 C.2       7 UNK         0.5000 
     36 O           1.1901  -18.4731  -43.1397 O.2       7 UNK        -0.5000 
     37 CA          1.0795  -16.4400  -41.8743 C.3       7 UNK         0.1400 
     38 CB          2.1913  -15.5977  -42.5178 C.3       7 UNK        -0.1800 
     39 N           0.0493  -15.5258  -41.3762 N.am      7 UNK        -0.5000 
     40 C          -0.5024  -15.5761  -40.1567 C.2       6 UNK         0.5000 
     41 O          -0.2453  -16.4498  -39.3277 O.2       6 UNK        -0.5000 
     42 CA         -1.4895  -14.4521  -39.7794 C.3       6 UNK         0.1400 
     43 CB         -0.7856  -13.3964  -38.9125 C.3       6 UNK        -0.1800 
     44 N          -2.0828  -13.7844  -40.9393 N.am      6 UNK        -0.5000 
     45 C          -3.0915  -14.2829  -41.6654 C.2       5 UNK         0.5000 
     46 O          -3.6533  -15.3489  -41.4131 O.2       5 UNK        -0.5000 
     47 CA         -3.5303  -13.4669  -42.8993 C.3       5 UNK         0.1400 
     48 CB         -4.6534  -12.4890  -42.5220 C.3       5 UNK        -0.1800 
     49 N          -2.4550  -12.7261  -43.5749 N.am      5 UNK        -0.5000 
     50 C          -1.3399  -13.2777  -44.0694 C.2       4 UNK         0.5000 
     51 O          -1.0213  -14.4510  -43.8781 O.2       4 UNK        -0.5000 
     52 CA         -0.4080  -12.3823  -44.8911 C.3       4 UNK         0.1400 
     53 CB          0.6677  -11.7430  -43.9983 C.3       4 UNK        -0.1800 
     54 N           0.2262  -13.2237  -45.8995 N.am      4 UNK        -0.5000 
     55 C           0.5771  -12.8526  -47.1325 C.2       3 UNK         0.5000 
     56 O           0.4864  -11.6938  -47.5426 O.2       3 UNK        -0.5000 
     57 CA          1.1301  -13.9666  -48.0488 C.3       3 UNK         0.1400 
     58 CB          1.4146  -13.4698  -49.4773 C.3       3 UNK        -0.1800 
     59 N           2.3507  -14.5680  -47.5084 N.am      3 UNK        -0.5000 
     60 C           2.4109  -15.4681  -46.5171 C.2       2 UNK         0.5000 
     61 O           1.4109  -15.9121  -45.9532 O.2       2 UNK        -0.5000 
     62 CA          3.8147  -15.9066  -46.0490 C.3       2 UNK         0.1400 
     63 CB          3.8549  -17.3752  -45.5729 C.3       2 UNK        -0.1800 
     64 N           4.8666  -15.5907  -47.0276 N.am      2 UNK        -0.5000 
     65 C           5.2002  -16.2628  -48.1411 C.2       1 UNK         0.5000 
     66 O           4.7660  -17.3797  -48.4194 O.2       1 UNK        -0.5000 
     67 C          -1.0523  -22.6745  -47.8018 C.2       11 UNK         0.5000 
     68 O          -1.2517  -23.4662  -48.7210 O.2       11 UNK        -0.5000 
     69 N          -1.8310  -22.6081  -46.7105 N.am      12 UNK        -0.5000 
     70 CA         -2.9500  -23.5150  -46.4384 C.3       12 UNK         0.1400 
     71 CB         -3.6880  -23.0819  -45.1634 C.3       12 UNK        -0.1800 
     72 C          -2.5063  -24.9824  -46.3259 C.2       12 UNK         0.5000 
     73 O          -3.1615  -25.8552  -46.8911 O.2       12 UNK        -0.5000 
     74 N          -1.3775  -25.2248  -45.6462 N.am      13 UNK        -0.5000 
     75 CA         -0.7611  -26.5468  -45.5264 C.3       13 UNK         0.1400 
     76 CB          0.3736  -26.4802  -44.4931 C.3       13 UNK        -0.1800 
     77 C          -0.2401  -27.1030  -46.8673 C.2       13 UNK         0.5000 
     78 O          -0.2432  -28.3199  -47.0578 O.2       13 UNK        -0.5000 
     79 N           0.1997  -26.2102  -47.7636 N.am      14 UNK        -0.5000 
     80 CA          0.7554  -26.5547  -49.0693 C.3       14 UNK         0.1400 
     81 CB          1.7569  -25.4671  -49.4914 C.3       14 UNK        -0.1800 
     82 C          -0.3295  -26.7421  -50.1448 C.2       14 UNK         0.5000 
     83 O          -0.3273  -27.7604  -50.8376 O.2       14 UNK        -0.5000 
     84 N          -1.2095  -25.7438  -50.2922 N.am      15 UNK        -0.5000 
     85 CA         -2.1382  -25.6144  -51.4172 C.3       15 UNK         0.1400 
     86 CB         -2.1616  -24.1401  -51.8590 C.3       15 UNK        -0.1800 
     87 C          -3.5672  -26.0867  -51.1021 C.2       15 UNK         0.5000 
     88 O          -4.3871  -26.1294  -52.0202 O.2       15 UNK        -0.5000 
     89 N          -3.8690  -26.3809  -49.8282 N.am      16 UNK        -0.5000 
     90 CA         -5.1745  -26.7544  -49.2574 C.3       16 UNK         0.1400 
     91 CB         -5.7621  -28.0124  -49.9266 C.3       16 UNK        -0.1800 
     92 C          -6.1935  -25.5967  -49.2354 C.2       16 UNK         0.5000 
     93 O          -6.8043  -25.3422  -48.1974 O.2       16 UNK        -0.5000 
     94 N          -6.3407  -24.9007  -50.3685 N.am      17 UNK        -0.5000 
     95 CA         -7.2081  -23.7359  -50.5528 C.3       17 UNK         0.1400 
     96 CB         -7.5339  -23.6075  -52.0491 C.3       17 UNK        -0.1800 
     97 C          -6.5958  -22.4254  -50.0160 C.2       17 UNK         0.5000 
     98 O          -7.3040  -21.4208  -49.9400 O.2       17 UNK        -0.5000 
     99 N          -5.3005  -22.4477  -49.6666 N.am      18 UNK        -0.5000 
    100 CA        -4.4985  -21.3138  -49.1979 C.3       18 UNK         0.1400 
    101 CB        -5.0105  -20.8119  -47.8269 C.3       18 UNK        -0.1800 
    102 C         -4.4036  -20.2145  -50.2750 C.2       18 UNK         0.5000 
    103 O         -4.1718  -20.5343  -51.4418 O.2       18 UNK        -0.5000 
    104 N         -4.6053  -18.9493  -49.8846 N.am      19 UNK        -0.5000 
    105 CA        -4.5404  -17.7725  -50.7527 C.3       19 UNK         0.1400 
    106 CB        -4.6674  -16.5091  -49.8883 C.3       19 UNK        -0.1800 
    107 C         -5.5728  -17.7555  -51.8970 C.2       19 UNK         0.5000 
    108 O         -5.3582  -17.0482  -52.8804 O.2       19 UNK        -0.5000 
    109 N         -6.6480  -18.5511  -51.7899 N.am      20 UNK        -0.5000 
    110 CA        -7.6340  -18.7384  -52.8574 C.3       20 UNK         0.1400 
    111 CB        -8.8640  -19.4715  -52.3047 C.3       20 UNK        -0.1800 
    112 C         -7.0631  -19.4703  -54.0902 C.2       20 UNK         0.5000 
    113 O         -7.5948  -19.2969  -55.1876 O.2       20 UNK        -0.5000 
    114 N         -5.9693  -20.2301  -53.9136 N.am      21 UNK        -0.5000 
    115 CA        -5.2206  -20.8626  -55.0036 C.3       21 UNK         0.1400 
    116 CB        -4.2465  -21.8990  -54.4211 C.3       21 UNK        -0.1800 
    117 C         -4.4570  -19.8488  -55.8815 C.2       21 UNK         0.5000 
    118 O         -4.1101  -20.1788  -57.0163 O.2       21 UNK        -0.5000 
    119 N         -4.2127  -18.6418  -55.3533 N.am      22 UNK        -0.5000 
    120 CA        -3.5367  -17.5348  -56.0481 C.3       22 UNK         0.1400 
    121 C         -4.4480  -16.7587  -57.0455 C.2       22 UNK         0.5000 
    122 N         -5.7464  -17.0300  -57.1215 N.am      22 UNK        -0.7600 
    123 O         -3.9646  -15.8975  -57.7753 O.2       22 UNK        -0.5000 
    124 C124       -2.8481  -16.5609  -55.0551 C.3       23 UNK        -0.0398 
    125 S125       -1.7130  -17.4048  -53.9023 S.3       23 UNK        -0.2404 
    126 C126       -1.3275  -16.0495  -52.7533 C.3       23 UNK        -0.0205 
    127 H127        6.1357  -11.5568  -48.9160 H         1 UNK         0.0600 
    128 H128        6.4713  -11.5119  -47.1829 H         1 UNK         0.0600 
    129 H129        7.8029  -11.4578  -48.3429 H         1 UNK         0.0600 
    130 H130        5.6103  -13.5996  -49.6329 H         1 UNK         0.3000 
    131 H131        7.1644  -15.9396  -48.8678 H         1 UNK         0.0600 
    132 H132        6.0644  -17.0378  -50.7386 H         1 UNK         0.0800 
    133 H133        6.6894  -15.5043  -51.2341 H         1 UNK         0.0800 
    134 H134        3.9486  -17.8305  -50.9080 H         1 UNK         0.0800 
    135 H135        3.5730  -17.3546  -52.5410 H         1 UNK         0.0800 
    136 H136        1.3684  -16.2508  -53.0443 H         1 UNK         0.1150 
    137 H137       -1.7563  -16.8426  -50.1666 H         1 UNK         0.1150 
    138 H138        2.3006  -17.7179  -49.1270 H         1 UNK         0.1150 
    139 H139        0.6270  -17.9294  -47.4603 H         1 UNK         0.0800 
    140 H140       -0.8174  -16.9675  -47.6594 H         1 UNK         0.0800 
    141 H141        0.9428  -20.0258  -48.9000 H         1 UNK         0.0800 
    142 H142       -0.3367  -20.8152  -49.7601 H         1 UNK         0.0800 
    143 H143        0.9402  -22.3502  -48.4004 H         1 UNK         0.0600 
    144 H144        0.4679  -20.6073  -46.1093 H         1 UNK         0.3000 
    145 H145        2.2838  -22.8757  -43.9382 H         1 UNK         0.0600 
    146 H146        3.4469  -20.7296  -43.5011 H         1 UNK         0.0600 
    147 H147        3.9084  -21.3543  -45.0784 H         1 UNK         0.0600 
    148 H148        2.7578  -20.0279  -44.9619 H         1 UNK         0.0600 
    149 H149        0.9016  -20.4413  -43.3882 H         1 UNK         0.3000 
    150 H150       -2.3114  -21.7797  -42.7030 H         1 UNK         0.0600 
    151 H151       -1.0653  -22.4297  -40.6335 H         1 UNK         0.0600 
    152 H152       -1.9116  -20.9053  -40.4204 H         1 UNK         0.0600 
    153 H153       -0.1680  -20.9165  -40.6893 H         1 UNK         0.0600 
    154 H154       -1.1806  -19.2266  -42.1934 H         1 UNK         0.3000 
    155 H155       -0.7390  -17.9503  -45.3205 H         1 UNK         0.0600 
    156 H156       -3.3571  -17.2254  -43.9084 H         1 UNK         0.0600 
    157 H157       -3.2471  -17.8379  -45.5568 H         1 UNK         0.0600 
    158 H158       -2.5352  -16.2868  -45.1559 H         1 UNK         0.0600 
    159 H159       -1.1036  -16.3313  -43.1777 H         1 UNK         0.3000 
    160 H160        1.5205  -16.9994  -41.0470 H         1 UNK         0.0600 
    161 H161        2.5823  -14.8603  -41.8167 H         1 UNK         0.0600 
    162 H162        1.8324  -15.0635  -43.3978 H         1 UNK         0.0600 
    163 H163        3.0290  -16.2240  -42.8224 H         1 UNK         0.0600 
    164 H164       -0.2681  -14.8193  -42.0296 H         1 UNK         0.3000 
    165 H165       -2.2878  -14.9011  -39.1844 H         1 UNK         0.0600 
    166 H166       -1.4844  -12.6281  -38.5812 H         1 UNK         0.0600 
    167 H167       -0.3544  -13.8485  -38.0183 H         1 UNK         0.0600 
    168 H168        0.0234  -12.9047  -39.4543 H         1 UNK         0.0600 
    169 H169       -1.6799  -12.9013  -41.2165 H         1 UNK         0.3000 
    170 H170       -3.9318  -14.1791  -43.6232 H         1 UNK         0.0600 
    171 H171       -5.4810  -13.0104  -42.0388 H         1 UNK         0.0600 
    172 H172       -4.3022  -11.7205  -41.8323 H         1 UNK         0.0600 
    173 H173       -5.0571  -11.9911  -43.4038 H         1 UNK         0.0600 
    174 H174       -2.6324  -11.7474  -43.7498 H         1 UNK         0.3000 
    175 H175       -1.0022  -11.6034  -45.3734 H         1 UNK         0.0600 
    176 H176        1.2733  -12.4979  -43.4949 H         1 UNK         0.0600 
    177 H177        1.3384  -11.1118  -44.5815 H         1 UNK         0.0600 
    178 H178        0.2164  -11.1150  -43.2294 H         1 UNK         0.0600 
    179 H179        0.3201  -14.2027  -45.6379 H         1 UNK         0.3000 
    180 H180        0.3592  -14.7360  -48.1168 H         1 UNK         0.0600 
    181 H181        2.1991  -12.7124  -49.4949 H         1 UNK         0.0600 
    182 H182        0.5215  -13.0336  -49.9261 H         1 UNK         0.0600 
    183 H183        1.7263  -14.2897  -50.1223 H         1 UNK         0.0600 
    184 H184        3.2182  -14.2434  -47.9060 H         1 UNK         0.3000 
    185 H185        4.0359  -15.2870  -45.1790 H         1 UNK         0.0600 
    186 H186        3.2131  -17.5228  -44.7060 H         1 UNK         0.0600 
    187 H187        3.4996  -18.0632  -46.3398 H         1 UNK         0.0600 
    188 H188        4.8624  -17.6750  -45.2857 H         1 UNK         0.0600 
    189 H189        5.3430  -14.7123  -46.8759 H         1 UNK         0.3000 
    190 H190       -1.6631  -21.8713  -46.0301 H         1 UNK         0.3000 
    191 H191       -3.6435  -23.4468  -47.2775 H         1 UNK         0.0600 
    192 H192       -3.0892  -23.2649  -44.2727 H         1 UNK         0.0600 
    193 H193       -4.6176  -23.6404  -45.0485 H         1 UNK         0.0600 
    194 H194       -3.9440  -22.0230  -45.1830 H         1 UNK         0.0600 
    195 H195       -0.9186  -24.4604  -45.1617 H         1 UNK         0.3000 
    196 H196       -1.5195  -27.2391  -45.1550 H         1 UNK         0.0600 
    197 H197        0.8450  -27.4554  -44.3648 H         1 UNK         0.0600 
    198 H198        0.0000  -26.1686  -43.5175 H         1 UNK         0.0600 
    199 H199        1.1498  -25.7755  -44.7939 H         1 UNK         0.0600 
    200 H200        0.1648  -25.2296  -47.5234 H         1 UNK         0.3000 
    201 H201        1.3074  -27.4935  -48.9842 H         1 UNK         0.0600 
    202 H202        2.5589  -25.3655  -48.7598 H         1 UNK         0.0600 
    203 H203        1.2792  -24.4929  -49.5983 H         1 UNK         0.0600 
    204 H204        2.2184  -25.7124  -50.4487 H         1 UNK         0.0600 
    205 H205       -1.1586  -24.9399  -49.6667 H         1 UNK         0.3000 
    206 H206       -1.7818  -26.2085  -52.2613 H         1 UNK         0.0600 
    207 H207       -1.1597  -23.7829  -52.0973 H         1 UNK         0.0600 
    208 H208       -2.7717  -24.0080  -52.7532 H         1 UNK         0.0600 
    209 H209       -2.5725  -23.4898  -51.0858 H         1 UNK         0.0600 
    210 H210       -3.1326  -26.2764  -49.1409 H         1 UNK         0.3000 
    211 H211       -4.9834  -27.0204  -48.2179 H         1 UNK         0.0600 
    212 H212       -6.0504  -27.8351  -50.9628 H         1 UNK         0.0600 
    213 H213       -6.6550  -28.3480  -49.3980 H         1 UNK         0.0600 
    214 H214       -5.0478  -28.8356  -49.9125 H         1 UNK         0.0600 
    215 H215       -5.7937  -25.2023  -51.1710 H         1 UNK         0.3000 
    216 H216       -8.1422  -23.9048  -50.0132 H         1 UNK         0.0600 
    217 H217       -8.2312  -22.7903  -52.2326 H         1 UNK         0.0600 
    218 H218       -7.9978  -24.5171  -52.4309 H         1 UNK         0.0600 
    219 H219       -6.6386  -23.4153  -52.6398 H         1 UNK         0.0600 
    220 H220       -4.8020  -23.3132  -49.8055 H         1 UNK         0.3000 
    221 H221       -3.4856  -21.6906  -49.0630 H         1 UNK         0.0600 
    222 H222       -5.9449  -20.2561  -47.9110 H         1 UNK         0.0600 
    223 H223       -5.2015  -21.6437  -47.1516 H         1 UNK         0.0600 
    224 H224       -4.2752  -20.1665  -47.3439 H         1 UNK         0.0600 
    225 H225       -4.8036  -18.7764  -48.9101 H         1 UNK         0.3000 
    226 H226       -3.5566  -17.7741  -51.2244 H         1 UNK         0.0600 
    227 H227       -5.6408  -16.4549  -49.3992 H         1 UNK         0.0600 
    228 H228       -3.9013  -16.4781  -49.1133 H         1 UNK         0.0600 
    229 H229       -4.5529  -15.6089  -50.4936 H         1 UNK         0.0600 
    230 H230       -6.7516  -19.1282  -50.9659 H         1 UNK         0.3000 
    231 H231       -7.9569  -17.7493  -53.1893 H         1 UNK         0.0600 
    232 H232       -9.2881  -18.9459  -51.4491 H         1 UNK         0.0600 
    233 H233       -8.6208  -20.4847  -51.9901 H         1 UNK         0.0600 
    234 H234       -9.6457  -19.5449  -53.0618 H         1 UNK         0.0600 
    235 H235       -5.5596  -20.3042  -52.9882 H         1 UNK         0.3000 
    236 H236       -5.9321  -21.3872  -55.6446 H         1 UNK         0.0600 
    237 H237       -3.7572  -22.4625  -55.2163 H         1 UNK         0.0600 
    238 H238       -3.4621  -21.4257  -53.8297 H         1 UNK         0.0600 
    239 H239       -4.7592  -22.6176  -53.7833 H         1 UNK         0.0600 
    240 H240       -4.5452  -18.4335  -54.4209 H         1 UNK         0.3000 
    241 H241       -2.7449  -17.9715  -56.6597 H         1 UNK         0.0600 
    242 H242       -6.3212  -16.5227  -57.7759 H         1 UNK         0.3800 
    243 H243       -6.1612  -17.7391  -56.5349 H         1 UNK         0.3800 
    244 H244       -2.2716  -15.8106  -55.5990 H         1 UNK         0.0800 
    245 H245       -3.5942  -16.0121  -54.4794 H         1 UNK         0.0800 
    246 H246       -0.9369  -15.1965  -53.3105 H         1 UNK         0.0800 
    247 H247       -2.2442  -15.7121  -52.2669 H         1 UNK         0.0800 
@<TRIPOS>BOND
     1    1    2 1    
     2    1  127 1    
     3    1  128 1    
     4    1  129 1    
     5    2    3 2    
     6    2    4 am   BACKBONE|DICT|INTERRES
     7    4    5 1    
     8    4  130 1    
     9    5    6 1    
    10    5   65 1    
    11    5  131 1    
    12    6    7 1    
    13    6  132 1    
    14    6  133 1    
    15    7    8 1    
    16    8    9 1    
    17    8  134 1    
    18    8  135 1    
    19    9   10 ar   
    20    9   14 ar   
    21   10   11 ar   
    22   10  136 1    
    23   11   12 ar   
    24   11  126 1    
    25   12   13 ar   
    26   12  137 1    
    27   13   14 ar   
    28   13   15 1    
    29   14  138 1    
    30   15   16 1    
    31   15  139 1    
    32   15  140 1    
    33   16   17 1    
    34   17   18 1    
    35   17  141 1    
    36   17  142 1    
    37   18   19 1    
    38   18   67 1    
    39   18  143 1    
    40   19   20 am   BACKBONE|DICT|INTERRES
    41   19  144 1    
    42   20   21 2    
    43   20   22 1    
    44   22   23 1    
    45   22   24 1    
    46   22  145 1    
    47   23  146 1    
    48   23  147 1    
    49   23  148 1    
    50   24   25 am   BACKBONE|DICT|INTERRES
    51   24  149 1    
    52   25   26 2    
    53   25   27 1    
    54   27   28 1    
    55   27   29 1    
    56   27  150 1    
    57   28  151 1    
    58   28  152 1    
    59   28  153 1    
    60   29   30 am   BACKBONE|DICT|INTERRES
    61   29  154 1    
    62   30   31 2    
    63   30   32 1    
    64   32   33 1    
    65   32   34 1    
    66   32  155 1    
    67   33  156 1    
    68   33  157 1    
    69   33  158 1    
    70   34   35 am   BACKBONE|DICT|INTERRES
    71   34  159 1    
    72   35   36 2    
    73   35   37 1    
    74   37   38 1    
    75   37   39 1    
    76   37  160 1    
    77   38  161 1    
    78   38  162 1    
    79   38  163 1    
    80   39   40 am   BACKBONE|DICT|INTERRES
    81   39  164 1    
    82   40   41 2    
    83   40   42 1    
    84   42   43 1    
    85   42   44 1    
    86   42  165 1    
    87   43  166 1    
    88   43  167 1    
    89   43  168 1    
    90   44   45 am   BACKBONE|DICT|INTERRES
    91   44  169 1    
    92   45   46 2    
    93   45   47 1    
    94   47   48 1    
    95   47   49 1    
    96   47  170 1    
    97   48  171 1    
    98   48  172 1    
    99   48  173 1    
   100   49   50 am   BACKBONE|DICT|INTERRES
   101   49  174 1    
   102   50   51 2    
   103   50   52 1    
   104   52   53 1    
   105   52   54 1    
   106   52  175 1    
   107   53  176 1    
   108   53  177 1    
   109   53  178 1    
   110   54   55 am   BACKBONE|DICT|INTERRES
   111   54  179 1    
   112   55   56 2    
   113   55   57 1    
   114   57   58 1    
   115   57   59 1    
   116   57  180 1    
   117   58  181 1    
   118   58  182 1    
   119   58  183 1    
   120   59   60 am   BACKBONE|DICT|INTERRES
   121   59  184 1    
   122   60   61 2    
   123   60   62 1    
   124   62   63 1    
   125   62   64 1    
   126   62  185 1    
   127   63  186 1    
   128   63  187 1    
   129   63  188 1    
   130   64   65 am   BACKBONE|DICT|INTERRES
   131   64  189 1    
   132   65   66 2    
   133   67   68 2    
   134   67   69 am   BACKBONE|DICT|INTERRES
   135   69   70 1    
   136   69  190 1    
   137   70   71 1    
   138   70   72 1    
   139   70  191 1    
   140   71  192 1    
   141   71  193 1    
   142   71  194 1    
   143   72   73 2    
   144   72   74 am   BACKBONE|DICT|INTERRES
   145   74   75 1    
   146   74  195 1    
   147   75   76 1    
   148   75   77 1    
   149   75  196 1    
   150   76  197 1    
   151   76  198 1    
   152   76  199 1    
   153   77   78 2    
   154   77   79 am   BACKBONE|DICT|INTERRES
   155   79   80 1    
   156   79  200 1    
   157   80   81 1    
   158   80   82 1    
   159   80  201 1    
   160   81  202 1    
   161   81  203 1    
   162   81  204 1    
   163   82   83 2    
   164   82   84 am   BACKBONE|DICT|INTERRES
   165   84   85 1    
   166   84  205 1    
   167   85   86 1    
   168   85   87 1    
   169   85  206 1    
   170   86  207 1    
   171   86  208 1    
   172   86  209 1    
   173   87   88 2    
   174   87   89 am   BACKBONE|DICT|INTERRES
   175   89   90 1    
   176   89  210 1    
   177   90   91 1    
   178   90   92 1    
   179   90  211 1    
   180   91  212 1    
   181   91  213 1    
   182   91  214 1    
   183   92   93 2    
   184   92   94 am   BACKBONE|DICT|INTERRES
   185   94   95 1    
   186   94  215 1    
   187   95   96 1    
   188   95   97 1    
   189   95  216 1    
   190   96  217 1    
   191   96  218 1    
   192   96  219 1    
   193   97   98 2    
   194   97   99 am   BACKBONE|DICT|INTERRES
   195   99  100 1    
   196   99  220 1    
   197  100  101 1    
   198  100  102 1    
   199  100  221 1    
   200  101  222 1    
   201  101  223 1    
   202  101  224 1    
   203  102  103 2    
   204  102  104 am   BACKBONE|DICT|INTERRES
   205  104  105 1    
   206  104  225 1    
   207  105  106 1    
   208  105  107 1    
   209  105  226 1    
   210  106  227 1    
   211  106  228 1    
   212  106  229 1    
   213  107  108 2    
   214  107  109 am   BACKBONE|DICT|INTERRES
   215  109  110 1    
   216  109  230 1    
   217  110  111 1    
   218  110  112 1    
   219  110  231 1    
   220  111  232 1    
   221  111  233 1    
   222  111  234 1    
   223  112  113 2    
   224  112  114 am   BACKBONE|DICT|INTERRES
   225  114  115 1    
   226  114  235 1    
   227  115  116 1    
   228  115  117 1    
   229  115  236 1    
   230  116  237 1    
   231  116  238 1    
   232  116  239 1    
   233  117  118 2    
   234  117  119 am   BACKBONE|DICT|INTERRES
   235  119  120 1    
   236  119  240 1    
   237  120  121 1    
   238  120  124 1    
   239  120  241 1    
   240  121  122 am   BACKBONE|DICT|INTERRES
   241  121  123 2    
   242  122  242 1    
   243  122  243 1    
   244  124  125 1    
   245  124  244 1    
   246  124  245 1    
   247  125  126 1    
   248  126  246 1    
   249  126  247 1    
@<TRIPOS>SUBSTRUCTURE
     1 UNK         1 GROUP             0       ****    0 ROOT    
