@<TRIPOS>MOLECULE
3R540
247   249    1
SMALL
USER_CHARGES


@<TRIPOS>ATOM
      1 CA          7.4041  -10.8973  -48.6260 C.3       0 UNK        -0.1800 
      2 C           6.4190  -11.3225  -47.5469 C.2       0 UNK         0.5000 
      3 O           5.7580  -10.4725  -46.9494 O.2       0 UNK        -0.5000 
      4 N           6.3067  -12.6354  -47.3024 N.am      1 UNK        -0.5000 
      5 CA          5.4139  -13.2344  -46.3003 C.3       1 UNK         0.1400 
      6 C6          5.7246  -14.7319  -46.0503 C.3       23 UNK        -0.0398 
      7 S7          5.5971  -15.7753  -47.5450 S.3       23 UNK        -0.2404 
      8 C8          3.9475  -16.5160  -47.3293 C.3       23 UNK        -0.0205 
      9 C9          3.5492  -17.2827  -48.5758 C.ar      23 UNK        -0.0193 
     10 C10         2.8414  -16.6515  -49.6022 C.ar      23 UNK        -0.1150 
     11 C11         2.5272  -17.3416  -50.7774 C.ar      23 UNK        -0.0193 
     12 C12         2.9208  -18.6777  -50.9132 C.ar      23 UNK        -0.1150 
     13 C13         3.6062  -19.3241  -49.8799 C.ar      23 UNK        -0.0193 
     14 C14         3.9181  -18.6207  -48.7150 C.ar      23 UNK        -0.1150 
     15 C15         4.0186  -20.7821  -50.0141 C.3       23 UNK        -0.0205 
     16 S16         2.5983  -21.9130  -49.8933 S.3       23 UNK        -0.2404 
     17 C17         1.7735  -21.3351  -48.3679 C.3       23 UNK        -0.0398 
     18 CA          0.9079  -22.4099  -47.6696 C.3       11 UNK         0.1400 
     19 N           0.3520  -21.9048  -46.4120 N.am      11 UNK        -0.5000 
     20 C          -0.2632  -22.6632  -45.4941 C.2       10 UNK         0.5000 
     21 O          -0.3472  -23.8900  -45.5642 O.2       10 UNK        -0.5000 
     22 CA         -0.9421  -21.9185  -44.3298 C.3       10 UNK         0.1400 
     23 CB          0.0832  -21.5495  -43.2476 C.3       10 UNK        -0.1800 
     24 N          -1.6547  -20.7154  -44.7685 N.am      10 UNK        -0.5000 
     25 C          -2.7191  -20.7241  -45.5846 C.2       9 UNK         0.5000 
     26 O          -3.2379  -21.7544  -46.0103 O.2       9 UNK        -0.5000 
     27 CA         -3.2826  -19.3634  -46.0326 C.3       9 UNK         0.1400 
     28 CB         -4.2505  -18.8111  -44.9775 C.3       9 UNK        -0.1800 
     29 N          -2.2489  -18.3699  -46.3288 N.am      9 UNK        -0.5000 
     30 C          -1.3087  -18.4943  -47.2783 C.2       8 UNK         0.5000 
     31 O          -1.2023  -19.4769  -48.0099 O.2       8 UNK        -0.5000 
     32 CA         -0.2608  -17.3697  -47.3715 C.3       8 UNK         0.1400 
     33 CB         -0.8286  -16.1216  -48.0620 C.3       8 UNK        -0.1800 
     34 N           0.2626  -17.0068  -46.0557 N.am      8 UNK        -0.5000 
     35 C           0.9734  -17.8312  -45.2734 C.2       7 UNK         0.5000 
     36 O           1.3381  -18.9586  -45.6116 O.2       7 UNK        -0.5000 
     37 CA          1.2736  -17.3244  -43.8530 C.3       7 UNK         0.1400 
     38 CB          2.4941  -16.3907  -43.8421 C.3       7 UNK        -0.1800 
     39 N           0.1184  -16.6356  -43.2734 N.am      7 UNK        -0.5000 
     40 C          -0.9893  -17.2631  -42.8503 C.2       6 UNK         0.5000 
     41 O          -1.1390  -18.4830  -42.9027 O.2       6 UNK        -0.5000 
     42 CA         -2.1331  -16.3904  -42.2979 C.3       6 UNK         0.1400 
     43 CB         -1.9350  -16.1360  -40.7963 C.3       6 UNK        -0.1800 
     44 N          -2.2737  -15.1083  -42.9869 N.am      6 UNK        -0.5000 
     45 C          -2.5962  -14.9614  -44.2797 C.2       5 UNK         0.5000 
     46 O          -2.8485  -15.9003  -45.0320 O.2       5 UNK        -0.5000 
     47 CA         -2.5770  -13.5266  -44.8412 C.3       5 UNK         0.1400 
     48 CB         -3.9655  -12.8820  -44.7204 C.3       5 UNK        -0.1800 
     49 N          -1.5807  -12.6555  -44.2082 N.am      5 UNK        -0.5000 
     50 C          -0.2655  -12.9052  -44.1736 C.2       4 UNK         0.5000 
     51 O           0.2468  -13.9215  -44.6481 O.2       4 UNK        -0.5000 
     52 CA          0.6163  -11.8421  -43.5056 C.3       4 UNK         0.1400 
     53 CB          1.6652  -12.4795  -42.5779 C.3       4 UNK        -0.1800 
     54 N           1.2895  -11.1037  -44.5644 N.am      4 UNK        -0.5000 
     55 C           0.8654   -9.9413  -45.0794 C.2       3 UNK         0.5000 
     56 O          -0.0663   -9.2873  -44.6088 O.2       3 UNK        -0.5000 
     57 CA          1.5797   -9.4292  -46.3488 C.3       3 UNK         0.1400 
     58 CB          2.7013   -8.4476  -45.9775 C.3       3 UNK        -0.1800 
     59 N           2.1432  -10.5056  -47.1643 N.am      3 UNK        -0.5000 
     60 C           1.4281  -11.4542  -47.7873 C.2       2 UNK         0.5000 
     61 O           0.1996  -11.4364  -47.8688 O.2       2 UNK        -0.5000 
     62 CA          2.2069  -12.6384  -48.3974 C.3       2 UNK         0.1400 
     63 CB          2.2647  -12.5157  -49.9278 C.3       2 UNK        -0.1800 
     64 N           3.5716  -12.8067  -47.8865 N.am      2 UNK        -0.5000 
     65 C           3.9165  -13.0289  -46.6084 C.2       1 UNK         0.5000 
     66 O           3.1095  -13.0689  -45.6836 O.2       1 UNK        -0.5000 
     67 C          -0.2112  -22.9578  -48.5820 C.2       11 UNK         0.5000 
     68 O          -0.0910  -24.0691  -49.0978 O.2       11 UNK        -0.5000 
     69 N          -1.3011  -22.1922  -48.7229 N.am      12 UNK        -0.5000 
     70 CA         -2.4792  -22.5528  -49.5072 C.3       12 UNK         0.1400 
     71 CB         -3.4625  -21.3812  -49.5145 C.3       12 UNK        -0.1800 
     72 C          -3.1781  -23.8277  -49.0140 C.2       12 UNK         0.5000 
     73 O          -3.6674  -24.5951  -49.8380 O.2       12 UNK        -0.5000 
     74 N          -3.2089  -24.0450  -47.6935 N.am      13 UNK        -0.5000 
     75 CA         -3.7563  -25.2471  -47.0663 C.3       13 UNK         0.1400 
     76 CB         -3.8436  -25.0423  -45.5470 C.3       13 UNK        -0.1800 
     77 C          -2.9407  -26.5070  -47.4066 C.2       13 UNK         0.5000 
     78 O          -3.5299  -27.5551  -47.6703 O.2       13 UNK        -0.5000 
     79 N          -1.6073  -26.3719  -47.4390 N.am      14 UNK        -0.5000 
     80 CA         -0.6809  -27.4268  -47.8537 C.3       14 UNK         0.1400 
     81 CB          0.7459  -27.0545  -47.4221 C.3       14 UNK        -0.1800 
     82 C          -0.7476  -27.7008  -49.3688 C.2       14 UNK         0.5000 
     83 O          -0.6859  -28.8593  -49.7816 O.2       14 UNK        -0.5000 
     84 N          -0.8987  -26.6337  -50.1651 N.am      15 UNK        -0.5000 
     85 CA         -1.0436  -26.6807  -51.6224 C.3       15 UNK         0.1400 
     86 CB         -0.7555  -25.2807  -52.1881 C.3       15 UNK        -0.1800 
     87 C          -2.4275  -27.1708  -52.0995 C.2       15 UNK         0.5000 
     88 O          -2.5691  -27.5011  -53.2774 O.2       15 UNK        -0.5000 
     89 N          -3.4167  -27.1833  -51.1933 N.am      16 UNK        -0.5000 
     90 CA         -4.8418  -27.4519  -51.4190 C.3       16 UNK         0.1400 
     91 CB         -5.0729  -28.8964  -51.9092 C.3       16 UNK        -0.1800 
     92 C          -5.5103  -26.3851  -52.3152 C.2       16 UNK         0.5000 
     93 O          -6.4044  -26.6979  -53.1031 O.2       16 UNK        -0.5000 
     94 N          -5.0754  -25.1297  -52.1558 N.am      17 UNK        -0.5000 
     95 CA         -5.5402  -23.9466  -52.8757 C.3       17 UNK         0.1400 
     96 CB         -4.3172  -23.0912  -53.2433 C.3       17 UNK        -0.1800 
     97 C          -6.5726  -23.1879  -52.0195 C.2       17 UNK         0.5000 
     98 O          -6.3837  -22.0138  -51.6847 O.2       17 UNK        -0.5000 
     99 N          -7.6293  -23.9146  -51.6258 N.am      18 UNK        -0.5000 
    100 CA        -8.7951  -23.4835  -50.8392 C.3       18 UNK         0.1400 
    101 CB        -9.5980  -22.4225  -51.6205 C.3       18 UNK        -0.1800 
    102 C         -8.4873  -23.0051  -49.4022 C.2       18 UNK         0.5000 
    103 O         -9.4012  -22.5398  -48.7205 O.2       18 UNK        -0.5000 
    104 N         -7.2186  -23.1052  -48.9735 N.am      19 UNK        -0.5000 
    105 CA        -6.6552  -22.5546  -47.7345 C.3       19 UNK         0.1400 
    106 CB        -7.2077  -23.2949  -46.4994 C.3       19 UNK        -0.1800 
    107 C         -6.7967  -21.0183  -47.6366 C.2       19 UNK         0.5000 
    108 O         -6.9005  -20.4842  -46.5319 O.2       19 UNK        -0.5000 
    109 N         -6.8168  -20.3386  -48.7934 N.am      20 UNK        -0.5000 
    110 CA        -7.1054  -18.9068  -48.8958 C.3       20 UNK         0.1400 
    111 CB        -8.6042  -18.7205  -49.1888 C.3       20 UNK        -0.1800 
    112 C         -6.2530  -18.1749  -49.9457 C.2       20 UNK         0.5000 
    113 O         -6.1019  -16.9579  -49.8287 O.2       20 UNK        -0.5000 
    114 N         -5.7300  -18.8916  -50.9513 N.am      21 UNK        -0.5000 
    115 CA        -4.8788  -18.3298  -52.0019 C.3       21 UNK         0.1400 
    116 CB        -5.2025  -19.0484  -53.3268 C.3       21 UNK        -0.1800 
    117 C         -3.3942  -18.4038  -51.5821 C.2       21 UNK         0.5000 
    118 O         -3.0337  -17.8625  -50.5373 O.2       21 UNK        -0.5000 
    119 N         -2.5719  -19.0869  -52.3832 N.am      22 UNK        -0.5000 
    120 CA        -1.1658  -19.4252  -52.1315 C.3       22 UNK         0.1400 
    121 C         -0.9018  -20.8595  -52.6607 C.2       22 UNK         0.5000 
    122 N          0.0547  -21.5765  -52.0909 N.am      22 UNK        -0.7600 
    123 O         -1.5314  -21.3190  -53.6110 O.2       22 UNK        -0.5000 
    124 C124       -0.1956  -18.4174  -52.8041 C.3       23 UNK        -0.0398 
    125 S125        0.0022  -16.8657  -51.8638 S.3       23 UNK        -0.2404 
    126 C126        1.8078  -16.6219  -51.9106 C.3       23 UNK        -0.0205 
    127 H127        6.8835  -10.3578  -49.4173 H         1 UNK         0.0600 
    128 H128        7.9099  -11.7533  -49.0734 H         1 UNK         0.0600 
    129 H129        8.1614  -10.2373  -48.2030 H         1 UNK         0.0600 
    130 H130        6.8639  -13.2910  -47.8326 H         1 UNK         0.3000 
    131 H131        5.6014  -12.7093  -45.3611 H         1 UNK         0.0600 
    132 H132        6.7420  -14.8273  -45.6688 H         1 UNK         0.0800 
    133 H133        5.0841  -15.1343  -45.2631 H         1 UNK         0.0800 
    134 H134        3.9607  -17.1862  -46.4692 H         1 UNK         0.0800 
    135 H135        3.2032  -15.7488  -47.1143 H         1 UNK         0.0800 
    136 H136        2.5556  -15.6154  -49.4940 H         1 UNK         0.1150 
    137 H137        2.7010  -19.2203  -51.8205 H         1 UNK         0.1150 
    138 H138        4.4617  -19.1096  -47.9186 H         1 UNK         0.1150 
    139 H139        4.5127  -20.9328  -50.9749 H         1 UNK         0.0800 
    140 H140        4.7498  -21.0492  -49.2496 H         1 UNK         0.0800 
    141 H141        1.1776  -20.4547  -48.6122 H         1 UNK         0.0800 
    142 H142        2.5403  -20.9936  -47.6712 H         1 UNK         0.0800 
    143 H143        1.5606  -23.2497  -47.4212 H         1 UNK         0.0600 
    144 H144        0.3843  -20.9021  -46.2698 H         1 UNK         0.3000 
    145 H145       -1.6740  -22.5969  -43.8865 H         1 UNK         0.0600 
    146 H146       -0.4056  -21.1171  -42.3744 H         1 UNK         0.0600 
    147 H147        0.6302  -22.4306  -42.9099 H         1 UNK         0.0600 
    148 H148        0.8141  -20.8277  -43.6131 H         1 UNK         0.0600 
    149 H149       -1.3252  -19.8300  -44.3982 H         1 UNK         0.3000 
    150 H150       -3.8495  -19.5237  -46.9509 H         1 UNK         0.0600 
    151 H151       -5.0311  -19.5364  -44.7451 H         1 UNK         0.0600 
    152 H152       -4.7449  -17.9062  -45.3308 H         1 UNK         0.0600 
    153 H153       -3.7369  -18.5748  -44.0463 H         1 UNK         0.0600 
    154 H154       -2.2927  -17.5064  -45.7930 H         1 UNK         0.3000 
    155 H155        0.5697  -17.7415  -47.9755 H         1 UNK         0.0600 
    156 H156       -1.2210  -16.3706  -49.0485 H         1 UNK         0.0600 
    157 H157       -0.0580  -15.3640  -48.2015 H         1 UNK         0.0600 
    158 H158       -1.6416  -15.6745  -47.4900 H         1 UNK         0.0600 
    159 H159        0.0065  -16.0986  -45.6907 H         1 UNK         0.3000 
    160 H160        1.5061  -18.1899  -43.2286 H         1 UNK         0.0600 
    161 H161        2.3659  -15.5432  -44.5163 H         1 UNK         0.0600 
    162 H162        3.3922  -16.9249  -44.1519 H         1 UNK         0.0600 
    163 H163        2.6818  -15.9967  -42.8433 H         1 UNK         0.0600 
    164 H164        0.1410  -15.6238  -43.2867 H         1 UNK         0.3000 
    165 H165       -3.0654  -16.9427  -42.4279 H         1 UNK         0.0600 
    166 H166       -2.7798  -15.5922  -40.3731 H         1 UNK         0.0600 
    167 H167       -1.8486  -17.0760  -40.2495 H         1 UNK         0.0600 
    168 H168       -1.0306  -15.5582  -40.6010 H         1 UNK         0.0600 
    169 H169       -2.0781  -14.2782  -42.4475 H         1 UNK         0.3000 
    170 H170       -2.3233  -13.5966  -45.9011 H         1 UNK         0.0600 
    171 H171       -4.7254  -13.4988  -45.2026 H         1 UNK         0.0600 
    172 H172       -4.2603  -12.7524  -43.6783 H         1 UNK         0.0600 
    173 H173       -3.9901  -11.9041  -45.2017 H         1 UNK         0.0600 
    174 H174       -1.9235  -11.7892  -43.8179 H         1 UNK         0.3000 
    175 H175       -0.0063  -11.1774  -42.9032 H         1 UNK         0.0600 
    176 H176        2.3278  -13.1600  -43.1138 H         1 UNK         0.0600 
    177 H177        2.2845  -11.7173  -42.1051 H         1 UNK         0.0600 
    178 H178        1.1850  -13.0501  -41.7822 H         1 UNK         0.0600 
    179 H179        2.0103  -11.6282  -45.0538 H         1 UNK         0.3000 
    180 H180        0.8417   -8.8975  -46.9529 H         1 UNK         0.0600 
    181 H181        3.4835   -8.9344  -45.3932 H         1 UNK         0.0600 
    182 H182        2.3148   -7.6178  -45.3843 H         1 UNK         0.0600 
    183 H183        3.1646   -8.0225  -46.8680 H         1 UNK         0.0600 
    184 H184        3.1498  -10.5987  -47.1543 H         1 UNK         0.3000 
    185 H185        1.6540  -13.5453  -48.1453 H         1 UNK         0.0600 
    186 H186        1.2622  -12.4526  -50.3532 H         1 UNK         0.0600 
    187 H187        2.8098  -11.6231  -50.2371 H         1 UNK         0.0600 
    188 H188        2.7527  -13.3791  -50.3795 H         1 UNK         0.0600 
    189 H189        4.3125  -12.7835  -48.5716 H         1 UNK         0.3000 
    190 H190       -1.3080  -21.2660  -48.2988 H         1 UNK         0.3000 
    191 H191       -2.1477  -22.7263  -50.5312 H         1 UNK         0.0600 
    192 H192       -2.9617  -20.4632  -49.8068 H         1 UNK         0.0600 
    193 H193       -4.2765  -21.5538  -50.2158 H         1 UNK         0.0600 
    194 H194       -3.8986  -21.2131  -48.5327 H         1 UNK         0.0600 
    195 H195       -2.8720  -23.3158  -47.0709 H         1 UNK         0.3000 
    196 H196       -4.7690  -25.3932  -47.4479 H         1 UNK         0.0600 
    197 H197       -4.2789  -25.9154  -45.0595 H         1 UNK         0.0600 
    198 H198       -4.4703  -24.1856  -45.2998 H         1 UNK         0.0600 
    199 H199       -2.8612  -24.8740  -45.1053 H         1 UNK         0.0600 
    200 H200       -1.2036  -25.4712  -47.2147 H         1 UNK         0.3000 
    201 H201       -0.9595  -28.3474  -47.3363 H         1 UNK         0.0600 
    202 H202        0.8046  -26.9053  -46.3437 H         1 UNK         0.0600 
    203 H203        1.0908  -26.1395  -47.9040 H         1 UNK         0.0600 
    204 H204        1.4499  -27.8463  -47.6807 H         1 UNK         0.0600 
    205 H205       -0.8545  -25.7094  -49.7438 H         1 UNK         0.3000 
    206 H206       -0.2958  -27.3703  -52.0192 H         1 UNK         0.0600 
    207 H207        0.2278  -24.9242  -51.8806 H         1 UNK         0.0600 
    208 H208       -0.7743  -25.2864  -53.2786 H         1 UNK         0.0600 
    209 H209       -1.4964  -24.5547  -51.8537 H         1 UNK         0.0600 
    210 H210       -3.1881  -26.8391  -50.2701 H         1 UNK         0.3000 
    211 H211       -5.3176  -27.3604  -50.4416 H         1 UNK         0.0600 
    212 H212       -4.6958  -29.0496  -52.9205 H         1 UNK         0.0600 
    213 H213       -6.1361  -29.1386  -51.9191 H         1 UNK         0.0600 
    214 H214       -4.5828  -29.6171  -51.2546 H         1 UNK         0.0600 
    215 H215       -4.4051  -24.9584  -51.4074 H         1 UNK         0.3000 
    216 H216       -6.0330  -24.2424  -53.8039 H         1 UNK         0.0600 
    217 H217       -4.6029  -22.2660  -53.8942 H         1 UNK         0.0600 
    218 H218       -3.5726  -23.6781  -53.7817 H         1 UNK         0.0600 
    219 H219       -3.8313  -22.6712  -52.3630 H         1 UNK         0.0600 
    220 H220       -7.6561  -24.8782  -51.9329 H         1 UNK         0.3000 
    221 H221       -9.4283  -24.3653  -50.7315 H         1 UNK         0.0600 
    222 H222       -9.0482  -21.4853  -51.7138 H         1 UNK         0.0600 
    223 H223       -9.8397  -22.7709  -52.6246 H         1 UNK         0.0600 
    224 H224      -10.5419  -22.1969  -51.1228 H         1 UNK         0.0600 
    225 H225       -6.5521  -23.5007  -49.6210 H         1 UNK         0.3000 
    226 H226       -5.5859  -22.7476  -47.7693 H         1 UNK         0.0600 
    227 H227       -7.0757  -24.3726  -46.5941 H         1 UNK         0.0600 
    228 H228       -6.6862  -22.9843  -45.5933 H         1 UNK         0.0600 
    229 H229       -8.2690  -23.0975  -46.3482 H         1 UNK         0.0600 
    230 H230       -6.7481  -20.8594  -49.6574 H         1 UNK         0.3000 
    231 H231       -6.8822  -18.4191  -47.9443 H         1 UNK         0.0600 
    232 H232       -8.8917  -19.2020  -50.1244 H         1 UNK         0.0600 
    233 H233       -8.8621  -17.6636  -49.2679 H         1 UNK         0.0600 
    234 H234       -9.2168  -19.1455  -48.3933 H         1 UNK         0.0600 
    235 H235       -5.8970  -19.8867  -51.0077 H         1 UNK         0.3000 
    236 H236       -5.1112  -17.2725  -52.1447 H         1 UNK         0.0600 
    237 H237       -6.2549  -18.9291  -53.5854 H         1 UNK         0.0600 
    238 H238       -4.6233  -18.6395  -54.1557 H         1 UNK         0.0600 
    239 H239       -5.0016  -20.1167  -53.2652 H         1 UNK         0.0600 
    240 H240       -2.9559  -19.5473  -53.1978 H         1 UNK         0.3000 
    241 H241       -0.9858  -19.4418  -51.0540 H         1 UNK         0.0600 
    242 H242        0.2421  -22.4969  -52.4532 H         1 UNK         0.3800 
    243 H243        0.6138  -21.2259  -51.3289 H         1 UNK         0.3800 
    244 H244        0.7892  -18.8640  -52.9376 H         1 UNK         0.0800 
    245 H245       -0.5387  -18.1715  -53.8103 H         1 UNK         0.0800 
    246 H246        2.0082  -15.5513  -51.8481 H         1 UNK         0.0800 
    247 H247        2.2063  -16.9398  -52.8752 H         1 UNK         0.0800 
@<TRIPOS>BOND
     1    1    2 1    
     2    1  127 1    
     3    1  128 1    
     4    1  129 1    
     5    2    3 2    
     6    2    4 am   BACKBONE|DICT|INTERRES
     7    4    5 1    
     8    4  130 1    
     9    5    6 1    
    10    5   65 1    
    11    5  131 1    
    12    6    7 1    
    13    6  132 1    
    14    6  133 1    
    15    7    8 1    
    16    8    9 1    
    17    8  134 1    
    18    8  135 1    
    19    9   10 ar   
    20    9   14 ar   
    21   10   11 ar   
    22   10  136 1    
    23   11   12 ar   
    24   11  126 1    
    25   12   13 ar   
    26   12  137 1    
    27   13   14 ar   
    28   13   15 1    
    29   14  138 1    
    30   15   16 1    
    31   15  139 1    
    32   15  140 1    
    33   16   17 1    
    34   17   18 1    
    35   17  141 1    
    36   17  142 1    
    37   18   19 1    
    38   18   67 1    
    39   18  143 1    
    40   19   20 am   BACKBONE|DICT|INTERRES
    41   19  144 1    
    42   20   21 2    
    43   20   22 1    
    44   22   23 1    
    45   22   24 1    
    46   22  145 1    
    47   23  146 1    
    48   23  147 1    
    49   23  148 1    
    50   24   25 am   BACKBONE|DICT|INTERRES
    51   24  149 1    
    52   25   26 2    
    53   25   27 1    
    54   27   28 1    
    55   27   29 1    
    56   27  150 1    
    57   28  151 1    
    58   28  152 1    
    59   28  153 1    
    60   29   30 am   BACKBONE|DICT|INTERRES
    61   29  154 1    
    62   30   31 2    
    63   30   32 1    
    64   32   33 1    
    65   32   34 1    
    66   32  155 1    
    67   33  156 1    
    68   33  157 1    
    69   33  158 1    
    70   34   35 am   BACKBONE|DICT|INTERRES
    71   34  159 1    
    72   35   36 2    
    73   35   37 1    
    74   37   38 1    
    75   37   39 1    
    76   37  160 1    
    77   38  161 1    
    78   38  162 1    
    79   38  163 1    
    80   39   40 am   BACKBONE|DICT|INTERRES
    81   39  164 1    
    82   40   41 2    
    83   40   42 1    
    84   42   43 1    
    85   42   44 1    
    86   42  165 1    
    87   43  166 1    
    88   43  167 1    
    89   43  168 1    
    90   44   45 am   BACKBONE|DICT|INTERRES
    91   44  169 1    
    92   45   46 2    
    93   45   47 1    
    94   47   48 1    
    95   47   49 1    
    96   47  170 1    
    97   48  171 1    
    98   48  172 1    
    99   48  173 1    
   100   49   50 am   BACKBONE|DICT|INTERRES
   101   49  174 1    
   102   50   51 2    
   103   50   52 1    
   104   52   53 1    
   105   52   54 1    
   106   52  175 1    
   107   53  176 1    
   108   53  177 1    
   109   53  178 1    
   110   54   55 am   BACKBONE|DICT|INTERRES
   111   54  179 1    
   112   55   56 2    
   113   55   57 1    
   114   57   58 1    
   115   57   59 1    
   116   57  180 1    
   117   58  181 1    
   118   58  182 1    
   119   58  183 1    
   120   59   60 am   BACKBONE|DICT|INTERRES
   121   59  184 1    
   122   60   61 2    
   123   60   62 1    
   124   62   63 1    
   125   62   64 1    
   126   62  185 1    
   127   63  186 1    
   128   63  187 1    
   129   63  188 1    
   130   64   65 am   BACKBONE|DICT|INTERRES
   131   64  189 1    
   132   65   66 2    
   133   67   68 2    
   134   67   69 am   BACKBONE|DICT|INTERRES
   135   69   70 1    
   136   69  190 1    
   137   70   71 1    
   138   70   72 1    
   139   70  191 1    
   140   71  192 1    
   141   71  193 1    
   142   71  194 1    
   143   72   73 2    
   144   72   74 am   BACKBONE|DICT|INTERRES
   145   74   75 1    
   146   74  195 1    
   147   75   76 1    
   148   75   77 1    
   149   75  196 1    
   150   76  197 1    
   151   76  198 1    
   152   76  199 1    
   153   77   78 2    
   154   77   79 am   BACKBONE|DICT|INTERRES
   155   79   80 1    
   156   79  200 1    
   157   80   81 1    
   158   80   82 1    
   159   80  201 1    
   160   81  202 1    
   161   81  203 1    
   162   81  204 1    
   163   82   83 2    
   164   82   84 am   BACKBONE|DICT|INTERRES
   165   84   85 1    
   166   84  205 1    
   167   85   86 1    
   168   85   87 1    
   169   85  206 1    
   170   86  207 1    
   171   86  208 1    
   172   86  209 1    
   173   87   88 2    
   174   87   89 am   BACKBONE|DICT|INTERRES
   175   89   90 1    
   176   89  210 1    
   177   90   91 1    
   178   90   92 1    
   179   90  211 1    
   180   91  212 1    
   181   91  213 1    
   182   91  214 1    
   183   92   93 2    
   184   92   94 am   BACKBONE|DICT|INTERRES
   185   94   95 1    
   186   94  215 1    
   187   95   96 1    
   188   95   97 1    
   189   95  216 1    
   190   96  217 1    
   191   96  218 1    
   192   96  219 1    
   193   97   98 2    
   194   97   99 am   BACKBONE|DICT|INTERRES
   195   99  100 1    
   196   99  220 1    
   197  100  101 1    
   198  100  102 1    
   199  100  221 1    
   200  101  222 1    
   201  101  223 1    
   202  101  224 1    
   203  102  103 2    
   204  102  104 am   BACKBONE|DICT|INTERRES
   205  104  105 1    
   206  104  225 1    
   207  105  106 1    
   208  105  107 1    
   209  105  226 1    
   210  106  227 1    
   211  106  228 1    
   212  106  229 1    
   213  107  108 2    
   214  107  109 am   BACKBONE|DICT|INTERRES
   215  109  110 1    
   216  109  230 1    
   217  110  111 1    
   218  110  112 1    
   219  110  231 1    
   220  111  232 1    
   221  111  233 1    
   222  111  234 1    
   223  112  113 2    
   224  112  114 am   BACKBONE|DICT|INTERRES
   225  114  115 1    
   226  114  235 1    
   227  115  116 1    
   228  115  117 1    
   229  115  236 1    
   230  116  237 1    
   231  116  238 1    
   232  116  239 1    
   233  117  118 2    
   234  117  119 am   BACKBONE|DICT|INTERRES
   235  119  120 1    
   236  119  240 1    
   237  120  121 1    
   238  120  124 1    
   239  120  241 1    
   240  121  122 am   BACKBONE|DICT|INTERRES
   241  121  123 2    
   242  122  242 1    
   243  122  243 1    
   244  124  125 1    
   245  124  244 1    
   246  124  245 1    
   247  125  126 1    
   248  126  246 1    
   249  126  247 1    
@<TRIPOS>SUBSTRUCTURE
     1 UNK         1 GROUP             0       ****    0 ROOT    
