@<TRIPOS>MOLECULE
3R540
247   249    1
SMALL
USER_CHARGES


@<TRIPOS>ATOM
      1 CA         -0.2892  -16.1355  -46.0671 C.3       0 UNK        -0.1800 
      2 C          -0.0881  -15.3870  -44.7607 C.2       0 UNK         0.5000 
      3 O           1.0470  -15.1204  -44.3715 O.2       0 UNK        -0.5000 
      4 N          -1.1909  -15.0524  -44.0804 N.am      1 UNK        -0.5000 
      5 CA         -1.1972  -14.3295  -42.8034 C.3       1 UNK         0.1400 
      6 C6         -2.5583  -14.4496  -42.0732 C.3       23 UNK        -0.0398 
      7 S7         -3.9842  -13.8125  -43.0288 S.3       23 UNK        -0.2404 
      8 C8         -4.9797  -15.3128  -43.2873 C.3       23 UNK        -0.0205 
      9 C9         -4.3600  -16.2511  -44.3119 C.ar      23 UNK        -0.0193 
     10 C10        -4.5013  -15.9898  -45.6780 C.ar      23 UNK        -0.1150 
     11 C11        -3.9860  -16.8764  -46.6280 C.ar      23 UNK        -0.0193 
     12 C12        -3.3128  -18.0257  -46.2029 C.ar      23 UNK        -0.1150 
     13 C13        -3.1706  -18.3000  -44.8396 C.ar      23 UNK        -0.0193 
     14 C14        -3.6889  -17.4057  -43.8987 C.ar      23 UNK        -0.1150 
     15 C15        -2.5201  -19.5949  -44.3831 C.3       23 UNK        -0.0205 
     16 S16        -3.7789  -20.9014  -44.2876 S.3       23 UNK        -0.2404 
     17 C17        -2.8454  -22.3143  -43.6192 C.3       23 UNK        -0.0398 
     18 CA         -2.4229  -23.2880  -44.7458 C.3       11 UNK         0.1400 
     19 N          -1.1665  -22.8829  -45.3851 N.am      11 UNK        -0.5000 
     20 C          -0.6670  -23.4190  -46.5084 C.2       10 UNK         0.5000 
     21 O          -1.2576  -24.2787  -47.1635 O.2       10 UNK        -0.5000 
     22 CA          0.7396  -22.9727  -46.9483 C.3       10 UNK         0.1400 
     23 CB          0.6477  -21.9771  -48.1133 C.3       10 UNK        -0.1800 
     24 N           1.5353  -22.3944  -45.8605 N.am      10 UNK        -0.5000 
     25 C           1.9582  -23.0800  -44.7848 C.2       9 UNK         0.5000 
     26 O           1.6988  -24.2694  -44.6020 O.2       9 UNK        -0.5000 
     27 CA          2.7728  -22.3234  -43.7162 C.3       9 UNK         0.1400 
     28 CB          4.2715  -22.6169  -43.8808 C.3       9 UNK        -0.1800 
     29 N           2.5709  -20.8749  -43.7290 N.am      9 UNK        -0.5000 
     30 C           1.4176  -20.2487  -43.4573 C.2       8 UNK         0.5000 
     31 O           0.3863  -20.8314  -43.1229 O.2       8 UNK        -0.5000 
     32 CA          1.4050  -18.7193  -43.6465 C.3       8 UNK         0.1400 
     33 CB          1.7159  -18.0123  -42.3194 C.3       8 UNK        -0.1800 
     34 N           2.3353  -18.2459  -44.6790 N.am      8 UNK        -0.5000 
     35 C           2.3066  -18.6002  -45.9705 C.2       7 UNK         0.5000 
     36 O           1.4770  -19.3879  -46.4258 O.2       7 UNK        -0.5000 
     37 CA          3.3890  -17.9981  -46.8928 C.3       7 UNK         0.1400 
     38 CB          3.2081  -18.4218  -48.3618 C.3       7 UNK        -0.1800 
     39 N           3.4511  -16.5376  -46.8415 N.am      7 UNK        -0.5000 
     40 C           3.9671  -15.7887  -45.8618 C.2       6 UNK         0.5000 
     41 O           4.4279  -16.2692  -44.8246 O.2       6 UNK        -0.5000 
     42 CA          3.9910  -14.2564  -46.0540 C.3       6 UNK         0.1400 
     43 CB          5.3712  -13.7958  -46.5572 C.3       6 UNK        -0.1800 
     44 N           2.9243  -13.6745  -46.8817 N.am      6 UNK        -0.5000 
     45 C           2.6451  -13.8488  -48.1820 C.2       5 UNK         0.5000 
     46 O           3.2316  -14.6450  -48.9147 O.2       5 UNK        -0.5000 
     47 CA          1.5304  -12.9641  -48.7624 C.3       5 UNK         0.1400 
     48 CB          0.1458  -13.4164  -48.2744 C.3       5 UNK        -0.1800 
     49 N           1.7406  -11.5649  -48.3961 N.am      5 UNK        -0.5000 
     50 C           2.4673  -10.6931  -49.1088 C.2       4 UNK         0.5000 
     51 O           3.0049  -10.9679  -50.1822 O.2       4 UNK        -0.5000 
     52 CA          2.6134   -9.2671  -48.5398 C.3       4 UNK         0.1400 
     53 CB          1.5700   -8.3308  -49.1689 C.3       4 UNK        -0.1800 
     54 N           2.4774   -9.2147  -47.0840 N.am      4 UNK        -0.5000 
     55 C           3.4162   -9.6165  -46.2163 C.2       3 UNK         0.5000 
     56 O           4.5357  -10.0042  -46.5504 O.2       3 UNK        -0.5000 
     57 CA          3.0299   -9.6045  -44.7228 C.3       3 UNK         0.1400 
     58 CB          3.4912   -8.2984  -44.0587 C.3       3 UNK        -0.1800 
     59 N           1.5945   -9.7893  -44.4736 N.am      3 UNK        -0.5000 
     60 C           0.9020  -10.8861  -44.8054 C.2       2 UNK         0.5000 
     61 O           1.3880  -11.8374  -45.4193 O.2       2 UNK        -0.5000 
     62 CA         -0.5947  -10.8984  -44.4596 C.3       2 UNK         0.1400 
     63 CB         -1.4201  -10.4153  -45.6621 C.3       2 UNK        -0.1800 
     64 N          -1.0269  -12.2469  -44.1035 N.am      2 UNK        -0.5000 
     65 C          -0.7528  -12.8557  -42.9417 C.2       1 UNK         0.5000 
     66 O          -0.1767  -12.3049  -42.0018 O.2       1 UNK        -0.5000 
     67 C          -2.4131  -24.7539  -44.2564 C.2       11 UNK         0.5000 
     68 O          -3.4895  -25.3388  -44.1357 O.2       11 UNK        -0.5000 
     69 N          -1.2288  -25.3597  -44.0685 N.am      12 UNK        -0.5000 
     70 CA         -1.0726  -26.7960  -43.8082 C.3       12 UNK         0.1400 
     71 CB          0.3884  -27.0887  -43.4367 C.3       12 UNK        -0.1800 
     72 C          -1.5148  -27.6824  -44.9941 C.2       12 UNK         0.5000 
     73 O          -1.8788  -28.8390  -44.7807 O.2       12 UNK        -0.5000 
     74 N          -1.5009  -27.1170  -46.2090 N.am      13 UNK        -0.5000 
     75 CA         -1.9915  -27.7239  -47.4461 C.3       13 UNK         0.1400 
     76 CB         -0.8702  -27.6483  -48.4978 C.3       13 UNK        -0.1800 
     77 C          -3.2700  -27.0207  -47.9486 C.2       13 UNK         0.5000 
     78 O          -3.6408  -27.2056  -49.1084 O.2       13 UNK        -0.5000 
     79 N          -3.9011  -26.1937  -47.0981 N.am      14 UNK        -0.5000 
     80 CA         -5.0719  -25.3540  -47.3826 C.3       14 UNK         0.1400 
     81 CB         -6.3292  -26.2289  -47.5669 C.3       14 UNK        -0.1800 
     82 C          -4.8403  -24.3802  -48.5593 C.2       14 UNK         0.5000 
     83 O          -5.7113  -24.2289  -49.4166 O.2       14 UNK        -0.5000 
     84 N          -3.6417  -23.7782  -48.6044 N.am      15 UNK        -0.5000 
     85 CA         -3.1224  -22.9225  -49.6776 C.3       15 UNK         0.1400 
     86 CB         -3.9107  -21.5992  -49.7713 C.3       15 UNK        -0.1800 
     87 C          -3.0217  -23.6822  -51.0158 C.2       15 UNK         0.5000 
     88 O          -3.4150  -23.1590  -52.0592 O.2       15 UNK        -0.5000 
     89 N          -2.5270  -24.9273  -50.9359 N.am      16 UNK        -0.5000 
     90 CA         -2.4443  -25.9242  -52.0091 C.3       16 UNK         0.1400 
     91 CB         -1.4378  -25.4788  -53.0912 C.3       16 UNK        -0.1800 
     92 C          -3.8372  -26.2626  -52.5790 C.2       16 UNK         0.5000 
     93 O          -4.0300  -26.2430  -53.7937 O.2       16 UNK        -0.5000 
     94 N          -4.8010  -26.5065  -51.6781 N.am      17 UNK        -0.5000 
     95 CA         -6.2383  -26.6522  -51.9472 C.3       17 UNK         0.1400 
     96 CB         -6.5243  -27.9875  -52.6641 C.3       17 UNK        -0.1800 
     97 C          -6.8128  -25.4247  -52.6917 C.2       17 UNK         0.5000 
     98 O          -7.5044  -25.5677  -53.7012 O.2       17 UNK        -0.5000 
     99 N          -6.4535  -24.2368  -52.1871 N.am      18 UNK        -0.5000 
    100 CA        -6.7248  -22.8894  -52.6977 C.3       18 UNK         0.1400 
    101 CB        -8.2411  -22.6170  -52.7610 C.3       18 UNK        -0.1800 
    102 C         -6.0201  -22.5207  -54.0230 C.2       18 UNK         0.5000 
    103 O         -6.1768  -21.3842  -54.4735 O.2       18 UNK        -0.5000 
    104 N         -5.2403  -23.4334  -54.6229 N.am      19 UNK        -0.5000 
    105 CA        -4.5676  -23.2243  -55.9087 C.3       19 UNK         0.1400 
    106 CB        -4.0850  -24.5687  -56.4720 C.3       19 UNK        -0.1800 
    107 C         -3.4014  -22.2196  -55.8534 C.2       19 UNK         0.5000 
    108 O         -3.0546  -21.6569  -56.8931 O.2       19 UNK        -0.5000 
    109 N         -2.8213  -21.9929  -54.6644 N.am      20 UNK        -0.5000 
    110 CA        -1.7660  -20.9974  -54.4535 C.3       20 UNK         0.1400 
    111 CB        -1.0435  -21.2795  -53.1269 C.3       20 UNK        -0.1800 
    112 C         -2.2964  -19.5506  -54.4746 C.2       20 UNK         0.5000 
    113 O         -1.5073  -18.6269  -54.6777 O.2       20 UNK        -0.5000 
    114 N         -3.6089  -19.3763  -54.2422 N.am      21 UNK        -0.5000 
    115 CA        -4.3641  -18.1156  -54.2720 C.3       21 UNK         0.1400 
    116 CB        -4.5023  -17.6224  -55.7267 C.3       21 UNK        -0.1800 
    117 C         -3.8133  -17.0226  -53.3266 C.2       21 UNK         0.5000 
    118 O         -3.9650  -15.8319  -53.6051 O.2       21 UNK        -0.5000 
    119 N         -3.1727  -17.4518  -52.2303 N.am      22 UNK        -0.5000 
    120 CA        -2.4336  -16.6120  -51.2730 C.3       22 UNK         0.1400 
    121 C         -1.1116  -15.9946  -51.8334 C.2       22 UNK         0.5000 
    122 N         -0.5793  -16.4633  -52.9568 N.am      22 UNK        -0.7600 
    123 O         -0.5374  -15.0912  -51.2337 O.2       22 UNK        -0.5000 
    124 C124       -3.3503  -15.5743  -50.5574 C.3       23 UNK        -0.0398 
    125 S125       -2.9904  -15.4392  -48.7753 S.3       23 UNK        -0.2404 
    126 C126       -4.2014  -16.6197  -48.1108 C.3       23 UNK        -0.0205 
    127 H127       -1.1703  -15.7667  -46.5876 H         1 UNK         0.0600 
    128 H128       -0.4218  -17.2004  -45.8812 H         1 UNK         0.0600 
    129 H129        0.5717  -16.0068  -46.7221 H         1 UNK         0.0600 
    130 H130       -2.1005  -15.3060  -44.4428 H         1 UNK         0.3000 
    131 H131       -0.4533  -14.8108  -42.1645 H         1 UNK         0.0600 
    132 H132       -2.7341  -15.4929  -41.8103 H         1 UNK         0.0800 
    133 H133       -2.5237  -13.9186  -41.1202 H         1 UNK         0.0800 
    134 H134       -5.1316  -15.8218  -42.3341 H         1 UNK         0.0800 
    135 H135       -5.9723  -15.0166  -43.6298 H         1 UNK         0.0800 
    136 H136       -5.0308  -15.1049  -46.0029 H         1 UNK         0.1150 
    137 H137       -2.9271  -18.7246  -46.9319 H         1 UNK         0.1150 
    138 H138       -3.5980  -17.6278  -42.8447 H         1 UNK         0.1150 
    139 H139       -1.7296  -19.8894  -45.0755 H         1 UNK         0.0800 
    140 H140       -2.0523  -19.4600  -43.4067 H         1 UNK         0.0800 
    141 H141       -3.5132  -22.7992  -42.9043 H         1 UNK         0.0800 
    142 H142       -1.9889  -21.9741  -43.0365 H         1 UNK         0.0800 
    143 H143       -3.1904  -23.2619  -45.5227 H         1 UNK         0.0600 
    144 H144       -0.6118  -22.1958  -44.8922 H         1 UNK         0.3000 
    145 H145        1.2652  -23.8610  -47.3043 H         1 UNK         0.0600 
    146 H146        1.6330  -21.6093  -48.3998 H         1 UNK         0.0600 
    147 H147        0.2135  -22.4495  -48.9945 H         1 UNK         0.0600 
    148 H148        0.0279  -21.1156  -47.8613 H         1 UNK         0.0600 
    149 H149        1.7349  -21.4026  -45.9305 H         1 UNK         0.3000 
    150 H150        2.4547  -22.6969  -42.7407 H         1 UNK         0.0600 
    151 H151        4.4660  -23.6898  -43.8463 H         1 UNK         0.0600 
    152 H152        4.8542  -22.1574  -43.0822 H         1 UNK         0.0600 
    153 H153        4.6521  -22.2447  -44.8329 H         1 UNK         0.0600 
    154 H154        3.3623  -20.3102  -43.9999 H         1 UNK         0.3000 
    155 H155        0.3964  -18.4391  -43.9543 H         1 UNK         0.0600 
    156 H156        1.0218  -18.3245  -41.5380 H         1 UNK         0.0600 
    157 H157        1.6273  -16.9304  -42.4166 H         1 UNK         0.0600 
    158 H158        2.7256  -18.2351  -41.9725 H         1 UNK         0.0600 
    159 H159        3.0350  -17.5655  -44.3968 H         1 UNK         0.3000 
    160 H160        4.3483  -18.3918  -46.5515 H         1 UNK         0.0600 
    161 H161        2.2611  -18.0638  -48.7682 H         1 UNK         0.0600 
    162 H162        3.2217  -19.5077  -48.4635 H         1 UNK         0.0600 
    163 H163        4.0100  -18.0295  -48.9874 H         1 UNK         0.0600 
    164 H164        3.1503  -16.0432  -47.6761 H         1 UNK         0.3000 
    165 H165        3.8432  -13.8277  -45.0614 H         1 UNK         0.0600 
    166 H166        5.4309  -12.7083  -46.6014 H         1 UNK         0.0600 
    167 H167        6.1643  -14.1377  -45.8911 H         1 UNK         0.0600 
    168 H168        5.5902  -14.1846  -47.5521 H         1 UNK         0.0600 
    169 H169        2.3279  -13.0261  -46.3685 H         1 UNK         0.3000 
    170 H170        1.5469  -13.0674  -49.8498 H         1 UNK         0.0600 
    171 H171       -0.0380  -14.4544  -48.5521 H         1 UNK         0.0600 
    172 H172        0.0437  -13.3402  -47.1922 H         1 UNK         0.0600 
    173 H173       -0.6455  -12.8194  -48.7278 H         1 UNK         0.0600 
    174 H174        1.4042  -11.2860  -47.4843 H         1 UNK         0.3000 
    175 H175        3.6064   -8.9019  -48.8109 H         1 UNK         0.0600 
    176 H176        0.5526   -8.6390  -48.9244 H         1 UNK         0.0600 
    177 H177        1.7027   -7.3046  -48.8256 H         1 UNK         0.0600 
    178 H178        1.6580   -8.3223  -50.2561 H         1 UNK         0.0600 
    179 H179        1.5933   -8.8930  -46.7190 H         1 UNK         0.3000 
    180 H180        3.5570  -10.4342  -44.2468 H         1 UNK         0.0600 
    181 H181        2.9751   -7.4318  -44.4737 H         1 UNK         0.0600 
    182 H182        4.5614   -8.1432  -44.2028 H         1 UNK         0.0600 
    183 H183        3.3095   -8.3160  -42.9840 H         1 UNK         0.0600 
    184 H184        1.1238   -9.0390  -43.9882 H         1 UNK         0.3000 
    185 H185       -0.7763  -10.2320  -43.6138 H         1 UNK         0.0600 
    186 H186       -1.1445   -9.3983  -45.9440 H         1 UNK         0.0600 
    187 H187       -1.2713  -11.0504  -46.5367 H         1 UNK         0.0600 
    188 H188       -2.4855  -10.4094  -45.4310 H         1 UNK         0.0600 
    189 H189       -1.4726  -12.7879  -44.8287 H         1 UNK         0.3000 
    190 H190       -0.3728  -24.8339  -44.2038 H         1 UNK         0.3000 
    191 H191       -1.7002  -27.0529  -42.9523 H         1 UNK         0.0600 
    192 H192        1.0627  -26.8865  -44.2696 H         1 UNK         0.0600 
    193 H193        0.7109  -26.4842  -42.5888 H         1 UNK         0.0600 
    194 H194        0.5176  -28.1354  -43.1584 H         1 UNK         0.0600 
    195 H195       -1.2002  -26.1525  -46.2943 H         1 UNK         0.3000 
    196 H196       -2.2452  -28.7736  -47.2876 H         1 UNK         0.0600 
    197 H197        0.0336  -28.1441  -48.1434 H         1 UNK         0.0600 
    198 H198       -0.6120  -26.6160  -48.7379 H         1 UNK         0.0600 
    199 H199       -1.1636  -28.1408  -49.4256 H         1 UNK         0.0600 
    200 H200       -3.5412  -26.1242  -46.1544 H         1 UNK         0.3000 
    201 H201       -5.2290  -24.7321  -46.5003 H         1 UNK         0.0600 
    202 H202       -7.2232  -25.6132  -47.6721 H         1 UNK         0.0600 
    203 H203       -6.4845  -26.8794  -46.7062 H         1 UNK         0.0600 
    204 H204       -6.2598  -26.8590  -48.4539 H         1 UNK         0.0600 
    205 H205       -2.9564  -24.0218  -47.8942 H         1 UNK         0.3000 
    206 H206       -2.0998  -22.6684  -49.4012 H         1 UNK         0.0600 
    207 H207       -3.9035  -21.0721  -48.8172 H         1 UNK         0.0600 
    208 H208       -4.9501  -21.7610  -50.0539 H         1 UNK         0.0600 
    209 H209       -3.4712  -20.9315  -50.5127 H         1 UNK         0.0600 
    210 H210       -2.2849  -25.2689  -50.0172 H         1 UNK         0.3000 
    211 H211       -2.0636  -26.8410  -51.5570 H         1 UNK         0.0600 
    212 H212       -0.4669  -25.2454  -52.6547 H         1 UNK         0.0600 
    213 H213       -1.2826  -26.2692  -53.8263 H         1 UNK         0.0600 
    214 H214       -1.7829  -24.5972  -53.6316 H         1 UNK         0.0600 
    215 H215       -4.5262  -26.5484  -50.7001 H         1 UNK         0.3000 
    216 H216       -6.7338  -26.6832  -50.9759 H         1 UNK         0.0600 
    217 H217       -7.5972  -28.1494  -52.7729 H         1 UNK         0.0600 
    218 H218       -6.0865  -28.0149  -53.6624 H         1 UNK         0.0600 
    219 H219       -6.1246  -28.8299  -52.0995 H         1 UNK         0.0600 
    220 H220       -5.9190  -24.2523  -51.3219 H         1 UNK         0.3000 
    221 H221       -6.3072  -22.2132  -51.9517 H         1 UNK         0.0600 
    222 H222       -8.7291  -23.2101  -53.5346 H         1 UNK         0.0600 
    223 H223       -8.7223  -22.8425  -51.8093 H         1 UNK         0.0600 
    224 H224       -8.4411  -21.5682  -52.9831 H         1 UNK         0.0600 
    225 H225       -5.1062  -24.3353  -54.1819 H         1 UNK         0.3000 
    226 H226       -5.3086  -22.8223  -56.6029 H         1 UNK         0.0600 
    227 H227       -4.8820  -25.3126  -56.4695 H         1 UNK         0.0600 
    228 H228       -3.7460  -24.4571  -57.5026 H         1 UNK         0.0600 
    229 H229       -3.2471  -24.9665  -55.8992 H         1 UNK         0.0600 
    230 H230       -3.1515  -22.4934  -53.8420 H         1 UNK         0.3000 
    231 H231       -1.0361  -21.0934  -55.2601 H         1 UNK         0.0600 
    232 H232       -0.1809  -20.6227  -53.0076 H         1 UNK         0.0600 
    233 H233       -0.6789  -22.3058  -53.0829 H         1 UNK         0.0600 
    234 H234       -1.6959  -21.1155  -52.2696 H         1 UNK         0.0600 
    235 H235       -4.1691  -20.2071  -54.0997 H         1 UNK         0.3000 
    236 H236       -5.3646  -18.3530  -53.9076 H         1 UNK         0.0600 
    237 H237       -4.9109  -18.4030  -56.3688 H         1 UNK         0.0600 
    238 H238       -5.1754  -16.7668  -55.7912 H         1 UNK         0.0600 
    239 H239       -3.5411  -17.3166  -56.1412 H         1 UNK         0.0600 
    240 H240       -3.0925  -18.4483  -52.0941 H         1 UNK         0.3000 
    241 H241       -2.0910  -17.3267  -50.5239 H         1 UNK         0.0600 
    242 H242       -1.0198  -17.2086  -53.4887 H         1 UNK         0.3800 
    243 H243        0.2770  -16.0562  -53.2962 H         1 UNK         0.3800 
    244 H244       -3.2630  -14.5873  -51.0148 H         1 UNK         0.0800 
    245 H245       -4.4014  -15.8452  -50.6656 H         1 UNK         0.0800 
    246 H246       -4.1353  -17.5570  -48.6659 H         1 UNK         0.0800 
    247 H247       -5.2092  -16.2353  -48.2752 H         1 UNK         0.0800 
@<TRIPOS>BOND
     1    1    2 1    
     2    1  127 1    
     3    1  128 1    
     4    1  129 1    
     5    2    3 2    
     6    2    4 am   BACKBONE|DICT|INTERRES
     7    4    5 1    
     8    4  130 1    
     9    5    6 1    
    10    5   65 1    
    11    5  131 1    
    12    6    7 1    
    13    6  132 1    
    14    6  133 1    
    15    7    8 1    
    16    8    9 1    
    17    8  134 1    
    18    8  135 1    
    19    9   10 ar   
    20    9   14 ar   
    21   10   11 ar   
    22   10  136 1    
    23   11   12 ar   
    24   11  126 1    
    25   12   13 ar   
    26   12  137 1    
    27   13   14 ar   
    28   13   15 1    
    29   14  138 1    
    30   15   16 1    
    31   15  139 1    
    32   15  140 1    
    33   16   17 1    
    34   17   18 1    
    35   17  141 1    
    36   17  142 1    
    37   18   19 1    
    38   18   67 1    
    39   18  143 1    
    40   19   20 am   BACKBONE|DICT|INTERRES
    41   19  144 1    
    42   20   21 2    
    43   20   22 1    
    44   22   23 1    
    45   22   24 1    
    46   22  145 1    
    47   23  146 1    
    48   23  147 1    
    49   23  148 1    
    50   24   25 am   BACKBONE|DICT|INTERRES
    51   24  149 1    
    52   25   26 2    
    53   25   27 1    
    54   27   28 1    
    55   27   29 1    
    56   27  150 1    
    57   28  151 1    
    58   28  152 1    
    59   28  153 1    
    60   29   30 am   BACKBONE|DICT|INTERRES
    61   29  154 1    
    62   30   31 2    
    63   30   32 1    
    64   32   33 1    
    65   32   34 1    
    66   32  155 1    
    67   33  156 1    
    68   33  157 1    
    69   33  158 1    
    70   34   35 am   BACKBONE|DICT|INTERRES
    71   34  159 1    
    72   35   36 2    
    73   35   37 1    
    74   37   38 1    
    75   37   39 1    
    76   37  160 1    
    77   38  161 1    
    78   38  162 1    
    79   38  163 1    
    80   39   40 am   BACKBONE|DICT|INTERRES
    81   39  164 1    
    82   40   41 2    
    83   40   42 1    
    84   42   43 1    
    85   42   44 1    
    86   42  165 1    
    87   43  166 1    
    88   43  167 1    
    89   43  168 1    
    90   44   45 am   BACKBONE|DICT|INTERRES
    91   44  169 1    
    92   45   46 2    
    93   45   47 1    
    94   47   48 1    
    95   47   49 1    
    96   47  170 1    
    97   48  171 1    
    98   48  172 1    
    99   48  173 1    
   100   49   50 am   BACKBONE|DICT|INTERRES
   101   49  174 1    
   102   50   51 2    
   103   50   52 1    
   104   52   53 1    
   105   52   54 1    
   106   52  175 1    
   107   53  176 1    
   108   53  177 1    
   109   53  178 1    
   110   54   55 am   BACKBONE|DICT|INTERRES
   111   54  179 1    
   112   55   56 2    
   113   55   57 1    
   114   57   58 1    
   115   57   59 1    
   116   57  180 1    
   117   58  181 1    
   118   58  182 1    
   119   58  183 1    
   120   59   60 am   BACKBONE|DICT|INTERRES
   121   59  184 1    
   122   60   61 2    
   123   60   62 1    
   124   62   63 1    
   125   62   64 1    
   126   62  185 1    
   127   63  186 1    
   128   63  187 1    
   129   63  188 1    
   130   64   65 am   BACKBONE|DICT|INTERRES
   131   64  189 1    
   132   65   66 2    
   133   67   68 2    
   134   67   69 am   BACKBONE|DICT|INTERRES
   135   69   70 1    
   136   69  190 1    
   137   70   71 1    
   138   70   72 1    
   139   70  191 1    
   140   71  192 1    
   141   71  193 1    
   142   71  194 1    
   143   72   73 2    
   144   72   74 am   BACKBONE|DICT|INTERRES
   145   74   75 1    
   146   74  195 1    
   147   75   76 1    
   148   75   77 1    
   149   75  196 1    
   150   76  197 1    
   151   76  198 1    
   152   76  199 1    
   153   77   78 2    
   154   77   79 am   BACKBONE|DICT|INTERRES
   155   79   80 1    
   156   79  200 1    
   157   80   81 1    
   158   80   82 1    
   159   80  201 1    
   160   81  202 1    
   161   81  203 1    
   162   81  204 1    
   163   82   83 2    
   164   82   84 am   BACKBONE|DICT|INTERRES
   165   84   85 1    
   166   84  205 1    
   167   85   86 1    
   168   85   87 1    
   169   85  206 1    
   170   86  207 1    
   171   86  208 1    
   172   86  209 1    
   173   87   88 2    
   174   87   89 am   BACKBONE|DICT|INTERRES
   175   89   90 1    
   176   89  210 1    
   177   90   91 1    
   178   90   92 1    
   179   90  211 1    
   180   91  212 1    
   181   91  213 1    
   182   91  214 1    
   183   92   93 2    
   184   92   94 am   BACKBONE|DICT|INTERRES
   185   94   95 1    
   186   94  215 1    
   187   95   96 1    
   188   95   97 1    
   189   95  216 1    
   190   96  217 1    
   191   96  218 1    
   192   96  219 1    
   193   97   98 2    
   194   97   99 am   BACKBONE|DICT|INTERRES
   195   99  100 1    
   196   99  220 1    
   197  100  101 1    
   198  100  102 1    
   199  100  221 1    
   200  101  222 1    
   201  101  223 1    
   202  101  224 1    
   203  102  103 2    
   204  102  104 am   BACKBONE|DICT|INTERRES
   205  104  105 1    
   206  104  225 1    
   207  105  106 1    
   208  105  107 1    
   209  105  226 1    
   210  106  227 1    
   211  106  228 1    
   212  106  229 1    
   213  107  108 2    
   214  107  109 am   BACKBONE|DICT|INTERRES
   215  109  110 1    
   216  109  230 1    
   217  110  111 1    
   218  110  112 1    
   219  110  231 1    
   220  111  232 1    
   221  111  233 1    
   222  111  234 1    
   223  112  113 2    
   224  112  114 am   BACKBONE|DICT|INTERRES
   225  114  115 1    
   226  114  235 1    
   227  115  116 1    
   228  115  117 1    
   229  115  236 1    
   230  116  237 1    
   231  116  238 1    
   232  116  239 1    
   233  117  118 2    
   234  117  119 am   BACKBONE|DICT|INTERRES
   235  119  120 1    
   236  119  240 1    
   237  120  121 1    
   238  120  124 1    
   239  120  241 1    
   240  121  122 am   BACKBONE|DICT|INTERRES
   241  121  123 2    
   242  122  242 1    
   243  122  243 1    
   244  124  125 1    
   245  124  244 1    
   246  124  245 1    
   247  125  126 1    
   248  126  246 1    
   249  126  247 1    
@<TRIPOS>SUBSTRUCTURE
     1 UNK         1 GROUP             0       ****    0 ROOT    
