@<TRIPOS>MOLECULE
3R540
247   249    1
SMALL
USER_CHARGES


@<TRIPOS>ATOM
      1 CA         -2.2618  -16.3802  -45.8198 C.3       0 UNK        -0.1800 
      2 C          -2.3489  -14.9727  -46.3854 C.2       0 UNK         0.5000 
      3 O          -3.2733  -14.2341  -46.0508 O.2       0 UNK        -0.5000 
      4 N          -1.3779  -14.5967  -47.2273 N.am      1 UNK        -0.5000 
      5 CA         -1.2965  -13.3190  -47.9517 C.3       1 UNK         0.1400 
      6 C6         -0.0661  -13.2723  -48.8910 C.3       23 UNK        -0.0398 
      7 S7         -0.0695  -14.5851  -50.1609 S.3       23 UNK        -0.2404 
      8 C8          0.9568  -15.8707  -49.3664 C.3       23 UNK        -0.0205 
      9 C9          1.4596  -16.9577  -50.3121 C.ar      23 UNK        -0.0193 
     10 C10         0.7099  -17.3994  -51.4097 C.ar      23 UNK        -0.1150 
     11 C11         1.1962  -18.4099  -52.2448 C.ar      23 UNK        -0.0193 
     12 C12         2.4310  -19.0000  -51.9638 C.ar      23 UNK        -0.1150 
     13 C13         3.1834  -18.5796  -50.8653 C.ar      23 UNK        -0.0193 
     14 C14         2.6950  -17.5563  -50.0493 C.ar      23 UNK        -0.1150 
     15 C15         4.5253  -19.2281  -50.5614 C.3       23 UNK        -0.0205 
     16 S16         4.3445  -20.9199  -49.9134 S.3       23 UNK        -0.2404 
     17 C17         3.4955  -20.6317  -48.3229 C.3       23 UNK        -0.0398 
     18 CA          2.4574  -21.7283  -47.9893 C.3       11 UNK         0.1400 
     19 N           2.1369  -21.7361  -46.5601 N.am      11 UNK        -0.5000 
     20 C           1.5495  -22.7535  -45.9155 C.2       10 UNK         0.5000 
     21 O           1.2156  -23.8076  -46.4561 O.2       10 UNK        -0.5000 
     22 CA          1.2688  -22.5528  -44.4151 C.3       10 UNK         0.1400 
     23 CB          2.5302  -22.8326  -43.5841 C.3       10 UNK        -0.1800 
     24 N           0.7658  -21.2133  -44.1099 N.am      10 UNK        -0.5000 
     25 C          -0.4143  -20.7371  -44.5289 C.2       9 UNK         0.5000 
     26 O          -1.2235  -21.4015  -45.1733 O.2       9 UNK        -0.5000 
     27 CA         -0.7278  -19.2628  -44.2197 C.3       9 UNK         0.1400 
     28 CB         -1.2699  -19.0981  -42.7929 C.3       9 UNK        -0.1800 
     29 N           0.4245  -18.3814  -44.4117 N.am      9 UNK        -0.5000 
     30 C           1.0473  -18.1822  -45.5825 C.2       8 UNK         0.5000 
     31 O           0.6982  -18.6919  -46.6452 O.2       8 UNK        -0.5000 
     32 CA          2.3002  -17.2954  -45.5520 C.3       8 UNK         0.1400 
     33 CB          1.9142  -15.8085  -45.5201 C.3       8 UNK        -0.1800 
     34 N           3.1535  -17.6187  -44.4092 N.am      8 UNK        -0.5000 
     35 C           3.8221  -18.7738  -44.2749 C.2       7 UNK         0.5000 
     36 O           3.8188  -19.6684  -45.1208 O.2       7 UNK        -0.5000 
     37 CA          4.5811  -18.9806  -42.9519 C.3       7 UNK         0.1400 
     38 CB          5.9465  -18.2789  -42.9936 C.3       7 UNK        -0.1800 
     39 N           3.8236  -18.5057  -41.7926 N.am      7 UNK        -0.5000 
     40 C           2.6751  -19.0501  -41.3657 C.2       6 UNK         0.5000 
     41 O           2.1519  -20.0337  -41.8860 O.2       6 UNK        -0.5000 
     42 CA          1.9689  -18.3531  -40.1890 C.3       6 UNK         0.1400 
     43 CB          2.4877  -18.8968  -38.8498 C.3       6 UNK        -0.1800 
     44 N           2.1081  -16.8952  -40.2085 N.am      6 UNK        -0.5000 
     45 C           1.6427  -16.0958  -41.1767 C.2       5 UNK         0.5000 
     46 O           1.0612  -16.5037  -42.1851 O.2       5 UNK        -0.5000 
     47 CA          1.8856  -14.5886  -40.9932 C.3       5 UNK         0.1400 
     48 CB          2.5569  -13.9779  -42.2324 C.3       5 UNK        -0.1800 
     49 N           0.6337  -13.8861  -40.7237 N.am      5 UNK        -0.5000 
     50 C          -0.0331  -13.9395  -39.5628 C.2       4 UNK         0.5000 
     51 O           0.3548  -14.5791  -38.5840 O.2       4 UNK        -0.5000 
     52 CA         -1.3363  -13.1259  -39.4595 C.3       4 UNK         0.1400 
     53 CB         -1.0810  -11.8010  -38.7244 C.3       4 UNK        -0.1800 
     54 N          -1.9428  -12.8292  -40.7574 N.am      4 UNK        -0.5000 
     55 C          -2.6908  -13.6758  -41.4723 C.2       3 UNK         0.5000 
     56 O          -2.9122  -14.8392  -41.1359 O.2       3 UNK        -0.5000 
     57 CA         -3.3100  -13.1310  -42.7748 C.3       3 UNK         0.1400 
     58 CB         -4.4461  -12.1329  -42.4797 C.3       3 UNK        -0.1800 
     59 N          -2.3458  -12.5737  -43.7327 N.am      3 UNK        -0.5000 
     60 C          -1.5428  -11.5040  -43.6168 C.2       2 UNK         0.5000 
     61 O          -1.5010  -10.7887  -42.6147 O.2       2 UNK        -0.5000 
     62 CA         -0.6117  -11.1840  -44.8052 C.3       2 UNK         0.1400 
     63 CB          0.8472  -11.0376  -44.3419 C.3       2 UNK        -0.1800 
     64 N          -0.6678  -12.2119  -45.8490 N.am      2 UNK        -0.5000 
     65 C          -1.2962  -12.0818  -47.0254 C.2       1 UNK         0.5000 
     66 O          -1.8713  -11.0545  -47.3869 O.2       1 UNK        -0.5000 
     67 C           1.1890  -21.6462  -48.8707 C.2       11 UNK         0.5000 
     68 O           1.0950  -22.3699  -49.8626 O.2       11 UNK        -0.5000 
     69 N           0.2189  -20.8083  -48.4748 N.am      12 UNK        -0.5000 
     70 CA         -1.0894  -20.6858  -49.1251 C.3       12 UNK         0.1400 
     71 CB         -1.7756  -19.4025  -48.6313 C.3       12 UNK        -0.1800 
     72 C          -2.0068  -21.9037  -48.8931 C.2       12 UNK         0.5000 
     73 O          -2.8709  -22.1783  -49.7302 O.2       12 UNK        -0.5000 
     74 N          -1.7786  -22.6031  -47.7737 N.am      13 UNK        -0.5000 
     75 CA         -2.5001  -23.7533  -47.2289 C.3       13 UNK         0.1400 
     76 CB         -2.5957  -24.9011  -48.2531 C.3       13 UNK        -0.1800 
     77 C          -3.8789  -23.3804  -46.6524 C.2       13 UNK         0.5000 
     78 O          -4.3890  -22.2781  -46.8745 O.2       13 UNK        -0.5000 
     79 N          -4.4616  -24.3269  -45.9033 N.am      14 UNK        -0.5000 
     80 CA         -5.7873  -24.2221  -45.2921 C.3       14 UNK         0.1400 
     81 CB         -6.0763  -25.4972  -44.4860 C.3       14 UNK        -0.1800 
     82 C          -6.8784  -23.9880  -46.3509 C.2       14 UNK         0.5000 
     83 O          -6.8969  -24.6864  -47.3661 O.2       14 UNK        -0.5000 
     84 N          -7.7260  -22.9775  -46.1143 N.am      15 UNK        -0.5000 
     85 CA         -8.7775  -22.4856  -47.0152 C.3       15 UNK         0.1400 
     86 CB         -9.8991  -23.5357  -47.1630 C.3       15 UNK        -0.1800 
     87 C          -8.2488  -21.9860  -48.3814 C.2       15 UNK         0.5000 
     88 O          -9.0058  -21.9658  -49.3532 O.2       15 UNK        -0.5000 
     89 N          -6.9632  -21.5957  -48.4295 N.am      16 UNK        -0.5000 
     90 CA         -6.2100  -21.1544  -49.6084 C.3       16 UNK         0.1400 
     91 CB         -6.7827  -19.8302  -50.1602 C.3       16 UNK        -0.1800 
     92 C          -6.0764  -22.2513  -50.6881 C.2       16 UNK         0.5000 
     93 O          -6.0279  -21.9353  -51.8771 O.2       16 UNK        -0.5000 
     94 N          -6.0274  -23.5242  -50.2644 N.am      17 UNK        -0.5000 
     95 CA         -6.0317  -24.6987  -51.1407 C.3       17 UNK         0.1400 
     96 CB         -6.1120  -25.9740  -50.2885 C.3       17 UNK        -0.1800 
     97 C          -4.8507  -24.7828  -52.1269 C.2       17 UNK         0.5000 
     98 O          -5.0408  -25.2739  -53.2403 O.2       17 UNK        -0.5000 
     99 N          -3.6679  -24.3002  -51.7220 N.am      18 UNK        -0.5000 
    100 CA        -2.4914  -24.2205  -52.5882 C.3       18 UNK         0.1400 
    101 CB        -1.2121  -24.4326  -51.7666 C.3       18 UNK        -0.1800 
    102 C         -2.4542  -22.8791  -53.3340 C.2       18 UNK         0.5000 
    103 O         -2.1003  -22.8541  -54.5132 O.2       18 UNK        -0.5000 
    104 N         -2.8605  -21.7936  -52.6582 N.am      19 UNK        -0.5000 
    105 CA        -2.9362  -20.4368  -53.2086 C.3       19 UNK         0.1400 
    106 CB        -3.1631  -19.4214  -52.0793 C.3       19 UNK        -0.1800 
    107 C         -3.9469  -20.2499  -54.3533 C.2       19 UNK         0.5000 
    108 O         -3.7991  -19.3098  -55.1345 O.2       19 UNK        -0.5000 
    109 N         -4.9085  -21.1728  -54.4758 N.am      20 UNK        -0.5000 
    110 CA        -5.8045  -21.3168  -55.6234 C.3       20 UNK         0.1400 
    111 CB        -6.8034  -22.4463  -55.3296 C.3       20 UNK        -0.1800 
    112 C         -5.0647  -21.5808  -56.9541 C.2       20 UNK         0.5000 
    113 O         -5.5942  -21.2353  -58.0113 O.2       20 UNK        -0.5000 
    114 N         -3.8599  -22.1646  -56.8784 N.am      21 UNK        -0.5000 
    115 CA        -2.9484  -22.3594  -58.0026 C.3       21 UNK         0.1400 
    116 CB        -2.5246  -23.8365  -58.0626 C.3       21 UNK        -0.1800 
    117 C         -1.7234  -21.4390  -57.8663 C.2       21 UNK         0.5000 
    118 O         -1.4228  -20.6902  -58.7964 O.2       21 UNK        -0.5000 
    119 N         -1.0429  -21.5111  -56.7123 N.am      22 UNK        -0.5000 
    120 CA         0.2053  -20.7966  -56.3877 C.3       22 UNK         0.1400 
    121 C          1.4150  -21.1579  -57.3102 C.2       22 UNK         0.5000 
    122 N          1.4593  -22.3566  -57.8801 N.am      22 UNK        -0.7600 
    123 O          2.3313  -20.3649  -57.5080 O.2       22 UNK        -0.5000 
    124 C124       -0.0247  -19.2693  -56.1935 C.3       23 UNK        -0.0398 
    125 S125        1.1526  -18.4987  -55.0237 S.3       23 UNK        -0.2404 
    126 C126        0.3737  -18.8921  -53.4276 C.3       23 UNK        -0.0205 
    127 H127       -3.2502  -16.8385  -45.7887 H         1 UNK         0.0600 
    128 H128       -1.8633  -16.3531  -44.8055 H         1 UNK         0.0600 
    129 H129       -1.6185  -17.0129  -46.4309 H         1 UNK         0.0600 
    130 H130       -0.6678  -15.2677  -47.4731 H         1 UNK         0.3000 
    131 H131       -2.1950  -13.2496  -48.5686 H         1 UNK         0.0600 
    132 H132        0.8623  -13.3161  -48.3189 H         1 UNK         0.0800 
    133 H133       -0.0399  -12.3203  -49.4247 H         1 UNK         0.0800 
    134 H134        0.3853  -16.3555  -48.5751 H         1 UNK         0.0800 
    135 H135        1.8119  -15.3863  -48.8926 H         1 UNK         0.0800 
    136 H136       -0.2559  -16.9607  -51.6154 H         1 UNK         0.1150 
    137 H137        2.8043  -19.7919  -52.5982 H         1 UNK         0.1150 
    138 H138        3.2762  -17.2315  -49.1976 H         1 UNK         0.1150 
    139 H139        5.1204  -19.2624  -51.4750 H         1 UNK         0.0800 
    140 H140        5.0952  -18.6297  -49.8488 H         1 UNK         0.0800 
    141 H141        3.0334  -19.6453  -48.2897 H         1 UNK         0.0800 
    142 H142        4.2753  -20.6181  -47.5607 H         1 UNK         0.0800 
    143 H143        2.9258  -22.6920  -48.2023 H         1 UNK         0.0600 
    144 H144        2.4165  -20.9185  -46.0289 H         1 UNK         0.3000 
    145 H145        0.5031  -23.2738  -44.1211 H         1 UNK         0.0600 
    146 H146        2.3165  -22.7828  -42.5163 H         1 UNK         0.0600 
    147 H147        2.9223  -23.8291  -43.7910 H         1 UNK         0.0600 
    148 H148        3.3225  -22.1152  -43.7998 H         1 UNK         0.0600 
    149 H149        1.3497  -20.6310  -43.5157 H         1 UNK         0.3000 
    150 H150       -1.5082  -18.9491  -44.9143 H         1 UNK         0.0600 
    151 H151       -1.5351  -18.0603  -42.5885 H         1 UNK         0.0600 
    152 H152       -0.5399  -19.4101  -42.0466 H         1 UNK         0.0600 
    153 H153       -2.1675  -19.6998  -42.6455 H         1 UNK         0.0600 
    154 H154        0.7603  -17.8848  -43.5919 H         1 UNK         0.3000 
    155 H155        2.8705  -17.4810  -46.4649 H         1 UNK         0.0600 
    156 H156        2.7935  -15.1704  -45.4307 H         1 UNK         0.0600 
    157 H157        1.2447  -15.5827  -44.6907 H         1 UNK         0.0600 
    158 H158        1.3986  -15.5216  -46.4351 H         1 UNK         0.0600 
    159 H159        3.1617  -16.9603  -43.6450 H         1 UNK         0.3000 
    160 H160        4.7513  -20.0526  -42.8304 H         1 UNK         0.0600 
    161 H161        5.8433  -17.1970  -43.0867 H         1 UNK         0.0600 
    162 H162        6.5376  -18.6267  -43.8419 H         1 UNK         0.0600 
    163 H163        6.5229  -18.4849  -42.0915 H         1 UNK         0.0600 
    164 H164        4.1864  -17.7004  -41.3044 H         1 UNK         0.3000 
    165 H165        0.9044  -18.5844  -40.2597 H         1 UNK         0.0600 
    166 H166        1.9329  -18.4749  -38.0115 H         1 UNK         0.0600 
    167 H167        2.3757  -19.9808  -38.7991 H         1 UNK         0.0600 
    168 H168        3.5441  -18.6685  -38.7033 H         1 UNK         0.0600 
    169 H169        2.5473  -16.4758  -39.4014 H         1 UNK         0.3000 
    170 H170        2.5581  -14.4380  -40.1459 H         1 UNK         0.0600 
    171 H171        3.4867  -14.4957  -42.4710 H         1 UNK         0.0600 
    172 H172        1.9129  -14.0380  -43.1081 H         1 UNK         0.0600 
    173 H173        2.8026  -12.9284  -42.0692 H         1 UNK         0.0600 
    174 H174        0.2268  -13.3642  -41.4844 H         1 UNK         0.3000 
    175 H175       -2.0431  -13.7118  -38.8682 H         1 UNK         0.0600 
    176 H176       -0.3911  -11.1615  -39.2769 H         1 UNK         0.0600 
    177 H177       -2.0082  -11.2465  -38.5784 H         1 UNK         0.0600 
    178 H178       -0.6495  -11.9763  -37.7380 H         1 UNK         0.0600 
    179 H179       -1.7845  -11.9029  -41.1473 H         1 UNK         0.3000 
    180 H180       -3.7600  -13.9862  -43.2818 H         1 UNK         0.0600 
    181 H181       -4.9462  -11.8259  -43.3983 H         1 UNK         0.0600 
    182 H182       -4.0852  -11.2343  -41.9790 H         1 UNK         0.0600 
    183 H183       -5.2010  -12.5835  -41.8342 H         1 UNK         0.0600 
    184 H184       -2.3376  -13.0579  -44.6230 H         1 UNK         0.3000 
    185 H185       -0.9329  -10.2192  -45.2028 H         1 UNK         0.0600 
    186 H186        1.2231  -11.9595  -43.9020 H         1 UNK         0.0600 
    187 H187        1.4992  -10.7748  -45.1751 H         1 UNK         0.0600 
    188 H188        0.9485  -10.2504  -43.5937 H         1 UNK         0.0600 
    189 H189       -0.2260  -13.0943  -45.6359 H         1 UNK         0.3000 
    190 H190        0.3880  -20.1918  -47.6829 H         1 UNK         0.3000 
    191 H191       -0.9218  -20.6021  -50.2001 H         1 UNK         0.0600 
    192 H192       -2.7626  -19.2831  -49.0793 H         1 UNK         0.0600 
    193 H193       -1.1900  -18.5194  -48.8880 H         1 UNK         0.0600 
    194 H194       -1.9099  -19.4141  -47.5489 H         1 UNK         0.0600 
    195 H195       -1.1060  -22.2066  -47.1288 H         1 UNK         0.3000 
    196 H196       -1.8904  -24.1000  -46.3931 H         1 UNK         0.0600 
    197 H197       -3.3129  -24.6784  -49.0404 H         1 UNK         0.0600 
    198 H198       -1.6298  -25.0984  -48.7180 H         1 UNK         0.0600 
    199 H199       -2.9201  -25.8269  -47.7775 H         1 UNK         0.0600 
    200 H200       -3.9906  -25.2117  -45.7861 H         1 UNK         0.3000 
    201 H201       -5.7682  -23.3745  -44.6039 H         1 UNK         0.0600 
    202 H202       -6.0775  -26.3835  -45.1220 H         1 UNK         0.0600 
    203 H203       -7.0523  -25.4397  -44.0021 H         1 UNK         0.0600 
    204 H204       -5.3339  -25.6466  -43.7018 H         1 UNK         0.0600 
    205 H205       -7.6143  -22.4512  -45.2585 H         1 UNK         0.3000 
    206 H206       -9.2098  -21.6113  -46.5266 H         1 UNK         0.0600 
    207 H207      -10.2570  -23.8706  -46.1895 H         1 UNK         0.0600 
    208 H208      -10.7560  -23.1225  -47.6962 H         1 UNK         0.0600 
    209 H209       -9.5627  -24.4126  -47.7169 H         1 UNK         0.0600 
    210 H210       -6.4058  -21.6915  -47.5885 H         1 UNK         0.3000 
    211 H211       -5.1974  -20.9500  -49.2599 H         1 UNK         0.0600 
    212 H212       -6.1618  -19.4293  -50.9605 H         1 UNK         0.0600 
    213 H213       -6.8346  -19.0696  -49.3813 H         1 UNK         0.0600 
    214 H214       -7.7842  -19.9597  -50.5704 H         1 UNK         0.0600 
    215 H215       -6.1047  -23.7053  -49.2713 H         1 UNK         0.3000 
    216 H216       -6.9412  -24.6429  -51.7425 H         1 UNK         0.0600 
    217 H217       -5.2848  -26.0412  -49.5815 H         1 UNK         0.0600 
    218 H218       -6.0853  -26.8679  -50.9131 H         1 UNK         0.0600 
    219 H219       -7.0418  -26.0076  -49.7207 H         1 UNK         0.0600 
    220 H220       -3.5991  -23.8491  -50.8170 H         1 UNK         0.3000 
    221 H221       -2.5294  -25.0143  -53.3373 H         1 UNK         0.0600 
    222 H222       -1.2274  -25.3953  -51.2561 H         1 UNK         0.0600 
    223 H223       -1.0733  -23.6575  -51.0151 H         1 UNK         0.0600 
    224 H224       -0.3314  -24.4195  -52.4098 H         1 UNK         0.0600 
    225 H225       -3.1200  -21.9052  -51.6837 H         1 UNK         0.3000 
    226 H226       -1.9707  -20.2330  -53.6635 H         1 UNK         0.0600 
    227 H227       -3.9398  -19.7520  -51.3920 H         1 UNK         0.0600 
    228 H228       -2.2499  -19.2686  -51.5080 H         1 UNK         0.0600 
    229 H229       -3.4558  -18.4447  -52.4673 H         1 UNK         0.0600 
    230 H230       -5.0314  -21.8329  -53.7161 H         1 UNK         0.3000 
    231 H231       -6.3592  -20.3829  -55.7326 H         1 UNK         0.0600 
    232 H232       -6.2965  -23.4006  -55.1793 H         1 UNK         0.0600 
    233 H233       -7.5069  -22.5723  -56.1536 H         1 UNK         0.0600 
    234 H234       -7.3868  -22.2334  -54.4335 H         1 UNK         0.0600 
    235 H235       -3.4926  -22.3937  -55.9621 H         1 UNK         0.3000 
    236 H236       -3.4409  -22.1155  -58.9462 H         1 UNK         0.0600 
    237 H237       -3.3853  -24.4819  -58.2389 H         1 UNK         0.0600 
    238 H238       -1.8183  -24.0080  -58.8759 H         1 UNK         0.0600 
    239 H239       -2.0496  -24.1636  -57.1369 H         1 UNK         0.0600 
    240 H240       -1.3785  -22.1402  -55.9855 H         1 UNK         0.3000 
    241 H241        0.4869  -21.2034  -55.4164 H         1 UNK         0.0600 
    242 H242        2.2393  -22.5941  -58.4729 H         1 UNK         0.3800 
    243 H243        0.7245  -23.0280  -57.7259 H         1 UNK         0.3800 
    244 H244       -1.0327  -19.0822  -55.8210 H         1 UNK         0.0800 
    245 H245        0.0326  -18.7488  -57.1507 H         1 UNK         0.0800 
    246 H246       -0.6176  -18.4387  -53.4051 H         1 UNK         0.0800 
    247 H247        0.2458  -19.9714  -53.3395 H         1 UNK         0.0800 
@<TRIPOS>BOND
     1    1    2 1    
     2    1  127 1    
     3    1  128 1    
     4    1  129 1    
     5    2    3 2    
     6    2    4 am   BACKBONE|DICT|INTERRES
     7    4    5 1    
     8    4  130 1    
     9    5    6 1    
    10    5   65 1    
    11    5  131 1    
    12    6    7 1    
    13    6  132 1    
    14    6  133 1    
    15    7    8 1    
    16    8    9 1    
    17    8  134 1    
    18    8  135 1    
    19    9   10 ar   
    20    9   14 ar   
    21   10   11 ar   
    22   10  136 1    
    23   11   12 ar   
    24   11  126 1    
    25   12   13 ar   
    26   12  137 1    
    27   13   14 ar   
    28   13   15 1    
    29   14  138 1    
    30   15   16 1    
    31   15  139 1    
    32   15  140 1    
    33   16   17 1    
    34   17   18 1    
    35   17  141 1    
    36   17  142 1    
    37   18   19 1    
    38   18   67 1    
    39   18  143 1    
    40   19   20 am   BACKBONE|DICT|INTERRES
    41   19  144 1    
    42   20   21 2    
    43   20   22 1    
    44   22   23 1    
    45   22   24 1    
    46   22  145 1    
    47   23  146 1    
    48   23  147 1    
    49   23  148 1    
    50   24   25 am   BACKBONE|DICT|INTERRES
    51   24  149 1    
    52   25   26 2    
    53   25   27 1    
    54   27   28 1    
    55   27   29 1    
    56   27  150 1    
    57   28  151 1    
    58   28  152 1    
    59   28  153 1    
    60   29   30 am   BACKBONE|DICT|INTERRES
    61   29  154 1    
    62   30   31 2    
    63   30   32 1    
    64   32   33 1    
    65   32   34 1    
    66   32  155 1    
    67   33  156 1    
    68   33  157 1    
    69   33  158 1    
    70   34   35 am   BACKBONE|DICT|INTERRES
    71   34  159 1    
    72   35   36 2    
    73   35   37 1    
    74   37   38 1    
    75   37   39 1    
    76   37  160 1    
    77   38  161 1    
    78   38  162 1    
    79   38  163 1    
    80   39   40 am   BACKBONE|DICT|INTERRES
    81   39  164 1    
    82   40   41 2    
    83   40   42 1    
    84   42   43 1    
    85   42   44 1    
    86   42  165 1    
    87   43  166 1    
    88   43  167 1    
    89   43  168 1    
    90   44   45 am   BACKBONE|DICT|INTERRES
    91   44  169 1    
    92   45   46 2    
    93   45   47 1    
    94   47   48 1    
    95   47   49 1    
    96   47  170 1    
    97   48  171 1    
    98   48  172 1    
    99   48  173 1    
   100   49   50 am   BACKBONE|DICT|INTERRES
   101   49  174 1    
   102   50   51 2    
   103   50   52 1    
   104   52   53 1    
   105   52   54 1    
   106   52  175 1    
   107   53  176 1    
   108   53  177 1    
   109   53  178 1    
   110   54   55 am   BACKBONE|DICT|INTERRES
   111   54  179 1    
   112   55   56 2    
   113   55   57 1    
   114   57   58 1    
   115   57   59 1    
   116   57  180 1    
   117   58  181 1    
   118   58  182 1    
   119   58  183 1    
   120   59   60 am   BACKBONE|DICT|INTERRES
   121   59  184 1    
   122   60   61 2    
   123   60   62 1    
   124   62   63 1    
   125   62   64 1    
   126   62  185 1    
   127   63  186 1    
   128   63  187 1    
   129   63  188 1    
   130   64   65 am   BACKBONE|DICT|INTERRES
   131   64  189 1    
   132   65   66 2    
   133   67   68 2    
   134   67   69 am   BACKBONE|DICT|INTERRES
   135   69   70 1    
   136   69  190 1    
   137   70   71 1    
   138   70   72 1    
   139   70  191 1    
   140   71  192 1    
   141   71  193 1    
   142   71  194 1    
   143   72   73 2    
   144   72   74 am   BACKBONE|DICT|INTERRES
   145   74   75 1    
   146   74  195 1    
   147   75   76 1    
   148   75   77 1    
   149   75  196 1    
   150   76  197 1    
   151   76  198 1    
   152   76  199 1    
   153   77   78 2    
   154   77   79 am   BACKBONE|DICT|INTERRES
   155   79   80 1    
   156   79  200 1    
   157   80   81 1    
   158   80   82 1    
   159   80  201 1    
   160   81  202 1    
   161   81  203 1    
   162   81  204 1    
   163   82   83 2    
   164   82   84 am   BACKBONE|DICT|INTERRES
   165   84   85 1    
   166   84  205 1    
   167   85   86 1    
   168   85   87 1    
   169   85  206 1    
   170   86  207 1    
   171   86  208 1    
   172   86  209 1    
   173   87   88 2    
   174   87   89 am   BACKBONE|DICT|INTERRES
   175   89   90 1    
   176   89  210 1    
   177   90   91 1    
   178   90   92 1    
   179   90  211 1    
   180   91  212 1    
   181   91  213 1    
   182   91  214 1    
   183   92   93 2    
   184   92   94 am   BACKBONE|DICT|INTERRES
   185   94   95 1    
   186   94  215 1    
   187   95   96 1    
   188   95   97 1    
   189   95  216 1    
   190   96  217 1    
   191   96  218 1    
   192   96  219 1    
   193   97   98 2    
   194   97   99 am   BACKBONE|DICT|INTERRES
   195   99  100 1    
   196   99  220 1    
   197  100  101 1    
   198  100  102 1    
   199  100  221 1    
   200  101  222 1    
   201  101  223 1    
   202  101  224 1    
   203  102  103 2    
   204  102  104 am   BACKBONE|DICT|INTERRES
   205  104  105 1    
   206  104  225 1    
   207  105  106 1    
   208  105  107 1    
   209  105  226 1    
   210  106  227 1    
   211  106  228 1    
   212  106  229 1    
   213  107  108 2    
   214  107  109 am   BACKBONE|DICT|INTERRES
   215  109  110 1    
   216  109  230 1    
   217  110  111 1    
   218  110  112 1    
   219  110  231 1    
   220  111  232 1    
   221  111  233 1    
   222  111  234 1    
   223  112  113 2    
   224  112  114 am   BACKBONE|DICT|INTERRES
   225  114  115 1    
   226  114  235 1    
   227  115  116 1    
   228  115  117 1    
   229  115  236 1    
   230  116  237 1    
   231  116  238 1    
   232  116  239 1    
   233  117  118 2    
   234  117  119 am   BACKBONE|DICT|INTERRES
   235  119  120 1    
   236  119  240 1    
   237  120  121 1    
   238  120  124 1    
   239  120  241 1    
   240  121  122 am   BACKBONE|DICT|INTERRES
   241  121  123 2    
   242  122  242 1    
   243  122  243 1    
   244  124  125 1    
   245  124  244 1    
   246  124  245 1    
   247  125  126 1    
   248  126  246 1    
   249  126  247 1    
@<TRIPOS>SUBSTRUCTURE
     1 UNK         1 GROUP             0       ****    0 ROOT    
