@<TRIPOS>MOLECULE
3R540
247   249    1
SMALL
USER_CHARGES


@<TRIPOS>ATOM
      1 CA          1.9464  -11.5161  -49.3971 C.3       0 UNK        -0.1800 
      2 C           1.1500  -12.2865  -48.3546 C.2       0 UNK         0.5000 
      3 O           1.1258  -11.8976  -47.1875 O.2       0 UNK        -0.5000 
      4 N           0.4708  -13.3625  -48.7726 N.am      1 UNK        -0.5000 
      5 CA         -0.3217  -14.2636  -47.9207 C.3       1 UNK         0.1400 
      6 C6         -0.4928  -15.6763  -48.5402 C.3       23 UNK        -0.0398 
      7 S7         -1.0781  -15.6767  -50.2715 S.3       23 UNK        -0.2404 
      8 C8          0.4627  -16.0234  -51.1818 C.3       23 UNK        -0.0205 
      9 C9          0.8030  -17.5072  -51.2105 C.ar      23 UNK        -0.0193 
     10 C10         0.3118  -18.3154  -52.2400 C.ar      23 UNK        -0.1150 
     11 C11         0.6670  -19.6648  -52.3106 C.ar      23 UNK        -0.0193 
     12 C12         1.5013  -20.2090  -51.3326 C.ar      23 UNK        -0.1150 
     13 C13         1.9715  -19.4239  -50.2752 C.ar      23 UNK        -0.0193 
     14 C14         1.6338  -18.0679  -50.2339 C.ar      23 UNK        -0.1150 
     15 C15         2.8498  -20.0211  -49.1770 C.3       23 UNK        -0.0205 
     16 S16         2.3163  -21.6776  -48.6210 S.3       23 UNK        -0.2404 
     17 C17         0.5636  -21.3663  -48.2296 C.3       23 UNK        -0.0398 
     18 CA         -0.0345  -22.4417  -47.3005 C.3       11 UNK         0.1400 
     19 N           0.5327  -22.3975  -45.9498 N.am      11 UNK        -0.5000 
     20 C           0.3661  -23.3598  -45.0332 C.2       10 UNK         0.5000 
     21 O          -0.2679  -24.3940  -45.2426 O.2       10 UNK        -0.5000 
     22 CA          0.9561  -23.1020  -43.6345 C.3       10 UNK         0.1400 
     23 CB          2.4739  -23.3364  -43.6218 C.3       10 UNK        -0.1800 
     24 N           0.6544  -21.7578  -43.1394 N.am      10 UNK        -0.5000 
     25 C          -0.5833  -21.3095  -42.8831 C.2       9 UNK         0.5000 
     26 O          -1.5947  -22.0020  -42.9913 O.2       9 UNK        -0.5000 
     27 CA         -0.7260  -19.8273  -42.4934 C.3       9 UNK         0.1400 
     28 CB         -0.4086  -19.6155  -41.0058 C.3       9 UNK        -0.1800 
     29 N           0.1145  -18.9482  -43.3042 N.am      9 UNK        -0.5000 
     30 C           0.0104  -18.7966  -44.6315 C.2       8 UNK         0.5000 
     31 O          -0.8392  -19.3532  -45.3229 O.2       8 UNK        -0.5000 
     32 CA          1.0741  -17.9214  -45.3111 C.3       8 UNK         0.1400 
     33 CB          0.7553  -16.4332  -45.1256 C.3       8 UNK        -0.1800 
     34 N           2.4195  -18.2053  -44.8139 N.am      8 UNK        -0.5000 
     35 C           3.0507  -19.3775  -44.9692 C.2       7 UNK         0.5000 
     36 O           2.5724  -20.3351  -45.5738 O.2       7 UNK        -0.5000 
     37 CA          4.4258  -19.5136  -44.2939 C.3       7 UNK         0.1400 
     38 CB          5.5218  -18.8814  -45.1644 C.3       7 UNK        -0.1800 
     39 N           4.4480  -18.9089  -42.9611 N.am      7 UNK        -0.5000 
     40 C           3.7621  -19.3793  -41.9093 C.2       6 UNK         0.5000 
     41 O           3.0733  -20.3995  -41.9418 O.2       6 UNK        -0.5000 
     42 CA          3.8155  -18.5341  -40.6221 C.3       6 UNK         0.1400 
     43 CB          5.0876  -18.8456  -39.8196 C.3       6 UNK        -0.1800 
     44 N           3.7362  -17.0903  -40.8749 N.am      6 UNK        -0.5000 
     45 C           2.6853  -16.4849  -41.4432 C.2       5 UNK         0.5000 
     46 O           1.6889  -17.0925  -41.8395 O.2       5 UNK        -0.5000 
     47 CA          2.7837  -14.9619  -41.6501 C.3       5 UNK         0.1400 
     48 CB          3.5807  -14.6430  -42.9249 C.3       5 UNK        -0.1800 
     49 N           1.4560  -14.3597  -41.7668 N.am      5 UNK        -0.5000 
     50 C           0.6036  -14.1811  -40.7515 C.2       4 UNK         0.5000 
     51 O           0.9067  -14.3766  -39.5725 O.2       4 UNK        -0.5000 
     52 CA         -0.8153  -13.6940  -41.1223 C.3       4 UNK         0.1400 
     53 CB         -1.6950  -13.4303  -39.8864 C.3       4 UNK        -0.1800 
     54 N          -0.8013  -12.4863  -41.9526 N.am      4 UNK        -0.5000 
     55 C          -0.5823  -12.4550  -43.2720 C.2       3 UNK         0.5000 
     56 O          -0.3039  -13.4541  -43.9396 O.2       3 UNK        -0.5000 
     57 CA         -0.6372  -11.0732  -43.9446 C.3       3 UNK         0.1400 
     58 CB          0.7707  -10.4642  -44.0285 C.3       3 UNK        -0.1800 
     59 N          -1.1895  -11.1920  -45.2918 N.am      3 UNK        -0.5000 
     60 C          -2.5013  -11.2288  -45.5732 C.2       2 UNK         0.5000 
     61 O          -3.3826  -11.0307  -44.7357 O.2       2 UNK        -0.5000 
     62 CA         -2.9045  -11.5558  -47.0278 C.3       2 UNK         0.1400 
     63 CB         -3.1150  -10.2652  -47.8340 C.3       2 UNK        -0.1800 
     64 N          -1.9077  -12.3838  -47.7051 N.am      2 UNK        -0.5000 
     65 C          -1.6465  -13.6615  -47.3963 C.2       1 UNK         0.5000 
     66 O          -2.3813  -14.3430  -46.6804 O.2       1 UNK        -0.5000 
     67 C          -1.5752  -22.3575  -47.3031 C.2       11 UNK         0.5000 
     68 O          -2.2027  -22.9425  -48.1863 O.2       11 UNK        -0.5000 
     69 N          -2.1663  -21.6419  -46.3372 N.am      12 UNK        -0.5000 
     70 CA         -3.6124  -21.5655  -46.1331 C.3       12 UNK         0.1400 
     71 CB         -3.9558  -20.3762  -45.2258 C.3       12 UNK        -0.1800 
     72 C          -4.1807  -22.8770  -45.5670 C.2       12 UNK         0.5000 
     73 O          -5.2300  -23.3222  -46.0287 O.2       12 UNK        -0.5000 
     74 N          -3.4601  -23.5040  -44.6255 N.am      13 UNK        -0.5000 
     75 CA         -3.7804  -24.8234  -44.0710 C.3       13 UNK         0.1400 
     76 CB         -2.8704  -25.1138  -42.8682 C.3       13 UNK        -0.1800 
     77 C          -3.6813  -25.9481  -45.1204 C.2       13 UNK         0.5000 
     78 O          -4.5054  -26.8628  -45.1141 O.2       13 UNK        -0.5000 
     79 N          -2.7088  -25.8288  -46.0350 N.am      14 UNK        -0.5000 
     80 CA         -2.5477  -26.6808  -47.2169 C.3       14 UNK         0.1400 
     81 CB         -1.1161  -26.5126  -47.7503 C.3       14 UNK        -0.1800 
     82 C          -3.5733  -26.3873  -48.3351 C.2       14 UNK         0.5000 
     83 O          -3.6225  -27.1335  -49.3128 O.2       14 UNK        -0.5000 
     84 N          -4.3454  -25.3005  -48.1861 N.am      15 UNK        -0.5000 
     85 CA         -5.3730  -24.7605  -49.0832 C.3       15 UNK         0.1400 
     86 CB         -6.4813  -25.7938  -49.3657 C.3       15 UNK        -0.1800 
     87 C          -4.8334  -24.1235  -50.3792 C.2       15 UNK         0.5000 
     88 O          -5.6292  -23.6269  -51.1753 O.2       15 UNK        -0.5000 
     89 N          -3.5081  -24.0940  -50.5615 N.am      16 UNK        -0.5000 
     90 CA         -2.8316  -23.5431  -51.7341 C.3       16 UNK         0.1400 
     91 CB         -1.3519  -23.9534  -51.7001 C.3       16 UNK        -0.1800 
     92 C          -2.9814  -22.0160  -51.8308 C.2       16 UNK         0.5000 
     93 O          -3.2846  -21.5012  -52.9085 O.2       16 UNK        -0.5000 
     94 N          -2.8094  -21.3233  -50.6954 N.am      17 UNK        -0.5000 
     95 CA         -3.0225  -19.8762  -50.5961 C.3       17 UNK         0.1400 
     96 CB         -2.2778  -19.3077  -49.3793 C.3       17 UNK        -0.1800 
     97 C          -4.5160  -19.5103  -50.5348 C.2       17 UNK         0.5000 
     98 O          -4.8899  -18.4332  -50.9962 O.2       17 UNK        -0.5000 
     99 N          -5.3442  -20.4156  -49.9914 N.am      18 UNK        -0.5000 
    100 CA        -6.7960  -20.2511  -49.8838 C.3       18 UNK         0.1400 
    101 CB        -7.3671  -21.2996  -48.9168 C.3       18 UNK        -0.1800 
    102 C         -7.4897  -20.3315  -51.2558 C.2       18 UNK         0.5000 
    103 O         -8.3560  -19.5078  -51.5507 O.2       18 UNK        -0.5000 
    104 N         -7.0666  -21.2983  -52.0823 N.am      19 UNK        -0.5000 
    105 CA        -7.4987  -21.4544  -53.4726 C.3       19 UNK         0.1400 
    106 CB        -7.1766  -22.8855  -53.9313 C.3       19 UNK        -0.1800 
    107 C         -6.8419  -20.4361  -54.4257 C.2       19 UNK         0.5000 
    108 O         -7.3266  -20.2652  -55.5448 O.2       19 UNK        -0.5000 
    109 N         -5.7457  -19.8060  -53.9744 N.am      20 UNK        -0.5000 
    110 CA        -4.8628  -18.8995  -54.7146 C.3       20 UNK         0.1400 
    111 CB        -5.5931  -17.5947  -55.0925 C.3       20 UNK        -0.1800 
    112 C         -4.2017  -19.6035  -55.9170 C.2       20 UNK         0.5000 
    113 O         -4.1065  -19.0343  -57.0066 O.2       20 UNK        -0.5000 
    114 N         -3.7470  -20.8435  -55.6840 N.am      21 UNK        -0.5000 
    115 CA        -3.1670  -21.7505  -56.6797 C.3       21 UNK         0.1400 
    116 CB        -2.9284  -23.1153  -56.0145 C.3       21 UNK        -0.1800 
    117 C         -1.8656  -21.2282  -57.3192 C.2       21 UNK         0.5000 
    118 O         -1.5249  -21.6300  -58.4324 O.2       21 UNK        -0.5000 
    119 N         -1.1788  -20.3342  -56.6022 N.am      22 UNK        -0.5000 
    120 CA         0.0372  -19.6328  -57.0338 C.3       22 UNK         0.1400 
    121 C         -0.2371  -18.4020  -57.9488 C.2       22 UNK         0.5000 
    122 N         -1.4819  -18.0007  -58.1862 N.am      22 UNK        -0.7600 
    123 O          0.7018  -17.8012  -58.4640 O.2       22 UNK        -0.5000 
    124 C124        0.9204  -19.2433  -55.8196 C.3       23 UNK        -0.0398 
    125 S125        1.3566  -20.6872  -54.7885 S.3       23 UNK        -0.2404 
    126 C126        0.1507  -20.5496  -53.4309 C.3       23 UNK        -0.0205 
    127 H127        1.8625  -11.9671  -50.3862 H         1 UNK         0.0600 
    128 H128        1.5880  -10.4887  -49.4592 H         1 UNK         0.0600 
    129 H129        3.0006  -11.4945  -49.1212 H         1 UNK         0.0600 
    130 H130        0.4820  -13.6049  -49.7530 H         1 UNK         0.3000 
    131 H131        0.2684  -14.3994  -47.0145 H         1 UNK         0.0600 
    132 H132        0.4621  -16.1939  -48.4846 H         1 UNK         0.0800 
    133 H133       -1.1731  -16.2908  -47.9479 H         1 UNK         0.0800 
    134 H134        1.2893  -15.4550  -50.7534 H         1 UNK         0.0800 
    135 H135        0.3489  -15.6586  -52.2038 H         1 UNK         0.0800 
    136 H136       -0.3353  -17.8880  -52.9925 H         1 UNK         0.1150 
    137 H137        1.7744  -21.2532  -51.3907 H         1 UNK         0.1150 
    138 H138        2.0274  -17.4484  -49.4417 H         1 UNK         0.1150 
    139 H139        2.8713  -19.3630  -48.3069 H         1 UNK         0.0800 
    140 H140        3.8750  -20.0854  -49.5428 H         1 UNK         0.0800 
    141 H141        0.0296  -21.3495  -49.1808 H         1 UNK         0.0800 
    142 H142        0.4566  -20.3737  -47.7879 H         1 UNK         0.0800 
    143 H143        0.2169  -23.4163  -47.7234 H         1 UNK         0.0600 
    144 H144        1.1156  -21.5944  -45.7271 H         1 UNK         0.3000 
    145 H145        0.5003  -23.8178  -42.9473 H         1 UNK         0.0600 
    146 H146        2.8814  -23.2208  -42.6174 H         1 UNK         0.0600 
    147 H147        2.7148  -24.3459  -43.9572 H         1 UNK         0.0600 
    148 H148        2.9978  -22.6401  -44.2762 H         1 UNK         0.0600 
    149 H149        1.4428  -21.1378  -42.9873 H         1 UNK         0.3000 
    150 H150       -1.7650  -19.5381  -42.6625 H         1 UNK         0.0600 
    151 H151        0.6280  -19.8622  -40.7755 H         1 UNK         0.0600 
    152 H152       -1.0437  -20.2416  -40.3779 H         1 UNK         0.0600 
    153 H153       -0.5777  -18.5796  -40.7111 H         1 UNK         0.0600 
    154 H154        0.8159  -18.4046  -42.8060 H         1 UNK         0.3000 
    155 H155        1.0569  -18.1432  -46.3805 H         1 UNK         0.0600 
    156 H156        0.7514  -16.1433  -44.0759 H         1 UNK         0.0600 
    157 H157       -0.2325  -16.1965  -45.5216 H         1 UNK         0.0600 
    158 H158        1.4830  -15.8078  -45.6416 H         1 UNK         0.0600 
    159 H159        2.8602  -17.4897  -44.2576 H         1 UNK         0.3000 
    160 H160        4.6432  -20.5789  -44.1905 H         1 UNK         0.0600 
    161 H161        5.3753  -17.8072  -45.2842 H         1 UNK         0.0600 
    162 H162        5.5309  -19.3248  -46.1612 H         1 UNK         0.0600 
    163 H163        6.5094  -19.0394  -44.7306 H         1 UNK         0.0600 
    164 H164        4.9906  -18.0658  -42.8469 H         1 UNK         0.3000 
    165 H165        2.9533  -18.8122  -40.0122 H         1 UNK         0.0600 
    166 H166        5.0882  -18.3228  -38.8629 H         1 UNK         0.0600 
    167 H167        5.9888  -18.5562  -40.3615 H         1 UNK         0.0600 
    168 H168        5.1618  -19.9126  -39.6050 H         1 UNK         0.0600 
    169 H169        4.5266  -16.5350  -40.5801 H         1 UNK         0.3000 
    170 H170        3.2970  -14.5229  -40.7921 H         1 UNK         0.0600 
    171 H171        4.5911  -15.0499  -42.8710 H         1 UNK         0.0600 
    172 H172        3.1059  -15.0576  -43.8143 H         1 UNK         0.0600 
    173 H173        3.6738  -13.5664  -43.0699 H         1 UNK         0.0600 
    174 H174        1.1034  -14.1960  -42.7038 H         1 UNK         0.3000 
    175 H175       -1.2842  -14.5014  -41.6892 H         1 UNK         0.0600 
    176 H176       -1.2857  -12.6346  -39.2627 H         1 UNK         0.0600 
    177 H177       -2.7060  -13.1434  -40.1762 H         1 UNK         0.0600 
    178 H178       -1.7800  -14.3242  -39.2671 H         1 UNK         0.0600 
    179 H179       -0.9731  -11.6171  -41.4680 H         1 UNK         0.3000 
    180 H180       -1.2675  -10.4072  -43.3514 H         1 UNK         0.0600 
    181 H181        1.4559  -11.1071  -44.5826 H         1 UNK         0.0600 
    182 H182        1.1926  -10.3175  -43.0336 H         1 UNK         0.0600 
    183 H183        0.7516   -9.4919  -44.5212 H         1 UNK         0.0600 
    184 H184       -0.5219  -11.4240  -46.0195 H         1 UNK         0.3000 
    185 H185       -3.8493  -12.1028  -46.9996 H         1 UNK         0.0600 
    186 H186       -3.4539  -10.4835  -48.8469 H         1 UNK         0.0600 
    187 H187       -3.8721   -9.6335  -47.3677 H         1 UNK         0.0600 
    188 H188       -2.1972   -9.6801  -47.9048 H         1 UNK         0.0600 
    189 H189       -1.2534  -11.9040  -48.3053 H         1 UNK         0.3000 
    190 H190       -1.5886  -21.0866  -45.7125 H         1 UNK         0.3000 
    191 H191       -4.0855  -21.3912  -47.1018 H         1 UNK         0.0600 
    192 H192       -5.0336  -20.2948  -45.0803 H         1 UNK         0.0600 
    193 H193       -3.6151  -19.4376  -45.6633 H         1 UNK         0.0600 
    194 H194       -3.4973  -20.4727  -44.2419 H         1 UNK         0.0600 
    195 H195       -2.6364  -23.0420  -44.2496 H         1 UNK         0.3000 
    196 H196       -4.8123  -24.7936  -43.7153 H         1 UNK         0.0600 
    197 H197       -1.8184  -25.1342  -43.1528 H         1 UNK         0.0600 
    198 H198       -2.9911  -24.3579  -42.0921 H         1 UNK         0.0600 
    199 H199       -3.1091  -26.0799  -42.4220 H         1 UNK         0.0600 
    200 H200       -2.0169  -25.0966  -45.9069 H         1 UNK         0.3000 
    201 H201       -2.6811  -27.7212  -46.9142 H         1 UNK         0.0600 
    202 H202       -0.9363  -25.4966  -48.1011 H         1 UNK         0.0600 
    203 H203       -0.9268  -27.1862  -48.5871 H         1 UNK         0.0600 
    204 H204       -0.3778  -26.7371  -46.9801 H         1 UNK         0.0600 
    205 H205       -4.2111  -24.7578  -47.3426 H         1 UNK         0.3000 
    206 H206       -5.8326  -23.9442  -48.5279 H         1 UNK         0.0600 
    207 H207       -6.8706  -26.2174  -48.4398 H         1 UNK         0.0600 
    208 H208       -7.3203  -25.3321  -49.8878 H         1 UNK         0.0600 
    209 H209       -6.1253  -26.6141  -49.9891 H         1 UNK         0.0600 
    210 H210       -2.9217  -24.4310  -49.8107 H         1 UNK         0.3000 
    211 H211       -3.2887  -23.9820  -52.6236 H         1 UNK         0.0600 
    212 H212       -0.8479  -23.6666  -52.6228 H         1 UNK         0.0600 
    213 H213       -1.2458  -25.0340  -51.6020 H         1 UNK         0.0600 
    214 H214       -0.8190  -23.4892  -50.8689 H         1 UNK         0.0600 
    215 H215       -2.5858  -21.8309  -49.8461 H         1 UNK         0.3000 
    216 H216       -2.6068  -19.3990  -51.4867 H         1 UNK         0.0600 
    217 H217       -2.5739  -19.7967  -48.4526 H         1 UNK         0.0600 
    218 H218       -2.4832  -18.2433  -49.2615 H         1 UNK         0.0600 
    219 H219       -1.2001  -19.4068  -49.4970 H         1 UNK         0.0600 
    220 H220       -4.9565  -21.2879  -49.6685 H         1 UNK         0.3000 
    221 H221       -6.9925  -19.2623  -49.4636 H         1 UNK         0.0600 
    222 H222       -6.8488  -21.2842  -47.9575 H         1 UNK         0.0600 
    223 H223       -7.2966  -22.3073  -49.3248 H         1 UNK         0.0600 
    224 H224       -8.4220  -21.1060  -48.7193 H         1 UNK         0.0600 
    225 H225       -6.4023  -21.9891  -51.7420 H         1 UNK         0.3000 
    226 H226       -8.5800  -21.3110  -53.5240 H         1 UNK         0.0600 
    227 H227       -6.1032  -23.0804  -53.9115 H         1 UNK         0.0600 
    228 H228       -7.6621  -23.6235  -53.2925 H         1 UNK         0.0600 
    229 H229       -7.5233  -23.0590  -54.9508 H         1 UNK         0.0600 
    230 H230       -5.4351  -20.0446  -53.0437 H         1 UNK         0.3000 
    231 H231       -4.0538  -18.6374  -54.0311 H         1 UNK         0.0600 
    232 H232       -6.3836  -17.7663  -55.8234 H         1 UNK         0.0600 
    233 H233       -4.9001  -16.8725  -55.5256 H         1 UNK         0.0600 
    234 H234       -6.0416  -17.1281  -54.2154 H         1 UNK         0.0600 
    235 H235       -3.7994  -21.1972  -54.7321 H         1 UNK         0.3000 
    236 H236       -3.8985  -21.8773  -57.4800 H         1 UNK         0.0600 
    237 H237       -3.8554  -23.5277  -55.6155 H         1 UNK         0.0600 
    238 H238       -2.5329  -23.8368  -56.7307 H         1 UNK         0.0600 
    239 H239       -2.2140  -23.0411  -55.1933 H         1 UNK         0.0600 
    240 H240       -1.5544  -20.0671  -55.7065 H         1 UNK         0.3000 
    241 H241        0.6186  -20.3260  -57.6448 H         1 UNK         0.0600 
    242 H242       -1.6354  -17.2056  -58.7861 H         1 UNK         0.3800 
    243 H243       -2.2794  -18.4799  -57.7835 H         1 UNK         0.3800 
    244 H244        0.4274  -18.4857  -55.2098 H         1 UNK         0.0800 
    245 H245        1.8543  -18.7932  -56.1605 H         1 UNK         0.0800 
    246 H246       -0.8095  -20.1859  -53.7973 H         1 UNK         0.0800 
    247 H247       -0.0393  -21.5475  -53.0385 H         1 UNK         0.0800 
@<TRIPOS>BOND
     1    1    2 1    
     2    1  127 1    
     3    1  128 1    
     4    1  129 1    
     5    2    3 2    
     6    2    4 am   BACKBONE|DICT|INTERRES
     7    4    5 1    
     8    4  130 1    
     9    5    6 1    
    10    5   65 1    
    11    5  131 1    
    12    6    7 1    
    13    6  132 1    
    14    6  133 1    
    15    7    8 1    
    16    8    9 1    
    17    8  134 1    
    18    8  135 1    
    19    9   10 ar   
    20    9   14 ar   
    21   10   11 ar   
    22   10  136 1    
    23   11   12 ar   
    24   11  126 1    
    25   12   13 ar   
    26   12  137 1    
    27   13   14 ar   
    28   13   15 1    
    29   14  138 1    
    30   15   16 1    
    31   15  139 1    
    32   15  140 1    
    33   16   17 1    
    34   17   18 1    
    35   17  141 1    
    36   17  142 1    
    37   18   19 1    
    38   18   67 1    
    39   18  143 1    
    40   19   20 am   BACKBONE|DICT|INTERRES
    41   19  144 1    
    42   20   21 2    
    43   20   22 1    
    44   22   23 1    
    45   22   24 1    
    46   22  145 1    
    47   23  146 1    
    48   23  147 1    
    49   23  148 1    
    50   24   25 am   BACKBONE|DICT|INTERRES
    51   24  149 1    
    52   25   26 2    
    53   25   27 1    
    54   27   28 1    
    55   27   29 1    
    56   27  150 1    
    57   28  151 1    
    58   28  152 1    
    59   28  153 1    
    60   29   30 am   BACKBONE|DICT|INTERRES
    61   29  154 1    
    62   30   31 2    
    63   30   32 1    
    64   32   33 1    
    65   32   34 1    
    66   32  155 1    
    67   33  156 1    
    68   33  157 1    
    69   33  158 1    
    70   34   35 am   BACKBONE|DICT|INTERRES
    71   34  159 1    
    72   35   36 2    
    73   35   37 1    
    74   37   38 1    
    75   37   39 1    
    76   37  160 1    
    77   38  161 1    
    78   38  162 1    
    79   38  163 1    
    80   39   40 am   BACKBONE|DICT|INTERRES
    81   39  164 1    
    82   40   41 2    
    83   40   42 1    
    84   42   43 1    
    85   42   44 1    
    86   42  165 1    
    87   43  166 1    
    88   43  167 1    
    89   43  168 1    
    90   44   45 am   BACKBONE|DICT|INTERRES
    91   44  169 1    
    92   45   46 2    
    93   45   47 1    
    94   47   48 1    
    95   47   49 1    
    96   47  170 1    
    97   48  171 1    
    98   48  172 1    
    99   48  173 1    
   100   49   50 am   BACKBONE|DICT|INTERRES
   101   49  174 1    
   102   50   51 2    
   103   50   52 1    
   104   52   53 1    
   105   52   54 1    
   106   52  175 1    
   107   53  176 1    
   108   53  177 1    
   109   53  178 1    
   110   54   55 am   BACKBONE|DICT|INTERRES
   111   54  179 1    
   112   55   56 2    
   113   55   57 1    
   114   57   58 1    
   115   57   59 1    
   116   57  180 1    
   117   58  181 1    
   118   58  182 1    
   119   58  183 1    
   120   59   60 am   BACKBONE|DICT|INTERRES
   121   59  184 1    
   122   60   61 2    
   123   60   62 1    
   124   62   63 1    
   125   62   64 1    
   126   62  185 1    
   127   63  186 1    
   128   63  187 1    
   129   63  188 1    
   130   64   65 am   BACKBONE|DICT|INTERRES
   131   64  189 1    
   132   65   66 2    
   133   67   68 2    
   134   67   69 am   BACKBONE|DICT|INTERRES
   135   69   70 1    
   136   69  190 1    
   137   70   71 1    
   138   70   72 1    
   139   70  191 1    
   140   71  192 1    
   141   71  193 1    
   142   71  194 1    
   143   72   73 2    
   144   72   74 am   BACKBONE|DICT|INTERRES
   145   74   75 1    
   146   74  195 1    
   147   75   76 1    
   148   75   77 1    
   149   75  196 1    
   150   76  197 1    
   151   76  198 1    
   152   76  199 1    
   153   77   78 2    
   154   77   79 am   BACKBONE|DICT|INTERRES
   155   79   80 1    
   156   79  200 1    
   157   80   81 1    
   158   80   82 1    
   159   80  201 1    
   160   81  202 1    
   161   81  203 1    
   162   81  204 1    
   163   82   83 2    
   164   82   84 am   BACKBONE|DICT|INTERRES
   165   84   85 1    
   166   84  205 1    
   167   85   86 1    
   168   85   87 1    
   169   85  206 1    
   170   86  207 1    
   171   86  208 1    
   172   86  209 1    
   173   87   88 2    
   174   87   89 am   BACKBONE|DICT|INTERRES
   175   89   90 1    
   176   89  210 1    
   177   90   91 1    
   178   90   92 1    
   179   90  211 1    
   180   91  212 1    
   181   91  213 1    
   182   91  214 1    
   183   92   93 2    
   184   92   94 am   BACKBONE|DICT|INTERRES
   185   94   95 1    
   186   94  215 1    
   187   95   96 1    
   188   95   97 1    
   189   95  216 1    
   190   96  217 1    
   191   96  218 1    
   192   96  219 1    
   193   97   98 2    
   194   97   99 am   BACKBONE|DICT|INTERRES
   195   99  100 1    
   196   99  220 1    
   197  100  101 1    
   198  100  102 1    
   199  100  221 1    
   200  101  222 1    
   201  101  223 1    
   202  101  224 1    
   203  102  103 2    
   204  102  104 am   BACKBONE|DICT|INTERRES
   205  104  105 1    
   206  104  225 1    
   207  105  106 1    
   208  105  107 1    
   209  105  226 1    
   210  106  227 1    
   211  106  228 1    
   212  106  229 1    
   213  107  108 2    
   214  107  109 am   BACKBONE|DICT|INTERRES
   215  109  110 1    
   216  109  230 1    
   217  110  111 1    
   218  110  112 1    
   219  110  231 1    
   220  111  232 1    
   221  111  233 1    
   222  111  234 1    
   223  112  113 2    
   224  112  114 am   BACKBONE|DICT|INTERRES
   225  114  115 1    
   226  114  235 1    
   227  115  116 1    
   228  115  117 1    
   229  115  236 1    
   230  116  237 1    
   231  116  238 1    
   232  116  239 1    
   233  117  118 2    
   234  117  119 am   BACKBONE|DICT|INTERRES
   235  119  120 1    
   236  119  240 1    
   237  120  121 1    
   238  120  124 1    
   239  120  241 1    
   240  121  122 am   BACKBONE|DICT|INTERRES
   241  121  123 2    
   242  122  242 1    
   243  122  243 1    
   244  124  125 1    
   245  124  244 1    
   246  124  245 1    
   247  125  126 1    
   248  126  246 1    
   249  126  247 1    
@<TRIPOS>SUBSTRUCTURE
     1 UNK         1 GROUP             0       ****    0 ROOT    
