@<TRIPOS>MOLECULE
3R540
247   249    1
SMALL
USER_CHARGES


@<TRIPOS>ATOM
      1 CA          6.3820  -16.1882  -46.7139 C.3       0 UNK        -0.1800 
      2 C           5.0210  -15.8396  -47.2977 C.2       0 UNK         0.5000 
      3 O           4.0075  -16.3714  -46.8455 O.2       0 UNK        -0.5000 
      4 N           4.9909  -14.9421  -48.2917 N.am      1 UNK        -0.5000 
      5 CA          3.7913  -14.5050  -49.0171 C.3       1 UNK         0.1400 
      6 C6          4.1296  -13.9309  -50.4223 C.3       23 UNK        -0.0398 
      7 S7          5.0575  -15.0820  -51.4955 S.3       23 UNK        -0.2404 
      8 C8          3.7186  -15.8545  -52.4634 C.3       23 UNK        -0.0205 
      9 C9          2.8239  -16.7046  -51.5770 C.ar      23 UNK        -0.0193 
     10 C10         1.5394  -16.2698  -51.2386 C.ar      23 UNK        -0.1150 
     11 C11         0.7524  -17.0132  -50.3550 C.ar      23 UNK        -0.0193 
     12 C12         1.2574  -18.2013  -49.8180 C.ar      23 UNK        -0.1150 
     13 C13         2.5413  -18.6477  -50.1494 C.ar      23 UNK        -0.0193 
     14 C14         3.3107  -17.9006  -51.0440 C.ar      23 UNK        -0.1150 
     15 C15         3.1399  -19.8864  -49.4939 C.3       23 UNK        -0.0205 
     16 S16         2.4609  -21.4422  -50.1560 S.3       23 UNK        -0.2404 
     17 C17         1.0669  -21.7424  -49.0164 C.3       23 UNK        -0.0398 
     18 CA          1.3030  -22.8958  -48.0079 C.3       11 UNK         0.1400 
     19 N           2.5911  -22.7821  -47.3065 N.am      11 UNK        -0.5000 
     20 C           3.1556  -23.7297  -46.5450 C.2       10 UNK         0.5000 
     21 O           2.6246  -24.8169  -46.3182 O.2       10 UNK        -0.5000 
     22 CA          4.5329  -23.4198  -45.9189 C.3       10 UNK         0.1400 
     23 CB          5.5778  -24.4403  -46.3985 C.3       10 UNK        -0.1800 
     24 N           5.0349  -22.0754  -46.2281 N.am      10 UNK        -0.5000 
     25 C           4.7712  -20.9179  -45.6042 C.2       9 UNK         0.5000 
     26 O           5.2994  -19.8699  -45.9752 O.2       9 UNK        -0.5000 
     27 CA          3.8164  -20.8836  -44.3854 C.3       9 UNK         0.1400 
     28 CB          4.6057  -21.0047  -43.0736 C.3       9 UNK        -0.1800 
     29 N           3.0303  -19.6497  -44.3513 N.am      9 UNK        -0.5000 
     30 C           2.1182  -19.3111  -45.2691 C.2       8 UNK         0.5000 
     31 O           1.7674  -20.0705  -46.1710 O.2       8 UNK        -0.5000 
     32 CA          1.4644  -17.9253  -45.1245 C.3       8 UNK         0.1400 
     33 CB          0.7816  -17.4679  -46.4247 C.3       8 UNK        -0.1800 
     34 N           0.4681  -17.9250  -44.0592 N.am      8 UNK        -0.5000 
     35 C           0.7232  -17.8660  -42.7460 C.2       7 UNK         0.5000 
     36 O           1.8625  -17.8358  -42.2781 O.2       7 UNK        -0.5000 
     37 CA         -0.4860  -17.8164  -41.7920 C.3       7 UNK         0.1400 
     38 CB         -0.5789  -16.4352  -41.1230 C.3       7 UNK        -0.1800 
     39 N          -1.7476  -18.0816  -42.4883 N.am      7 UNK        -0.5000 
     40 C          -2.4338  -19.2309  -42.4236 C.2       6 UNK         0.5000 
     41 O          -2.0977  -20.1831  -41.7211 O.2       6 UNK        -0.5000 
     42 CA         -3.7168  -19.3505  -43.2729 C.3       6 UNK         0.1400 
     43 CB         -4.9627  -19.1680  -42.3933 C.3       6 UNK        -0.1800 
     44 N          -3.7838  -18.3980  -44.3828 N.am      6 UNK        -0.5000 
     45 C          -3.0304  -18.4466  -45.4900 C.2       5 UNK         0.5000 
     46 O          -2.2425  -19.3578  -45.7346 O.2       5 UNK        -0.5000 
     47 CA         -3.1388  -17.2519  -46.4606 C.3       5 UNK         0.1400 
     48 CB         -4.0921  -17.5733  -47.6186 C.3       5 UNK        -0.1800 
     49 N          -3.5559  -15.9942  -45.8299 N.am      5 UNK        -0.5000 
     50 C          -2.8908  -15.3727  -44.8478 C.2       4 UNK         0.5000 
     51 O          -1.8760  -15.8275  -44.3185 O.2       4 UNK        -0.5000 
     52 CA         -3.4354  -14.0085  -44.3989 C.3       4 UNK         0.1400 
     53 CB         -3.2905  -13.8075  -42.8806 C.3       4 UNK        -0.1800 
     54 N          -2.6885  -12.9670  -45.0915 N.am      4 UNK        -0.5000 
     55 C          -2.9292  -12.5588  -46.3439 C.2       3 UNK         0.5000 
     56 O          -3.9184  -12.8942  -46.9966 O.2       3 UNK        -0.5000 
     57 CA         -1.8640  -11.6462  -46.9809 C.3       3 UNK         0.1400 
     58 CB         -2.1856  -10.1683  -46.7117 C.3       3 UNK        -0.1800 
     59 N          -0.5072  -11.9411  -46.5077 N.am      3 UNK        -0.5000 
     60 C           0.1608  -13.0693  -46.7853 C.2       2 UNK         0.5000 
     61 O          -0.2908  -13.9798  -47.4838 O.2       2 UNK        -0.5000 
     62 CA          1.5572  -13.2083  -46.1501 C.3       2 UNK         0.1400 
     63 CB          1.4646  -13.9049  -44.7824 C.3       2 UNK        -0.1800 
     64 N           2.4654  -13.9584  -47.0168 N.am      2 UNK        -0.5000 
     65 C           2.9467  -13.5125  -48.1836 C.2       1 UNK         0.5000 
     66 O           2.7605  -12.3637  -48.5915 O.2       1 UNK        -0.5000 
     67 C           0.0899  -22.9966  -47.0537 C.2       11 UNK         0.5000 
     68 O          -0.9817  -23.4006  -47.4958 O.2       11 UNK        -0.5000 
     69 N           0.2751  -22.6266  -45.7784 N.am      12 UNK        -0.5000 
     70 CA         -0.7105  -22.5592  -44.6951 C.3       12 UNK         0.1400 
     71 CB          0.0347  -22.2454  -43.3888 C.3       12 UNK        -0.1800 
     72 C          -1.6162  -23.7957  -44.5112 C.2       12 UNK         0.5000 
     73 O          -2.7372  -23.6449  -44.0228 O.2       12 UNK        -0.5000 
     74 N          -1.1471  -24.9813  -44.9256 N.am      13 UNK        -0.5000 
     75 CA         -1.9349  -26.2111  -45.0278 C.3       13 UNK         0.1400 
     76 CB         -1.0107  -27.3635  -45.4519 C.3       13 UNK        -0.1800 
     77 C          -3.1065  -26.0363  -46.0174 C.2       13 UNK         0.5000 
     78 O          -2.8756  -25.8972  -47.2193 O.2       13 UNK        -0.5000 
     79 N          -4.3334  -25.9916  -45.4779 N.am      14 UNK        -0.5000 
     80 CA         -5.5894  -25.6495  -46.1628 C.3       14 UNK         0.1400 
     81 CB         -5.9226  -26.6627  -47.2791 C.3       14 UNK        -0.1800 
     82 C          -5.6398  -24.1836  -46.6524 C.2       14 UNK         0.5000 
     83 O          -6.3756  -23.8768  -47.5932 O.2       14 UNK        -0.5000 
     84 N          -4.8600  -23.3058  -46.0002 N.am      15 UNK        -0.5000 
     85 CA         -4.7432  -21.8638  -46.2315 C.3       15 UNK         0.1400 
     86 CB         -5.9907  -21.1379  -45.6878 C.3       15 UNK        -0.1800 
     87 C          -4.4387  -21.5113  -47.6985 C.2       15 UNK         0.5000 
     88 O          -5.1611  -20.7179  -48.3018 O.2       15 UNK        -0.5000 
     89 N          -3.4046  -22.1529  -48.2607 N.am      16 UNK        -0.5000 
     90 CA         -2.9499  -22.0355  -49.6490 C.3       16 UNK         0.1400 
     91 CB         -2.3665  -20.6312  -49.8969 C.3       16 UNK        -0.1800 
     92 C          -4.0437  -22.4319  -50.6596 C.2       16 UNK         0.5000 
     93 O          -4.2071  -21.7693  -51.6844 O.2       16 UNK        -0.5000 
     94 N          -4.7943  -23.4918  -50.3217 N.am      17 UNK        -0.5000 
     95 CA         -5.9812  -23.9926  -51.0217 C.3       17 UNK         0.1400 
     96 CB         -5.5935  -24.5953  -52.3884 C.3       17 UNK        -0.1800 
     97 C          -7.0806  -22.9139  -51.1161 C.2       17 UNK         0.5000 
     98 O          -7.5919  -22.6408  -52.2024 O.2       17 UNK        -0.5000 
     99 N          -7.3811  -22.2898  -49.9674 N.am      18 UNK        -0.5000 
    100 CA        -8.2653  -21.1311  -49.7958 C.3       18 UNK         0.1400 
    101 CB        -9.7350  -21.5193  -50.0600 C.3       18 UNK        -0.1800 
    102 C         -7.7964  -19.9109  -50.6204 C.2       18 UNK         0.5000 
    103 O         -8.5770  -19.3231  -51.3712 O.2       18 UNK        -0.5000 
    104 N         -6.5077  -19.5777  -50.4661 N.am      19 UNK        -0.5000 
    105 CA        -5.7624  -18.4830  -51.0977 C.3       19 UNK         0.1400 
    106 CB        -6.3492  -17.1148  -50.6952 C.3       19 UNK        -0.1800 
    107 C         -5.5699  -18.6098  -52.6252 C.2       19 UNK         0.5000 
    108 O         -5.1068  -17.6552  -53.2510 O.2       19 UNK        -0.5000 
    109 N         -5.8951  -19.7692  -53.2126 N.am      20 UNK        -0.5000 
    110 CA        -5.7557  -20.0344  -54.6452 C.3       20 UNK         0.1400 
    111 CB        -6.5686  -21.2816  -55.0187 C.3       20 UNK        -0.1800 
    112 C         -4.2897  -20.1954  -55.0856 C.2       20 UNK         0.5000 
    113 O         -3.9302  -19.7419  -56.1732 O.2       20 UNK        -0.5000 
    114 N         -3.4626  -20.8182  -54.2344 N.am      21 UNK        -0.5000 
    115 CA        -2.0422  -21.0667  -54.4948 C.3       21 UNK         0.1400 
    116 CB        -1.5613  -22.2445  -53.6318 C.3       21 UNK        -0.1800 
    117 C         -1.1536  -19.8224  -54.2916 C.2       21 UNK         0.5000 
    118 O          0.0170  -19.8578  -54.6729 O.2       21 UNK        -0.5000 
    119 N         -1.7135  -18.7463  -53.7213 N.am      22 UNK        -0.5000 
    120 CA        -1.0464  -17.4442  -53.5517 C.3       22 UNK         0.1400 
    121 C         -0.8146  -16.6605  -54.8784 C.2       22 UNK         0.5000 
    122 N         -1.4446  -17.0237  -55.9903 N.am      22 UNK        -0.7600 
    123 O         -0.0448  -15.7041  -54.8991 O.2       22 UNK        -0.5000 
    124 C124       -1.7771  -16.5407  -52.5243 C.3       23 UNK        -0.0398 
    125 S125       -1.9597  -17.3069  -50.8792 S.3       23 UNK        -0.2404 
    126 C126       -0.6219  -16.5096  -49.9388 C.3       23 UNK        -0.0205 
    127 H127        6.4196  -15.9111  -45.6604 H         1 UNK         0.0600 
    128 H128        6.5562  -17.2617  -46.7907 H         1 UNK         0.0600 
    129 H129        7.1909  -15.6734  -47.2327 H         1 UNK         0.0600 
    130 H130        5.8573  -14.5313  -48.6083 H         1 UNK         0.3000 
    131 H131        3.1611  -15.3830  -49.1623 H         1 UNK         0.0600 
    132 H132        3.2177  -13.6316  -50.9420 H         1 UNK         0.0800 
    133 H133        4.7280  -13.0236  -50.3237 H         1 UNK         0.0800 
    134 H134        3.1435  -15.0844  -52.9801 H         1 UNK         0.0800 
    135 H135        4.1572  -16.4829  -53.2397 H         1 UNK         0.0800 
    136 H136        1.1635  -15.3394  -51.6402 H         1 UNK         0.1150 
    137 H137        0.6536  -18.7567  -49.1179 H         1 UNK         0.1150 
    138 H138        4.3124  -18.2226  -51.2921 H         1 UNK         0.1150 
    139 H139        4.2204  -19.9007  -49.6443 H         1 UNK         0.0800 
    140 H140        3.0000  -19.8319  -48.4151 H         1 UNK         0.0800 
    141 H141        0.1980  -21.9667  -49.6355 H         1 UNK         0.0800 
    142 H142        0.8240  -20.8241  -48.4845 H         1 UNK         0.0800 
    143 H143        1.3325  -23.8289  -48.5743 H         1 UNK         0.0600 
    144 H144        3.0789  -21.9071  -47.4318 H         1 UNK         0.3000 
    145 H145        4.4374  -23.5362  -44.8383 H         1 UNK         0.0600 
    146 H146        5.7163  -24.3973  -47.4796 H         1 UNK         0.0600 
    147 H147        6.5459  -24.2643  -45.9288 H         1 UNK         0.0600 
    148 H148        5.2795  -25.4589  -46.1464 H         1 UNK         0.0600 
    149 H149        5.6677  -22.0379  -47.0136 H         1 UNK         0.3000 
    150 H150        3.1059  -21.7079  -44.4384 H         1 UNK         0.0600 
    151 H151        5.1849  -21.9283  -43.0465 H         1 UNK         0.0600 
    152 H152        3.9384  -21.0144  -42.2114 H         1 UNK         0.0600 
    153 H153        5.3041  -20.1763  -42.9480 H         1 UNK         0.0600 
    154 H154        3.2285  -18.9930  -43.6072 H         1 UNK         0.3000 
    155 H155        2.2450  -17.2020  -44.8804 H         1 UNK         0.0600 
    156 H156        1.5196  -17.3387  -47.2152 H         1 UNK         0.0600 
    157 H157        0.2721  -16.5132  -46.3014 H         1 UNK         0.0600 
    158 H158        0.0453  -18.1922  -46.7737 H         1 UNK         0.0600 
    159 H159       -0.4959  -17.9653  -44.3552 H         1 UNK         0.3000 
    160 H160       -0.3149  -18.5601  -41.0113 H         1 UNK         0.0600 
    161 H161       -0.6881  -15.6381  -41.8590 H         1 UNK         0.0600 
    162 H162        0.3183  -16.2215  -40.5408 H         1 UNK         0.0600 
    163 H163       -1.4284  -16.3823  -40.4421 H         1 UNK         0.0600 
    164 H164       -2.0683  -17.3397  -43.1029 H         1 UNK         0.3000 
    165 H165       -3.7355  -20.3618  -43.6808 H         1 UNK         0.0600 
    166 H166       -5.8773  -19.3199  -42.9667 H         1 UNK         0.0600 
    167 H167       -4.9717  -19.8881  -41.5740 H         1 UNK         0.0600 
    168 H168       -5.0023  -18.1704  -41.9541 H         1 UNK         0.0600 
    169 H169       -4.4054  -17.6115  -44.2657 H         1 UNK         0.3000 
    170 H170       -2.1459  -17.0859  -46.8806 H         1 UNK         0.0600 
    171 H171       -5.1062  -17.7718  -47.2696 H         1 UNK         0.0600 
    172 H172       -4.1333  -16.7551  -48.3379 H         1 UNK         0.0600 
    173 H173       -3.7515  -18.4548  -48.1595 H         1 UNK         0.0600 
    174 H174       -4.3554  -15.5310  -46.2388 H         1 UNK         0.3000 
    175 H175       -4.4958  -13.9420  -44.6518 H         1 UNK         0.0600 
    176 H176       -3.7973  -14.6019  -42.3313 H         1 UNK         0.0600 
    177 H177       -2.2458  -13.8063  -42.5671 H         1 UNK         0.0600 
    178 H178       -3.7323  -12.8617  -42.5669 H         1 UNK         0.0600 
    179 H179       -1.8323  -12.6650  -44.6515 H         1 UNK         0.3000 
    180 H180       -1.8907  -11.8109  -48.0603 H         1 UNK         0.0600 
    181 H181       -1.4796   -9.5117  -47.2205 H         1 UNK         0.0600 
    182 H182       -2.1544   -9.9357  -45.6465 H         1 UNK         0.0600 
    183 H183       -3.1827   -9.9141  -47.0740 H         1 UNK         0.0600 
    184 H184       -0.0675  -11.2361  -45.9335 H         1 UNK         0.3000 
    185 H185        1.9784  -12.2117  -46.0016 H         1 UNK         0.0600 
    186 H186        0.8641  -13.3185  -44.0861 H         1 UNK         0.0600 
    187 H187        1.0019  -14.8884  -44.8551 H         1 UNK         0.0600 
    188 H188        2.4502  -14.0313  -44.3341 H         1 UNK         0.0600 
    189 H189        2.6891  -14.9117  -46.7493 H         1 UNK         0.3000 
    190 H190        1.1720  -22.2110  -45.5746 H         1 UNK         0.3000 
    191 H191       -1.3702  -21.7203  -44.9194 H         1 UNK         0.0600 
    192 H192        0.8186  -22.9766  -43.1881 H         1 UNK         0.0600 
    193 H193       -0.6433  -22.2542  -42.5349 H         1 UNK         0.0600 
    194 H194        0.4942  -21.2575  -43.4242 H         1 UNK         0.0600 
    195 H195       -0.2326  -24.9994  -45.3536 H         1 UNK         0.3000 
    196 H196       -2.3334  -26.4423  -44.0379 H         1 UNK         0.0600 
    197 H197       -1.5673  -28.2973  -45.5402 H         1 UNK         0.0600 
    198 H198       -0.2192  -27.5242  -44.7197 H         1 UNK         0.0600 
    199 H199       -0.5396  -27.1687  -46.4165 H         1 UNK         0.0600 
    200 H200       -4.4107  -26.0977  -44.4754 H         1 UNK         0.3000 
    201 H201       -6.3719  -25.7331  -45.4076 H         1 UNK         0.0600 
    202 H202       -5.8651  -27.6875  -46.9125 H         1 UNK         0.0600 
    203 H203       -5.2473  -26.5710  -48.1300 H         1 UNK         0.0600 
    204 H204       -6.9355  -26.5102  -47.6536 H         1 UNK         0.0600 
    205 H205       -4.2656  -23.6624  -45.2576 H         1 UNK         0.3000 
    206 H206       -3.8801  -21.5310  -45.6568 H         1 UNK         0.0600 
    207 H207       -6.8927  -21.4260  -46.2287 H         1 UNK         0.0600 
    208 H208       -6.1468  -21.3610  -44.6326 H         1 UNK         0.0600 
    209 H209       -5.8855  -20.0563  -45.7787 H         1 UNK         0.0600 
    210 H210       -2.8464  -22.7872  -47.6964 H         1 UNK         0.3000 
    211 H211       -2.1455  -22.7593  -49.7792 H         1 UNK         0.0600 
    212 H212       -3.1478  -19.8761  -49.9010 H         1 UNK         0.0600 
    213 H213       -1.8538  -20.5681  -50.8555 H         1 UNK         0.0600 
    214 H214       -1.6487  -20.3549  -49.1248 H         1 UNK         0.0600 
    215 H215       -4.6036  -23.9281  -49.4303 H         1 UNK         0.3000 
    216 H216       -6.3901  -24.7968  -50.4080 H         1 UNK         0.0600 
    217 H217       -6.4609  -25.0362  -52.8807 H         1 UNK         0.0600 
    218 H218       -4.8505  -25.3841  -52.2724 H         1 UNK         0.0600 
    219 H219       -5.1804  -23.8458  -53.0634 H         1 UNK         0.0600 
    220 H220       -6.9022  -22.6020  -49.1278 H         1 UNK         0.3000 
    221 H221       -8.1854  -20.8404  -48.7471 H         1 UNK         0.0600 
    222 H222       -9.9038  -21.7911  -51.1023 H         1 UNK         0.0600 
    223 H223      -10.0362  -22.3638  -49.4402 H         1 UNK         0.0600 
    224 H224      -10.4040  -20.6904  -49.8266 H         1 UNK         0.0600 
    225 H225       -5.9695  -20.1190  -49.7894 H         1 UNK         0.3000 
    226 H226       -4.7613  -18.5326  -50.6740 H         1 UNK         0.0600 
    227 H227       -7.3231  -16.9408  -51.1532 H         1 UNK         0.0600 
    228 H228       -6.4666  -17.0381  -49.6144 H         1 UNK         0.0600 
    229 H229       -5.6921  -16.3017  -51.0060 H         1 UNK         0.0600 
    230 H230       -6.2257  -20.5306  -52.6341 H         1 UNK         0.3000 
    231 H231       -6.1751  -19.1856  -55.1894 H         1 UNK         0.0600 
    232 H232       -6.5308  -21.4653  -56.0931 H         1 UNK         0.0600 
    233 H233       -7.6173  -21.1668  -54.7436 H         1 UNK         0.0600 
    234 H234       -6.1874  -22.1729  -54.5201 H         1 UNK         0.0600 
    235 H235       -3.8252  -21.1449  -53.3390 H         1 UNK         0.3000 
    236 H236       -1.9358  -21.3642  -55.5402 H         1 UNK         0.0600 
    237 H237       -1.5787  -22.0049  -52.5708 H         1 UNK         0.0600 
    238 H238       -2.1827  -23.1269  -53.7858 H         1 UNK         0.0600 
    239 H239       -0.5368  -22.5199  -53.8848 H         1 UNK         0.0600 
    240 H240       -2.6816  -18.7941  -53.4396 H         1 UNK         0.3000 
    241 H241       -0.0513  -17.6514  -53.1550 H         1 UNK         0.0600 
    242 H242       -1.2829  -16.5094  -56.8419 H         1 UNK         0.3800 
    243 H243       -2.0848  -17.8036  -55.9893 H         1 UNK         0.3800 
    244 H244       -2.7750  -16.2920  -52.8884 H         1 UNK         0.0800 
    245 H245       -1.2582  -15.5877  -52.4103 H         1 UNK         0.0800 
    246 H246       -0.6871  -15.4256  -50.0454 H         1 UNK         0.0800 
    247 H247       -0.7731  -16.7109  -48.8780 H         1 UNK         0.0800 
@<TRIPOS>BOND
     1    1    2 1    
     2    1  127 1    
     3    1  128 1    
     4    1  129 1    
     5    2    3 2    
     6    2    4 am   BACKBONE|DICT|INTERRES
     7    4    5 1    
     8    4  130 1    
     9    5    6 1    
    10    5   65 1    
    11    5  131 1    
    12    6    7 1    
    13    6  132 1    
    14    6  133 1    
    15    7    8 1    
    16    8    9 1    
    17    8  134 1    
    18    8  135 1    
    19    9   10 ar   
    20    9   14 ar   
    21   10   11 ar   
    22   10  136 1    
    23   11   12 ar   
    24   11  126 1    
    25   12   13 ar   
    26   12  137 1    
    27   13   14 ar   
    28   13   15 1    
    29   14  138 1    
    30   15   16 1    
    31   15  139 1    
    32   15  140 1    
    33   16   17 1    
    34   17   18 1    
    35   17  141 1    
    36   17  142 1    
    37   18   19 1    
    38   18   67 1    
    39   18  143 1    
    40   19   20 am   BACKBONE|DICT|INTERRES
    41   19  144 1    
    42   20   21 2    
    43   20   22 1    
    44   22   23 1    
    45   22   24 1    
    46   22  145 1    
    47   23  146 1    
    48   23  147 1    
    49   23  148 1    
    50   24   25 am   BACKBONE|DICT|INTERRES
    51   24  149 1    
    52   25   26 2    
    53   25   27 1    
    54   27   28 1    
    55   27   29 1    
    56   27  150 1    
    57   28  151 1    
    58   28  152 1    
    59   28  153 1    
    60   29   30 am   BACKBONE|DICT|INTERRES
    61   29  154 1    
    62   30   31 2    
    63   30   32 1    
    64   32   33 1    
    65   32   34 1    
    66   32  155 1    
    67   33  156 1    
    68   33  157 1    
    69   33  158 1    
    70   34   35 am   BACKBONE|DICT|INTERRES
    71   34  159 1    
    72   35   36 2    
    73   35   37 1    
    74   37   38 1    
    75   37   39 1    
    76   37  160 1    
    77   38  161 1    
    78   38  162 1    
    79   38  163 1    
    80   39   40 am   BACKBONE|DICT|INTERRES
    81   39  164 1    
    82   40   41 2    
    83   40   42 1    
    84   42   43 1    
    85   42   44 1    
    86   42  165 1    
    87   43  166 1    
    88   43  167 1    
    89   43  168 1    
    90   44   45 am   BACKBONE|DICT|INTERRES
    91   44  169 1    
    92   45   46 2    
    93   45   47 1    
    94   47   48 1    
    95   47   49 1    
    96   47  170 1    
    97   48  171 1    
    98   48  172 1    
    99   48  173 1    
   100   49   50 am   BACKBONE|DICT|INTERRES
   101   49  174 1    
   102   50   51 2    
   103   50   52 1    
   104   52   53 1    
   105   52   54 1    
   106   52  175 1    
   107   53  176 1    
   108   53  177 1    
   109   53  178 1    
   110   54   55 am   BACKBONE|DICT|INTERRES
   111   54  179 1    
   112   55   56 2    
   113   55   57 1    
   114   57   58 1    
   115   57   59 1    
   116   57  180 1    
   117   58  181 1    
   118   58  182 1    
   119   58  183 1    
   120   59   60 am   BACKBONE|DICT|INTERRES
   121   59  184 1    
   122   60   61 2    
   123   60   62 1    
   124   62   63 1    
   125   62   64 1    
   126   62  185 1    
   127   63  186 1    
   128   63  187 1    
   129   63  188 1    
   130   64   65 am   BACKBONE|DICT|INTERRES
   131   64  189 1    
   132   65   66 2    
   133   67   68 2    
   134   67   69 am   BACKBONE|DICT|INTERRES
   135   69   70 1    
   136   69  190 1    
   137   70   71 1    
   138   70   72 1    
   139   70  191 1    
   140   71  192 1    
   141   71  193 1    
   142   71  194 1    
   143   72   73 2    
   144   72   74 am   BACKBONE|DICT|INTERRES
   145   74   75 1    
   146   74  195 1    
   147   75   76 1    
   148   75   77 1    
   149   75  196 1    
   150   76  197 1    
   151   76  198 1    
   152   76  199 1    
   153   77   78 2    
   154   77   79 am   BACKBONE|DICT|INTERRES
   155   79   80 1    
   156   79  200 1    
   157   80   81 1    
   158   80   82 1    
   159   80  201 1    
   160   81  202 1    
   161   81  203 1    
   162   81  204 1    
   163   82   83 2    
   164   82   84 am   BACKBONE|DICT|INTERRES
   165   84   85 1    
   166   84  205 1    
   167   85   86 1    
   168   85   87 1    
   169   85  206 1    
   170   86  207 1    
   171   86  208 1    
   172   86  209 1    
   173   87   88 2    
   174   87   89 am   BACKBONE|DICT|INTERRES
   175   89   90 1    
   176   89  210 1    
   177   90   91 1    
   178   90   92 1    
   179   90  211 1    
   180   91  212 1    
   181   91  213 1    
   182   91  214 1    
   183   92   93 2    
   184   92   94 am   BACKBONE|DICT|INTERRES
   185   94   95 1    
   186   94  215 1    
   187   95   96 1    
   188   95   97 1    
   189   95  216 1    
   190   96  217 1    
   191   96  218 1    
   192   96  219 1    
   193   97   98 2    
   194   97   99 am   BACKBONE|DICT|INTERRES
   195   99  100 1    
   196   99  220 1    
   197  100  101 1    
   198  100  102 1    
   199  100  221 1    
   200  101  222 1    
   201  101  223 1    
   202  101  224 1    
   203  102  103 2    
   204  102  104 am   BACKBONE|DICT|INTERRES
   205  104  105 1    
   206  104  225 1    
   207  105  106 1    
   208  105  107 1    
   209  105  226 1    
   210  106  227 1    
   211  106  228 1    
   212  106  229 1    
   213  107  108 2    
   214  107  109 am   BACKBONE|DICT|INTERRES
   215  109  110 1    
   216  109  230 1    
   217  110  111 1    
   218  110  112 1    
   219  110  231 1    
   220  111  232 1    
   221  111  233 1    
   222  111  234 1    
   223  112  113 2    
   224  112  114 am   BACKBONE|DICT|INTERRES
   225  114  115 1    
   226  114  235 1    
   227  115  116 1    
   228  115  117 1    
   229  115  236 1    
   230  116  237 1    
   231  116  238 1    
   232  116  239 1    
   233  117  118 2    
   234  117  119 am   BACKBONE|DICT|INTERRES
   235  119  120 1    
   236  119  240 1    
   237  120  121 1    
   238  120  124 1    
   239  120  241 1    
   240  121  122 am   BACKBONE|DICT|INTERRES
   241  121  123 2    
   242  122  242 1    
   243  122  243 1    
   244  124  125 1    
   245  124  244 1    
   246  124  245 1    
   247  125  126 1    
   248  126  246 1    
   249  126  247 1    
@<TRIPOS>SUBSTRUCTURE
     1 UNK         1 GROUP             0       ****    0 ROOT    
