@<TRIPOS>MOLECULE
3R540
247   249    1
SMALL
USER_CHARGES


@<TRIPOS>ATOM
      1 CA         -2.2486  -10.0243  -47.4995 C.3       0 UNK        -0.1800 
      2 C          -1.3360  -11.2118  -47.2290 C.2       0 UNK         0.5000 
      3 O          -1.1805  -11.6152  -46.0770 O.2       0 UNK        -0.5000 
      4 N          -0.7348  -11.7739  -48.2856 N.am      1 UNK        -0.5000 
      5 CA          0.1547  -12.9412  -48.2238 C.3       1 UNK         0.1400 
      6 C6          1.0448  -13.0597  -49.4876 C.3       23 UNK        -0.0398 
      7 S7          0.1100  -13.1681  -51.0578 S.3       23 UNK        -0.2404 
      8 C8          1.2908  -14.0663  -52.1274 C.3       23 UNK        -0.0205 
      9 C9          1.3644  -15.5856  -51.9432 C.ar      23 UNK        -0.0193 
     10 C10         2.0687  -16.3327  -52.8933 C.ar      23 UNK        -0.1150 
     11 C11         2.1729  -17.7221  -52.7812 C.ar      23 UNK        -0.0193 
     12 C12         1.5721  -18.3741  -51.7007 C.ar      23 UNK        -0.1150 
     13 C13         0.8724  -17.6445  -50.7376 C.ar      23 UNK        -0.0193 
     14 C14         0.7670  -16.2582  -50.8692 C.ar      23 UNK        -0.1150 
     15 C15         0.2211  -18.3460  -49.5573 C.3       23 UNK        -0.0205 
     16 S16         1.4513  -18.8344  -48.3080 S.3       23 UNK        -0.2404 
     17 C17         0.4805  -18.7380  -46.7654 C.3       23 UNK        -0.0398 
     18 CA         -0.7365  -19.6852  -46.7376 C.3       11 UNK         0.1400 
     19 N          -0.3823  -21.0969  -46.9015 N.am      11 UNK        -0.5000 
     20 C          -1.2642  -22.0652  -47.1849 C.2       10 UNK         0.5000 
     21 O          -2.4631  -21.8582  -47.3659 O.2       10 UNK        -0.5000 
     22 CA         -0.7309  -23.5070  -47.2194 C.3       10 UNK         0.1400 
     23 CB         -0.0816  -23.8194  -48.5747 C.3       10 UNK        -0.1800 
     24 N           0.2241  -23.7600  -46.1408 N.am      10 UNK        -0.5000 
     25 C          -0.1111  -23.7998  -44.8432 C.2       9 UNK         0.5000 
     26 O          -1.2661  -23.6872  -44.4341 O.2       9 UNK        -0.5000 
     27 CA          1.0396  -23.9497  -43.8319 C.3       9 UNK         0.1400 
     28 CB          1.3316  -25.4337  -43.5651 C.3       9 UNK        -0.1800 
     29 N           2.2763  -23.2783  -44.2428 N.am      9 UNK        -0.5000 
     30 C           2.4083  -21.9572  -44.4207 C.2       8 UNK         0.5000 
     31 O           1.4750  -21.1549  -44.3333 O.2       8 UNK        -0.5000 
     32 CA          3.8132  -21.4579  -44.8033 C.3       8 UNK         0.1400 
     33 CB          3.9055  -21.2211  -46.3168 C.3       8 UNK        -0.1800 
     34 N           4.1657  -20.2226  -44.1057 N.am      8 UNK        -0.5000 
     35 C           4.3512  -20.1105  -42.7855 C.2       7 UNK         0.5000 
     36 O           4.2807  -21.0655  -42.0103 O.2       7 UNK        -0.5000 
     37 CA          4.6719  -18.7148  -42.2146 C.3       7 UNK         0.1400 
     38 CB          6.1877  -18.5380  -42.0021 C.3       7 UNK        -0.1800 
     39 N           4.0999  -17.5746  -42.9453 N.am      7 UNK        -0.5000 
     40 C           4.4151  -17.0878  -44.1560 C.2       6 UNK         0.5000 
     41 O           5.2211  -17.6293  -44.9127 O.2       6 UNK        -0.5000 
     42 CA          3.7118  -15.7901  -44.6152 C.3       6 UNK         0.1400 
     43 CB          2.9346  -16.0102  -45.9204 C.3       6 UNK        -0.1800 
     44 N           2.7970  -15.2382  -43.6130 N.am      6 UNK        -0.5000 
     45 C           3.1709  -14.4859  -42.5668 C.2       5 UNK         0.5000 
     46 O           4.3265  -14.1029  -42.3832 O.2       5 UNK        -0.5000 
     47 CA          2.0843  -14.1284  -41.5294 C.3       5 UNK         0.1400 
     48 CB          1.5305  -12.7207  -41.7980 C.3       5 UNK        -0.1800 
     49 N           0.9661  -15.0746  -41.4927 N.am      5 UNK        -0.5000 
     50 C           1.0538  -16.3829  -41.2120 C.2       4 UNK         0.5000 
     51 O           2.0973  -16.9308  -40.8588 O.2       4 UNK        -0.5000 
     52 CA         -0.2152  -17.2369  -41.4104 C.3       4 UNK         0.1400 
     53 CB         -0.8029  -17.6642  -40.0575 C.3       4 UNK        -0.1800 
     54 N          -1.2657  -16.5887  -42.2038 N.am      4 UNK        -0.5000 
     55 C          -1.1584  -16.2497  -43.4951 C.2       3 UNK         0.5000 
     56 O          -0.1338  -16.4170  -44.1627 O.2       3 UNK        -0.5000 
     57 CA         -2.3872  -15.5715  -44.1142 C.3       3 UNK         0.1400 
     58 CB         -2.5541  -14.1370  -43.5798 C.3       3 UNK        -0.1800 
     59 N          -2.2345  -15.5353  -45.5604 N.am      3 UNK        -0.5000 
     60 C          -3.2244  -15.4715  -46.4537 C.2       2 UNK         0.5000 
     61 O          -4.4165  -15.4185  -46.1462 O.2       2 UNK        -0.5000 
     62 CA         -2.7998  -15.4313  -47.9369 C.3       2 UNK         0.1400 
     63 CB         -3.9991  -15.3481  -48.8983 C.3       2 UNK        -0.1800 
     64 N          -1.9054  -14.3049  -48.2094 N.am      2 UNK        -0.5000 
     65 C          -0.5974  -14.2563  -47.9205 C.2       1 UNK         0.5000 
     66 O           0.0132  -15.1996  -47.4207 O.2       1 UNK        -0.5000 
     67 C          -1.5916  -19.4600  -45.4789 C.2       11 UNK         0.5000 
     68 O          -2.5849  -18.7376  -45.5565 O.2       11 UNK        -0.5000 
     69 N          -1.2475  -20.1432  -44.3766 N.am      12 UNK        -0.5000 
     70 CA         -2.0234  -20.1769  -43.1327 C.3       12 UNK         0.1400 
     71 CB         -1.2461  -20.9608  -42.0653 C.3       12 UNK        -0.1800 
     72 C          -3.4462  -20.7471  -43.3078 C.2       12 UNK         0.5000 
     73 O          -4.3569  -20.3285  -42.5941 O.2       12 UNK        -0.5000 
     74 N          -3.6268  -21.6345  -44.2949 N.am      13 UNK        -0.5000 
     75 CA         -4.9119  -22.1666  -44.7510 C.3       13 UNK         0.1400 
     76 CB         -4.6946  -23.5952  -45.2825 C.3       13 UNK        -0.1800 
     77 C          -5.5967  -21.2551  -45.7969 C.2       13 UNK         0.5000 
     78 O          -6.3368  -21.7547  -46.6448 O.2       13 UNK        -0.5000 
     79 N          -5.3355  -19.9401  -45.7363 N.am      14 UNK        -0.5000 
     80 CA         -5.8626  -18.8794  -46.6023 C.3       14 UNK         0.1400 
     81 CB         -7.3804  -18.7034  -46.3882 C.3       14 UNK        -0.1800 
     82 C          -5.4817  -19.0852  -48.0811 C.2       14 UNK         0.5000 
     83 O          -6.3381  -18.9937  -48.9621 O.2       14 UNK        -0.5000 
     84 N          -4.1998  -19.4054  -48.3115 N.am      15 UNK        -0.5000 
     85 CA         -3.6112  -19.7922  -49.5999 C.3       15 UNK         0.1400 
     86 CB         -3.5409  -18.5921  -50.5655 C.3       15 UNK        -0.1800 
     87 C          -4.3208  -21.0202  -50.2008 C.2       15 UNK         0.5000 
     88 O          -4.7800  -20.9759  -51.3407 O.2       15 UNK        -0.5000 
     89 N          -4.4136  -22.0843  -49.3911 N.am      16 UNK        -0.5000 
     90 CA         -5.0808  -23.3594  -49.6712 C.3       16 UNK         0.1400 
     91 CB         -4.2768  -24.1564  -50.7206 C.3       16 UNK        -0.1800 
     92 C          -6.5691  -23.1794  -50.0459 C.2       16 UNK         0.5000 
     93 O          -7.0495  -23.8030  -50.9927 O.2       16 UNK        -0.5000 
     94 N          -7.2564  -22.3041  -49.2968 N.am      17 UNK        -0.5000 
     95 CA         -8.6166  -21.8084  -49.5248 C.3       17 UNK         0.1400 
     96 CB         -9.6540  -22.9295  -49.3067 C.3       17 UNK        -0.1800 
     97 C          -8.7558  -21.0969  -50.8888 C.2       17 UNK         0.5000 
     98 O          -9.6597  -21.4129  -51.6651 O.2       17 UNK        -0.5000 
     99 N          -7.8418  -20.1479  -51.1410 N.am      18 UNK        -0.5000 
    100 CA        -7.6899  -19.3429  -52.3568 C.3       18 UNK         0.1400 
    101 CB        -8.8554  -18.3404  -52.4876 C.3       18 UNK        -0.1800 
    102 C         -7.4808  -20.2031  -53.6220 C.2       18 UNK         0.5000 
    103 O         -8.2417  -20.0910  -54.5863 O.2       18 UNK        -0.5000 
    104 N         -6.4527  -21.0557  -53.5839 N.am      19 UNK        -0.5000 
    105 CA        -6.0563  -21.9649  -54.6554 C.3       19 UNK         0.1400 
    106 CB        -6.4966  -23.3935  -54.2856 C.3       19 UNK        -0.1800 
    107 C         -4.5399  -21.8637  -54.9072 C.2       19 UNK         0.5000 
    108 O         -3.8837  -20.9333  -54.4309 O.2       19 UNK        -0.5000 
    109 N         -4.0042  -22.8150  -55.6820 N.am      20 UNK        -0.5000 
    110 CA        -2.5959  -22.9115  -56.0656 C.3       20 UNK         0.1400 
    111 CB        -2.4887  -23.7852  -57.3285 C.3       20 UNK        -0.1800 
    112 C         -1.7142  -23.4314  -54.9105 C.2       20 UNK         0.5000 
    113 O         -1.2287  -24.5629  -54.9577 O.2       20 UNK        -0.5000 
    114 N         -1.5311  -22.5913  -53.8848 N.am      21 UNK        -0.5000 
    115 CA        -0.6499  -22.8393  -52.7398 C.3       21 UNK         0.1400 
    116 CB        -0.9447  -21.7949  -51.6521 C.3       21 UNK        -0.1800 
    117 C          0.8487  -22.8146  -53.0993 C.2       21 UNK         0.5000 
    118 O          1.6500  -23.4358  -52.4003 O.2       21 UNK        -0.5000 
    119 N          1.1976  -22.0722  -54.1557 N.am      22 UNK        -0.5000 
    120 CA         2.5700  -21.8595  -54.6326 C.3       22 UNK         0.1400 
    121 C          3.2045  -23.1388  -55.2441 C.2       22 UNK         0.5000 
    122 N          4.4862  -23.3807  -55.0042 N.am      22 UNK        -0.7600 
    123 O          2.5586  -23.8880  -55.9733 O.2       22 UNK        -0.5000 
    124 C124        2.6560  -20.6769  -55.6356 C.3       23 UNK        -0.0398 
    125 S125        1.7779  -19.1757  -55.0765 S.3       23 UNK        -0.2404 
    126 C126        2.9270  -18.5248  -53.8272 C.3       23 UNK        -0.0205 
    127 H127       -2.2893   -9.7772  -48.5606 H         1 UNK         0.0600 
    128 H128       -1.8925   -9.1471  -46.9595 H         1 UNK         0.0600 
    129 H129       -3.2613  -10.2456  -47.1625 H         1 UNK         0.0600 
    130 H130       -0.8959  -11.4011  -49.2112 H         1 UNK         0.3000 
    131 H131        0.8301  -12.7854  -47.3795 H         1 UNK         0.0600 
    132 H132        1.6971  -12.1878  -49.5512 H         1 UNK         0.0800 
    133 H133        1.7159  -13.9158  -49.3967 H         1 UNK         0.0800 
    134 H134        2.2871  -13.6434  -51.9909 H         1 UNK         0.0800 
    135 H135        1.0119  -13.8600  -53.1619 H         1 UNK         0.0800 
    136 H136        2.5336  -15.8305  -53.7304 H         1 UNK         0.1150 
    137 H137        1.6495  -19.4487  -51.6084 H         1 UNK         0.1150 
    138 H138        0.2132  -15.7148  -50.1231 H         1 UNK         0.1150 
    139 H139       -0.5218  -17.6899  -49.1031 H         1 UNK         0.0800 
    140 H140       -0.3124  -19.2316  -49.9037 H         1 UNK         0.0800 
    141 H141        0.1542  -17.7047  -46.6407 H         1 UNK         0.0800 
    142 H142        1.1481  -18.9479  -45.9280 H         1 UNK         0.0800 
    143 H143       -1.3717  -19.4137  -47.5793 H         1 UNK         0.0600 
    144 H144        0.5793  -21.3435  -46.7212 H         1 UNK         0.3000 
    145 H145       -1.5808  -24.1803  -47.0880 H         1 UNK         0.0600 
    146 H146        0.7561  -23.1544  -48.7892 H         1 UNK         0.0600 
    147 H147        0.2870  -24.8447  -48.6087 H         1 UNK         0.0600 
    148 H148       -0.8064  -23.7129  -49.3823 H         1 UNK         0.0600 
    149 H149        1.1944  -23.8700  -46.3954 H         1 UNK         0.3000 
    150 H150        0.7136  -23.4945  -42.8947 H         1 UNK         0.0600 
    151 H151        0.4320  -25.9554  -43.2354 H         1 UNK         0.0600 
    152 H152        2.0800  -25.5541  -42.7816 H         1 UNK         0.0600 
    153 H153        1.6959  -25.9405  -44.4596 H         1 UNK         0.0600 
    154 H154        3.0901  -23.8677  -44.3442 H         1 UNK         0.3000 
    155 H155        4.5458  -22.2192  -44.5276 H         1 UNK         0.0600 
    156 H156        3.6443  -22.1208  -46.8753 H         1 UNK         0.0600 
    157 H157        4.9167  -20.9383  -46.6103 H         1 UNK         0.0600 
    158 H158        3.2327  -20.4266  -46.6367 H         1 UNK         0.0600 
    159 H159        4.2911  -19.3894  -44.6686 H         1 UNK         0.3000 
    160 H160        4.2053  -18.6821  -41.2289 H         1 UNK         0.0600 
    161 H161        6.4109  -17.5799  -41.5325 H         1 UNK         0.0600 
    162 H162        6.7407  -18.5903  -42.9402 H         1 UNK         0.0600 
    163 H163        6.5820  -19.3186  -41.3504 H         1 UNK         0.0600 
    164 H164        3.3886  -17.0795  -42.4188 H         1 UNK         0.3000 
    165 H165        4.4983  -15.0603  -44.8174 H         1 UNK         0.0600 
    166 H166        2.1003  -16.6921  -45.7708 H         1 UNK         0.0600 
    167 H167        2.5323  -15.0715  -46.3010 H         1 UNK         0.0600 
    168 H168        3.5690  -16.4308  -46.7016 H         1 UNK         0.0600 
    169 H169        1.8250  -15.5141  -43.6971 H         1 UNK         0.3000 
    170 H170        2.5567  -14.1328  -40.5450 H         1 UNK         0.0600 
    171 H171        1.0213  -12.6661  -42.7613 H         1 UNK         0.0600 
    172 H172        0.8223  -12.4204  -41.0255 H         1 UNK         0.0600 
    173 H173        2.3317  -11.9804  -41.8076 H         1 UNK         0.0600 
    174 H174        0.0662  -14.7146  -41.7721 H         1 UNK         0.3000 
    175 H175        0.0959  -18.1351  -41.9472 H         1 UNK         0.0600 
    176 H176       -1.1453  -16.8054  -39.4790 H         1 UNK         0.0600 
    177 H177       -1.6478  -18.3405  -40.1889 H         1 UNK         0.0600 
    178 H178       -0.0598  -18.1902  -39.4565 H         1 UNK         0.0600 
    179 H179       -2.1302  -16.3942  -41.7189 H         1 UNK         0.3000 
    180 H180       -3.2653  -16.1688  -43.8597 H         1 UNK         0.0600 
    181 H181       -1.6878  -13.5183  -43.8190 H         1 UNK         0.0600 
    182 H182       -2.6798  -14.1262  -42.4967 H         1 UNK         0.0600 
    183 H183       -3.4326  -13.6551  -44.0091 H         1 UNK         0.0600 
    184 H184       -1.2744  -15.6002  -45.8892 H         1 UNK         0.3000 
    185 H185       -2.2721  -16.3640  -48.1431 H         1 UNK         0.0600 
    186 H186       -3.6726  -15.3610  -49.9383 H         1 UNK         0.0600 
    187 H187       -4.6726  -16.1946  -48.7606 H         1 UNK         0.0600 
    188 H188       -4.5790  -14.4378  -48.7415 H         1 UNK         0.0600 
    189 H189       -2.3331  -13.4749  -48.5923 H         1 UNK         0.3000 
    190 H190       -0.3829  -20.6785  -44.3886 H         1 UNK         0.3000 
    191 H191       -2.1323  -19.1486  -42.7882 H         1 UNK         0.0600 
    192 H192       -1.1606  -22.0153  -42.3250 H         1 UNK         0.0600 
    193 H193       -0.2383  -20.5666  -41.9343 H         1 UNK         0.0600 
    194 H194       -1.7477  -20.9029  -41.0987 H         1 UNK         0.0600 
    195 H195       -2.8144  -21.9386  -44.8155 H         1 UNK         0.3000 
    196 H196       -5.5907  -22.2319  -43.8986 H         1 UNK         0.0600 
    197 H197       -4.2111  -24.2239  -44.5345 H         1 UNK         0.0600 
    198 H198       -4.0718  -23.6038  -46.1766 H         1 UNK         0.0600 
    199 H199       -5.6427  -24.0696  -45.5382 H         1 UNK         0.0600 
    200 H200       -4.6640  -19.6312  -45.0460 H         1 UNK         0.3000 
    201 H201       -5.3758  -17.9564  -46.2866 H         1 UNK         0.0600 
    202 H202       -7.7545  -17.8431  -46.9444 H         1 UNK         0.0600 
    203 H203       -7.6123  -18.5347  -45.3367 H         1 UNK         0.0600 
    204 H204       -7.9430  -19.5763  -46.7201 H         1 UNK         0.0600 
    205 H205       -3.6058  -19.5135  -47.5000 H         1 UNK         0.3000 
    206 H206       -2.5871  -20.1082  -49.4065 H         1 UNK         0.0600 
    207 H207       -4.5292  -18.1965  -50.8004 H         1 UNK         0.0600 
    208 H208       -3.0719  -18.8779  -51.5080 H         1 UNK         0.0600 
    209 H209       -2.9445  -17.7844  -50.1443 H         1 UNK         0.0600 
    210 H210       -3.9608  -22.0142  -48.4831 H         1 UNK         0.3000 
    211 H211       -5.0672  -23.9268  -48.7396 H         1 UNK         0.0600 
    212 H212       -3.2487  -24.3100  -50.3928 H         1 UNK         0.0600 
    213 H213       -4.7144  -25.1412  -50.8868 H         1 UNK         0.0600 
    214 H214       -4.2452  -23.6438  -51.6824 H         1 UNK         0.0600 
    215 H215       -6.7825  -21.9034  -48.4908 H         1 UNK         0.3000 
    216 H216       -8.7924  -21.0470  -48.7634 H         1 UNK         0.0600 
    217 H217      -10.6694  -22.5357  -49.3629 H         1 UNK         0.0600 
    218 H218       -9.5676  -23.7167  -50.0561 H         1 UNK         0.0600 
    219 H219       -9.5373  -23.3870  -48.3243 H         1 UNK         0.0600 
    220 H220       -7.1572  -19.9497  -50.4154 H         1 UNK         0.3000 
    221 H221       -6.7739  -18.7651  -52.2242 H         1 UNK         0.0600 
    222 H222       -9.8110  -18.8443  -52.6351 H         1 UNK         0.0600 
    223 H223       -8.9389  -17.7173  -51.5971 H         1 UNK         0.0600 
    224 H224       -8.7022  -17.6737  -53.3368 H         1 UNK         0.0600 
    225 H225       -5.8326  -21.0434  -52.7723 H         1 UNK         0.3000 
    226 H226       -6.5464  -21.6795  -55.5881 H         1 UNK         0.0600 
    227 H227       -7.5470  -23.4188  -53.9940 H         1 UNK         0.0600 
    228 H228       -6.3825  -24.0791  -55.1254 H         1 UNK         0.0600 
    229 H229       -5.9138  -23.7887  -53.4536 H         1 UNK         0.0600 
    230 H230       -4.6025  -23.5565  -56.0156 H         1 UNK         0.3000 
    231 H231       -2.2353  -21.9142  -56.3269 H         1 UNK         0.0600 
    232 H232       -1.4519  -23.8717  -57.6565 H         1 UNK         0.0600 
    233 H233       -3.0538  -23.3540  -58.1550 H         1 UNK         0.0600 
    234 H234       -2.8646  -24.7945  -57.1559 H         1 UNK         0.0600 
    235 H235       -2.0467  -21.7173  -53.8935 H         1 UNK         0.3000 
    236 H236       -0.8739  -23.8293  -52.3368 H         1 UNK         0.0600 
    237 H237       -1.9310  -21.9617  -51.2271 H         1 UNK         0.0600 
    238 H238       -0.2255  -21.8525  -50.8344 H         1 UNK         0.0600 
    239 H239       -0.9090  -20.7781  -52.0453 H         1 UNK         0.0600 
    240 H240        0.4722  -21.5952  -54.6688 H         1 UNK         0.3000 
    241 H241        3.1614  -21.5938  -53.7548 H         1 UNK         0.0600 
    242 H242        4.9132  -24.1992  -55.4101 H         1 UNK         0.3800 
    243 H243        5.0404  -22.7771  -54.4162 H         1 UNK         0.3800 
    244 H244        3.6976  -20.4211  -55.8375 H         1 UNK         0.0800 
    245 H245        2.2237  -20.9643  -56.5959 H         1 UNK         0.0800 
    246 H246        3.6838  -17.9098  -54.3166 H         1 UNK         0.0800 
    247 H247        3.4628  -19.3373  -53.3363 H         1 UNK         0.0800 
@<TRIPOS>BOND
     1    1    2 1    
     2    1  127 1    
     3    1  128 1    
     4    1  129 1    
     5    2    3 2    
     6    2    4 am   BACKBONE|DICT|INTERRES
     7    4    5 1    
     8    4  130 1    
     9    5    6 1    
    10    5   65 1    
    11    5  131 1    
    12    6    7 1    
    13    6  132 1    
    14    6  133 1    
    15    7    8 1    
    16    8    9 1    
    17    8  134 1    
    18    8  135 1    
    19    9   10 ar   
    20    9   14 ar   
    21   10   11 ar   
    22   10  136 1    
    23   11   12 ar   
    24   11  126 1    
    25   12   13 ar   
    26   12  137 1    
    27   13   14 ar   
    28   13   15 1    
    29   14  138 1    
    30   15   16 1    
    31   15  139 1    
    32   15  140 1    
    33   16   17 1    
    34   17   18 1    
    35   17  141 1    
    36   17  142 1    
    37   18   19 1    
    38   18   67 1    
    39   18  143 1    
    40   19   20 am   BACKBONE|DICT|INTERRES
    41   19  144 1    
    42   20   21 2    
    43   20   22 1    
    44   22   23 1    
    45   22   24 1    
    46   22  145 1    
    47   23  146 1    
    48   23  147 1    
    49   23  148 1    
    50   24   25 am   BACKBONE|DICT|INTERRES
    51   24  149 1    
    52   25   26 2    
    53   25   27 1    
    54   27   28 1    
    55   27   29 1    
    56   27  150 1    
    57   28  151 1    
    58   28  152 1    
    59   28  153 1    
    60   29   30 am   BACKBONE|DICT|INTERRES
    61   29  154 1    
    62   30   31 2    
    63   30   32 1    
    64   32   33 1    
    65   32   34 1    
    66   32  155 1    
    67   33  156 1    
    68   33  157 1    
    69   33  158 1    
    70   34   35 am   BACKBONE|DICT|INTERRES
    71   34  159 1    
    72   35   36 2    
    73   35   37 1    
    74   37   38 1    
    75   37   39 1    
    76   37  160 1    
    77   38  161 1    
    78   38  162 1    
    79   38  163 1    
    80   39   40 am   BACKBONE|DICT|INTERRES
    81   39  164 1    
    82   40   41 2    
    83   40   42 1    
    84   42   43 1    
    85   42   44 1    
    86   42  165 1    
    87   43  166 1    
    88   43  167 1    
    89   43  168 1    
    90   44   45 am   BACKBONE|DICT|INTERRES
    91   44  169 1    
    92   45   46 2    
    93   45   47 1    
    94   47   48 1    
    95   47   49 1    
    96   47  170 1    
    97   48  171 1    
    98   48  172 1    
    99   48  173 1    
   100   49   50 am   BACKBONE|DICT|INTERRES
   101   49  174 1    
   102   50   51 2    
   103   50   52 1    
   104   52   53 1    
   105   52   54 1    
   106   52  175 1    
   107   53  176 1    
   108   53  177 1    
   109   53  178 1    
   110   54   55 am   BACKBONE|DICT|INTERRES
   111   54  179 1    
   112   55   56 2    
   113   55   57 1    
   114   57   58 1    
   115   57   59 1    
   116   57  180 1    
   117   58  181 1    
   118   58  182 1    
   119   58  183 1    
   120   59   60 am   BACKBONE|DICT|INTERRES
   121   59  184 1    
   122   60   61 2    
   123   60   62 1    
   124   62   63 1    
   125   62   64 1    
   126   62  185 1    
   127   63  186 1    
   128   63  187 1    
   129   63  188 1    
   130   64   65 am   BACKBONE|DICT|INTERRES
   131   64  189 1    
   132   65   66 2    
   133   67   68 2    
   134   67   69 am   BACKBONE|DICT|INTERRES
   135   69   70 1    
   136   69  190 1    
   137   70   71 1    
   138   70   72 1    
   139   70  191 1    
   140   71  192 1    
   141   71  193 1    
   142   71  194 1    
   143   72   73 2    
   144   72   74 am   BACKBONE|DICT|INTERRES
   145   74   75 1    
   146   74  195 1    
   147   75   76 1    
   148   75   77 1    
   149   75  196 1    
   150   76  197 1    
   151   76  198 1    
   152   76  199 1    
   153   77   78 2    
   154   77   79 am   BACKBONE|DICT|INTERRES
   155   79   80 1    
   156   79  200 1    
   157   80   81 1    
   158   80   82 1    
   159   80  201 1    
   160   81  202 1    
   161   81  203 1    
   162   81  204 1    
   163   82   83 2    
   164   82   84 am   BACKBONE|DICT|INTERRES
   165   84   85 1    
   166   84  205 1    
   167   85   86 1    
   168   85   87 1    
   169   85  206 1    
   170   86  207 1    
   171   86  208 1    
   172   86  209 1    
   173   87   88 2    
   174   87   89 am   BACKBONE|DICT|INTERRES
   175   89   90 1    
   176   89  210 1    
   177   90   91 1    
   178   90   92 1    
   179   90  211 1    
   180   91  212 1    
   181   91  213 1    
   182   91  214 1    
   183   92   93 2    
   184   92   94 am   BACKBONE|DICT|INTERRES
   185   94   95 1    
   186   94  215 1    
   187   95   96 1    
   188   95   97 1    
   189   95  216 1    
   190   96  217 1    
   191   96  218 1    
   192   96  219 1    
   193   97   98 2    
   194   97   99 am   BACKBONE|DICT|INTERRES
   195   99  100 1    
   196   99  220 1    
   197  100  101 1    
   198  100  102 1    
   199  100  221 1    
   200  101  222 1    
   201  101  223 1    
   202  101  224 1    
   203  102  103 2    
   204  102  104 am   BACKBONE|DICT|INTERRES
   205  104  105 1    
   206  104  225 1    
   207  105  106 1    
   208  105  107 1    
   209  105  226 1    
   210  106  227 1    
   211  106  228 1    
   212  106  229 1    
   213  107  108 2    
   214  107  109 am   BACKBONE|DICT|INTERRES
   215  109  110 1    
   216  109  230 1    
   217  110  111 1    
   218  110  112 1    
   219  110  231 1    
   220  111  232 1    
   221  111  233 1    
   222  111  234 1    
   223  112  113 2    
   224  112  114 am   BACKBONE|DICT|INTERRES
   225  114  115 1    
   226  114  235 1    
   227  115  116 1    
   228  115  117 1    
   229  115  236 1    
   230  116  237 1    
   231  116  238 1    
   232  116  239 1    
   233  117  118 2    
   234  117  119 am   BACKBONE|DICT|INTERRES
   235  119  120 1    
   236  119  240 1    
   237  120  121 1    
   238  120  124 1    
   239  120  241 1    
   240  121  122 am   BACKBONE|DICT|INTERRES
   241  121  123 2    
   242  122  242 1    
   243  122  243 1    
   244  124  125 1    
   245  124  244 1    
   246  124  245 1    
   247  125  126 1    
   248  126  246 1    
   249  126  247 1    
@<TRIPOS>SUBSTRUCTURE
     1 UNK         1 GROUP             0       ****    0 ROOT    
