@<TRIPOS>MOLECULE
3R540
247   249    1
SMALL
USER_CHARGES


@<TRIPOS>ATOM
      1 CA         -5.2481  -19.2493  -47.5301 C.3       0 UNK        -0.1800 
      2 C          -4.3704  -18.0187  -47.3565 C.2       0 UNK         0.5000 
      3 O          -3.6845  -17.8959  -46.3444 O.2       0 UNK        -0.5000 
      4 N          -4.3901  -17.1118  -48.3423 N.am      1 UNK        -0.5000 
      5 CA         -3.6710  -15.8322  -48.3437 C.3       1 UNK         0.1400 
      6 C6         -2.1295  -16.0127  -48.2386 C.3       23 UNK        -0.0398 
      7 S7         -1.1931  -14.6538  -49.0121 S.3       23 UNK        -0.2404 
      8 C8          0.5085  -15.2851  -48.8847 C.3       23 UNK        -0.0205 
      9 C9          0.7657  -16.4247  -49.8590 C.ar      23 UNK        -0.0193 
     10 C10         0.9425  -16.1567  -51.2194 C.ar      23 UNK        -0.1150 
     11 C11         1.1955  -17.1939  -52.1207 C.ar      23 UNK        -0.0193 
     12 C12         1.2689  -18.5087  -51.6504 C.ar      23 UNK        -0.1150 
     13 C13         1.1046  -18.7901  -50.2902 C.ar      23 UNK        -0.0193 
     14 C14         0.8505  -17.7424  -49.4010 C.ar      23 UNK        -0.1150 
     15 C15         1.2439  -20.2189  -49.7825 C.3       23 UNK        -0.0205 
     16 S16        -0.3405  -21.1135  -49.7940 S.3       23 UNK        -0.2404 
     17 C17        -1.0719  -20.6360  -48.1912 C.3       23 UNK        -0.0398 
     18 CA         -1.0883  -21.8404  -47.2131 C.3       11 UNK         0.1400 
     19 N          -0.0314  -21.7889  -46.1986 N.am      11 UNK        -0.5000 
     20 C           0.3185  -22.8370  -45.4380 C.2       10 UNK         0.5000 
     21 O          -0.2080  -23.9459  -45.5277 O.2       10 UNK        -0.5000 
     22 CA          1.4042  -22.6067  -44.3722 C.3       10 UNK         0.1400 
     23 CB          2.8016  -22.5571  -45.0078 C.3       10 UNK        -0.1800 
     24 N           1.1697  -21.3973  -43.5849 N.am      10 UNK        -0.5000 
     25 C           0.1154  -21.2126  -42.7766 C.2       9 UNK         0.5000 
     26 O          -0.7479  -22.0673  -42.5700 O.2       9 UNK        -0.5000 
     27 CA         -0.0267  -19.8187  -42.1338 C.3       9 UNK         0.1400 
     28 CB          0.8907  -19.6781  -40.9102 C.3       9 UNK        -0.1800 
     29 N           0.2428  -18.7305  -43.0754 N.am      9 UNK        -0.5000 
     30 C          -0.4453  -18.5203  -44.2060 C.2       8 UNK         0.5000 
     31 O          -1.4036  -19.2031  -44.5546 O.2       8 UNK        -0.5000 
     32 CA          0.0694  -17.4197  -45.1454 C.3       8 UNK         0.1400 
     33 CB         -0.3747  -16.0270  -44.6781 C.3       8 UNK        -0.1800 
     34 N           1.5234  -17.4595  -45.2930 N.am      8 UNK        -0.5000 
     35 C           2.1904  -18.4689  -45.8696 C.2       7 UNK         0.5000 
     36 O           1.6434  -19.4554  -46.3581 O.2       7 UNK        -0.5000 
     37 CA          3.7245  -18.3773  -45.8648 C.3       7 UNK         0.1400 
     38 CB          4.2105  -17.4427  -46.9831 C.3       7 UNK        -0.1800 
     39 N           4.2435  -17.9191  -44.5760 N.am      7 UNK        -0.5000 
     40 C           4.1374  -18.6092  -43.4308 C.2       6 UNK         0.5000 
     41 O           3.6442  -19.7343  -43.3514 O.2       6 UNK        -0.5000 
     42 CA          4.6128  -17.8949  -42.1517 C.3       6 UNK         0.1400 
     43 CB          6.1229  -18.0900  -41.9513 C.3       6 UNK        -0.1800 
     44 N           4.2987  -16.4620  -42.1407 N.am      6 UNK        -0.5000 
     45 C           3.0569  -15.9604  -42.1754 C.2       5 UNK         0.5000 
     46 O           2.0433  -16.6578  -42.2514 O.2       5 UNK        -0.5000 
     47 CA          2.9337  -14.4251  -42.1865 C.3       5 UNK         0.1400 
     48 CB          3.0072  -13.8988  -43.6288 C.3       5 UNK        -0.1800 
     49 N           1.6833  -13.9602  -41.5853 N.am      5 UNK        -0.5000 
     50 C           1.3303  -14.1257  -40.3032 C.2       4 UNK         0.5000 
     51 O           2.0667  -14.6444  -39.4618 O.2       4 UNK        -0.5000 
     52 CA         -0.0602  -13.6045  -39.8796 C.3       4 UNK         0.1400 
     53 CB         -0.0237  -12.9644  -38.4799 C.3       4 UNK        -0.1800 
     54 N          -0.6126  -12.6242  -40.8201 N.am      4 UNK        -0.5000 
     55 C          -1.4510  -12.8972  -41.8270 C.2       3 UNK         0.5000 
     56 O          -1.8351  -14.0362  -42.1001 O.2       3 UNK        -0.5000 
     57 CA         -1.9600  -11.6764  -42.6241 C.3       3 UNK         0.1400 
     58 CB         -0.8061  -10.7959  -43.1550 C.3       3 UNK        -0.1800 
     59 N          -2.8995  -12.0362  -43.6941 N.am      3 UNK        -0.5000 
     60 C          -2.6325  -12.6634  -44.8479 C.2       2 UNK         0.5000 
     61 O          -1.5021  -12.9686  -45.2369 O.2       2 UNK        -0.5000 
     62 CA         -3.8491  -12.9779  -45.7307 C.3       2 UNK         0.1400 
     63 CB         -4.3729  -11.7115  -46.4325 C.3       2 UNK        -0.1800 
     64 N          -3.4674  -13.9679  -46.7307 N.am      2 UNK        -0.5000 
     65 C          -4.2857  -14.8494  -47.3134 C.2       1 UNK         0.5000 
     66 O          -5.4985  -14.8897  -47.0873 O.2       1 UNK        -0.5000 
     67 C          -2.4835  -22.0643  -46.6021 C.2       11 UNK         0.5000 
     68 O          -3.2662  -22.8094  -47.1867 O.2       11 UNK        -0.5000 
     69 N          -2.7732  -21.4676  -45.4390 N.am      12 UNK        -0.5000 
     70 CA         -4.0123  -21.6865  -44.6912 C.3       12 UNK         0.1400 
     71 CB         -4.0841  -20.7213  -43.4994 C.3       12 UNK        -0.1800 
     72 C          -4.1693  -23.1471  -44.2320 C.2       12 UNK         0.5000 
     73 O          -5.2496  -23.7167  -44.3897 O.2       12 UNK        -0.5000 
     74 N          -3.0772  -23.7454  -43.7336 N.am      13 UNK        -0.5000 
     75 CA         -3.0057  -25.1618  -43.3659 C.3       13 UNK         0.1400 
     76 CB         -1.6950  -25.4280  -42.6105 C.3       13 UNK        -0.1800 
     77 C          -3.1438  -26.1057  -44.5781 C.2       13 UNK         0.5000 
     78 O          -3.7673  -27.1607  -44.4590 O.2       13 UNK        -0.5000 
     79 N          -2.5889  -25.6964  -45.7268 N.am      14 UNK        -0.5000 
     80 CA         -2.6601  -26.4110  -47.0041 C.3       14 UNK         0.1400 
     81 CB         -1.4691  -25.9814  -47.8756 C.3       14 UNK        -0.1800 
     82 C          -3.9885  -26.2072  -47.7658 C.2       14 UNK         0.5000 
     83 O          -4.1573  -26.8031  -48.8295 O.2       14 UNK        -0.5000 
     84 N          -4.8926  -25.3707  -47.2347 N.am      15 UNK        -0.5000 
     85 CA         -6.1915  -24.9864  -47.7984 C.3       15 UNK         0.1400 
     86 CB         -7.1410  -26.1998  -47.8893 C.3       15 UNK        -0.1800 
     87 C          -6.0643  -24.2039  -49.1243 C.2       15 UNK         0.5000 
     88 O          -6.7845  -24.4801  -50.0852 O.2       15 UNK        -0.5000 
     89 N          -5.1487  -23.2248  -49.1297 N.am      16 UNK        -0.5000 
     90 CA         -4.8509  -22.2639  -50.1965 C.3       16 UNK         0.1400 
     91 CB         -6.0815  -21.3900  -50.5196 C.3       16 UNK        -0.1800 
     92 C          -4.2332  -22.9042  -51.4541 C.2       16 UNK         0.5000 
     93 O          -4.4420  -22.3966  -52.5563 O.2       16 UNK        -0.5000 
     94 N          -3.4691  -23.9908  -51.2628 N.am      17 UNK        -0.5000 
     95 CA         -2.8778  -24.8291  -52.3126 C.3       17 UNK         0.1400 
     96 CB         -1.9965  -25.9077  -51.6650 C.3       17 UNK        -0.1800 
     97 C          -2.0830  -24.0641  -53.3884 C.2       17 UNK         0.5000 
     98 O          -2.2335  -24.3650  -54.5735 O.2       17 UNK        -0.5000 
     99 N          -1.2810  -23.0812  -52.9584 N.am      18 UNK        -0.5000 
    100 CA        -0.5857  -22.1511  -53.8480 C.3       18 UNK         0.1400 
    101 CB         0.8762  -21.9997  -53.4054 C.3       18 UNK        -0.1800 
    102 C         -1.2948  -20.7881  -53.8991 C.2       18 UNK         0.5000 
    103 O         -1.4044  -20.2191  -54.9849 O.2       18 UNK        -0.5000 
    104 N         -1.7847  -20.2989  -52.7473 N.am      19 UNK        -0.5000 
    105 CA        -2.3966  -18.9740  -52.5666 C.3       19 UNK         0.1400 
    106 CB        -2.7618  -18.7626  -51.0897 C.3       19 UNK        -0.1800 
    107 C         -3.6134  -18.6719  -53.4621 C.2       19 UNK         0.5000 
    108 O         -3.9020  -17.5009  -53.7100 O.2       19 UNK        -0.5000 
    109 N         -4.2963  -19.7180  -53.9446 N.am      20 UNK        -0.5000 
    110 CA        -5.4035  -19.6255  -54.8955 C.3       20 UNK         0.1400 
    111 CB        -6.0844  -20.9992  -54.9990 C.3       20 UNK        -0.1800 
    112 C         -5.0041  -19.1151  -56.2980 C.2       20 UNK         0.5000 
    113 O         -5.8963  -18.7202  -57.0510 O.2       20 UNK        -0.5000 
    114 N         -3.7064  -19.1340  -56.6404 N.am      21 UNK        -0.5000 
    115 CA        -3.2041  -18.7072  -57.9485 C.3       21 UNK         0.1400 
    116 CB        -3.0835  -19.9285  -58.8760 C.3       21 UNK        -0.1800 
    117 C         -1.8695  -17.9492  -57.8678 C.2       21 UNK         0.5000 
    118 O         -1.7076  -16.9519  -58.5722 O.2       21 UNK        -0.5000 
    119 N         -0.9333  -18.4361  -57.0421 N.am      22 UNK        -0.5000 
    120 CA         0.4464  -17.9337  -56.8898 C.3       22 UNK         0.1400 
    121 C          1.3293  -18.0315  -58.1747 C.2       22 UNK         0.5000 
    122 N          0.9965  -18.8800  -59.1401 N.am      22 UNK        -0.7600 
    123 O          2.3507  -17.3594  -58.2912 O.2       22 UNK        -0.5000 
    124 C124        0.5165  -16.5382  -56.2064 C.3       23 UNK        -0.0398 
    125 S125       -0.1137  -16.5847  -54.4956 S.3       23 UNK        -0.2404 
    126 C126        1.4363  -16.8881  -53.5915 C.3       23 UNK        -0.0205 
    127 H127       -4.6354  -20.1243  -47.7437 H         1 UNK         0.0600 
    128 H128       -5.9607  -19.1174  -48.3437 H         1 UNK         0.0600 
    129 H129       -5.8116  -19.4405  -46.6170 H         1 UNK         0.0600 
    130 H130       -5.0151  -17.2510  -49.1231 H         1 UNK         0.3000 
    131 H131       -3.8866  -15.3992  -49.3217 H         1 UNK         0.0600 
    132 H132       -1.8377  -16.9329  -48.7450 H         1 UNK         0.0800 
    133 H133       -1.8158  -16.1314  -47.2022 H         1 UNK         0.0800 
    134 H134        0.7094  -15.5957  -47.8581 H         1 UNK         0.0800 
    135 H135        1.2022  -14.4702  -49.0965 H         1 UNK         0.0800 
    136 H136        0.8864  -15.1379  -51.5767 H         1 UNK         0.1150 
    137 H137        1.4741  -19.3119  -52.3425 H         1 UNK         0.1150 
    138 H138        0.7275  -17.9498  -48.3496 H         1 UNK         0.1150 
    139 H139        1.9541  -20.7587  -50.4096 H         1 UNK         0.0800 
    140 H140        1.6734  -20.2337  -48.7817 H         1 UNK         0.0800 
    141 H141       -2.0766  -20.2692  -48.4088 H         1 UNK         0.0800 
    142 H142       -0.5493  -19.7833  -47.7609 H         1 UNK         0.0800 
    143 H143       -0.8965  -22.7474  -47.7893 H         1 UNK         0.0600 
    144 H144        0.4721  -20.9111  -46.0972 H         1 UNK         0.3000 
    145 H145        1.3781  -23.4568  -43.6872 H         1 UNK         0.0600 
    146 H146        3.5771  -22.4749  -44.2461 H         1 UNK         0.0600 
    147 H147        3.0019  -23.4637  -45.5800 H         1 UNK         0.0600 
    148 H148        2.9100  -21.7109  -45.6858 H         1 UNK         0.0600 
    149 H149        1.8580  -20.6567  -43.6714 H         1 UNK         0.3000 
    150 H150       -1.0601  -19.7135  -41.7976 H         1 UNK         0.0600 
    151 H151        0.6796  -20.4539  -40.1733 H         1 UNK         0.0600 
    152 H152        0.7491  -18.7145  -40.4202 H         1 UNK         0.0600 
    153 H153        1.9427  -19.7616  -41.1832 H         1 UNK         0.0600 
    154 H154        0.9999  -18.0928  -42.8404 H         1 UNK         0.3000 
    155 H155       -0.3676  -17.6024  -46.1285 H         1 UNK         0.0600 
    156 H156        0.0089  -15.7832  -43.6876 H         1 UNK         0.0600 
    157 H157       -1.4626  -15.9631  -44.6272 H         1 UNK         0.0600 
    158 H158       -0.0368  -15.2541  -45.3679 H         1 UNK         0.0600 
    159 H159        2.0461  -16.7177  -44.8540 H         1 UNK         0.3000 
    160 H160        4.1201  -19.3770  -46.0565 H         1 UNK         0.0600 
    161 H161        3.8700  -16.4176  -46.8321 H         1 UNK         0.0600 
    162 H162        3.8380  -17.7714  -47.9546 H         1 UNK         0.0600 
    163 H163        5.2990  -17.4303  -47.0408 H         1 UNK         0.0600 
    164 H164        4.6671  -17.0036  -44.5499 H         1 UNK         0.3000 
    165 H165        4.0952  -18.3548  -41.3073 H         1 UNK         0.0600 
    166 H166        6.4531  -17.6651  -41.0032 H         1 UNK         0.0600 
    167 H167        6.3808  -19.1499  -41.9378 H         1 UNK         0.0600 
    168 H168        6.7004  -17.6217  -42.7493 H         1 UNK         0.0600 
    169 H169        5.0841  -15.8292  -42.0881 H         1 UNK         0.3000 
    170 H170        3.7619  -14.0040  -41.6129 H         1 UNK         0.0600 
    171 H171        3.9357  -14.2033  -44.1135 H         1 UNK         0.0600 
    172 H172        2.1814  -14.2703  -44.2368 H         1 UNK         0.0600 
    173 H173        2.9741  -12.8093  -43.6524 H         1 UNK         0.0600 
    174 H174        1.0044  -13.5537  -42.2106 H         1 UNK         0.3000 
    175 H175       -0.7184  -14.4743  -39.8286 H         1 UNK         0.0600 
    176 H176        0.6602  -12.1156  -38.4437 H         1 UNK         0.0600 
    177 H177       -1.0116  -12.6126  -38.1818 H         1 UNK         0.0600 
    178 H178        0.3011  -13.6816  -37.7251 H         1 UNK         0.0600 
    179 H179       -0.3330  -11.6655  -40.6679 H         1 UNK         0.3000 
    180 H180       -2.5375  -11.0730  -41.9220 H         1 UNK         0.0600 
    181 H181       -1.1824   -9.9942  -43.7906 H         1 UNK         0.0600 
    182 H182       -0.0847  -11.3719  -43.7352 H         1 UNK         0.0600 
    183 H183       -0.2597  -10.3235  -42.3384 H         1 UNK         0.0600 
    184 H184       -3.8689  -11.8508  -43.4783 H         1 UNK         0.3000 
    185 H185       -4.6306  -13.3929  -45.0905 H         1 UNK         0.0600 
    186 H186       -5.2489  -11.9307  -47.0432 H         1 UNK         0.0600 
    187 H187       -4.6672  -10.9510  -45.7084 H         1 UNK         0.0600 
    188 H188       -3.6143  -11.2720  -47.0815 H         1 UNK         0.0600 
    189 H189       -2.4739  -13.9880  -46.9307 H         1 UNK         0.3000 
    190 H190       -2.1208  -20.7892  -45.0483 H         1 UNK         0.3000 
    191 H191       -4.8464  -21.4599  -45.3581 H         1 UNK         0.0600 
    192 H192       -5.0038  -20.8670  -42.9317 H         1 UNK         0.0600 
    193 H193       -4.0698  -19.6841  -43.8356 H         1 UNK         0.0600 
    194 H194       -3.2471  -20.8622  -42.8152 H         1 UNK         0.0600 
    195 H195       -2.2308  -23.1990  -43.6135 H         1 UNK         0.3000 
    196 H196       -3.8351  -25.3728  -42.6877 H         1 UNK         0.0600 
    197 H197       -0.8221  -25.2163  -43.2283 H         1 UNK         0.0600 
    198 H198       -1.6253  -24.8118  -41.7138 H         1 UNK         0.0600 
    199 H199       -1.6301  -26.4703  -42.2958 H         1 UNK         0.0600 
    200 H200       -2.0334  -24.8473  -45.7168 H         1 UNK         0.3000 
    201 H201       -2.5623  -27.4803  -46.8068 H         1 UNK         0.0600 
    202 H202       -1.5589  -24.9434  -48.1941 H         1 UNK         0.0600 
    203 H203       -1.4013  -26.5965  -48.7730 H         1 UNK         0.0600 
    204 H204       -0.5253  -26.0899  -47.3409 H         1 UNK         0.0600 
    205 H205       -4.6390  -24.9014  -46.3750 H         1 UNK         0.3000 
    206 H206       -6.6292  -24.2889  -47.0827 H         1 UNK         0.0600 
    207 H207       -7.2181  -26.7119  -46.9301 H         1 UNK         0.0600 
    208 H208       -8.1468  -25.8860  -48.1707 H         1 UNK         0.0600 
    209 H209       -6.8076  -26.9252  -48.6317 H         1 UNK         0.0600 
    210 H210       -4.5618  -23.1267  -48.3002 H         1 UNK         0.3000 
    211 H211       -4.0811  -21.6096  -49.7872 H         1 UNK         0.0600 
    212 H212       -5.8031  -20.5325  -51.1334 H         1 UNK         0.0600 
    213 H213       -6.5477  -21.0074  -49.6129 H         1 UNK         0.0600 
    214 H214       -6.8392  -21.9494  -51.0693 H         1 UNK         0.0600 
    215 H215       -3.3829  -24.3367  -50.3186 H         1 UNK         0.3000 
    216 H216       -3.7053  -25.3292  -52.8195 H         1 UNK         0.0600 
    217 H217       -1.1960  -25.4690  -51.0682 H         1 UNK         0.0600 
    218 H218       -1.5325  -26.5420  -52.4216 H         1 UNK         0.0600 
    219 H219       -2.5833  -26.5589  -51.0179 H         1 UNK         0.0600 
    220 H220       -1.2077  -22.9190  -51.9652 H         1 UNK         0.3000 
    221 H221       -0.5708  -22.5394  -54.8687 H         1 UNK         0.0600 
    222 H222        1.4084  -22.9474  -53.4872 H         1 UNK         0.0600 
    223 H223        0.9545  -21.6652  -52.3735 H         1 UNK         0.0600 
    224 H224        1.4024  -21.2764  -54.0298 H         1 UNK         0.0600 
    225 H225       -1.6265  -20.8227  -51.9004 H         1 UNK         0.3000 
    226 H226       -1.6339  -18.2389  -52.8172 H         1 UNK         0.0600 
    227 H227       -3.4279  -19.5405  -50.7202 H         1 UNK         0.0600 
    228 H228       -1.8710  -18.7443  -50.4649 H         1 UNK         0.0600 
    229 H229       -3.2617  -17.8043  -50.9454 H         1 UNK         0.0600 
    230 H230       -4.0359  -20.6518  -53.6455 H         1 UNK         0.3000 
    231 H231       -6.1308  -18.9178  -54.4927 H         1 UNK         0.0600 
    232 H232       -5.3875  -21.7671  -55.3372 H         1 UNK         0.0600 
    233 H233       -6.9174  -20.9759  -55.7027 H         1 UNK         0.0600 
    234 H234       -6.4864  -21.3121  -54.0351 H         1 UNK         0.0600 
    235 H235       -3.0225  -19.4522  -55.9621 H         1 UNK         0.3000 
    236 H236       -3.9132  -18.0115  -58.4025 H         1 UNK         0.0600 
    237 H237       -4.0550  -20.3950  -59.0398 H         1 UNK         0.0600 
    238 H238       -2.6925  -19.6426  -59.8534 H         1 UNK         0.0600 
    239 H239       -2.4160  -20.6841  -58.4600 H         1 UNK         0.0600 
    240 H240       -1.1541  -19.2325  -56.4488 H         1 UNK         0.3000 
    241 H241        0.9223  -18.6397  -56.2084 H         1 UNK         0.0600 
    242 H242        1.5756  -18.9474  -59.9625 H         1 UNK         0.3800 
    243 H243        0.1733  -19.4543  -59.0577 H         1 UNK         0.3800 
    244 H244       -0.0559  -15.8029  -56.7726 H         1 UNK         0.0800 
    245 H245        1.5393  -16.1596  -56.1781 H         1 UNK         0.0800 
    246 H246        1.9720  -17.7147  -54.0608 H         1 UNK         0.0800 
    247 H247        2.0826  -16.0136  -53.6809 H         1 UNK         0.0800 
@<TRIPOS>BOND
     1    1    2 1    
     2    1  127 1    
     3    1  128 1    
     4    1  129 1    
     5    2    3 2    
     6    2    4 am   BACKBONE|DICT|INTERRES
     7    4    5 1    
     8    4  130 1    
     9    5    6 1    
    10    5   65 1    
    11    5  131 1    
    12    6    7 1    
    13    6  132 1    
    14    6  133 1    
    15    7    8 1    
    16    8    9 1    
    17    8  134 1    
    18    8  135 1    
    19    9   10 ar   
    20    9   14 ar   
    21   10   11 ar   
    22   10  136 1    
    23   11   12 ar   
    24   11  126 1    
    25   12   13 ar   
    26   12  137 1    
    27   13   14 ar   
    28   13   15 1    
    29   14  138 1    
    30   15   16 1    
    31   15  139 1    
    32   15  140 1    
    33   16   17 1    
    34   17   18 1    
    35   17  141 1    
    36   17  142 1    
    37   18   19 1    
    38   18   67 1    
    39   18  143 1    
    40   19   20 am   BACKBONE|DICT|INTERRES
    41   19  144 1    
    42   20   21 2    
    43   20   22 1    
    44   22   23 1    
    45   22   24 1    
    46   22  145 1    
    47   23  146 1    
    48   23  147 1    
    49   23  148 1    
    50   24   25 am   BACKBONE|DICT|INTERRES
    51   24  149 1    
    52   25   26 2    
    53   25   27 1    
    54   27   28 1    
    55   27   29 1    
    56   27  150 1    
    57   28  151 1    
    58   28  152 1    
    59   28  153 1    
    60   29   30 am   BACKBONE|DICT|INTERRES
    61   29  154 1    
    62   30   31 2    
    63   30   32 1    
    64   32   33 1    
    65   32   34 1    
    66   32  155 1    
    67   33  156 1    
    68   33  157 1    
    69   33  158 1    
    70   34   35 am   BACKBONE|DICT|INTERRES
    71   34  159 1    
    72   35   36 2    
    73   35   37 1    
    74   37   38 1    
    75   37   39 1    
    76   37  160 1    
    77   38  161 1    
    78   38  162 1    
    79   38  163 1    
    80   39   40 am   BACKBONE|DICT|INTERRES
    81   39  164 1    
    82   40   41 2    
    83   40   42 1    
    84   42   43 1    
    85   42   44 1    
    86   42  165 1    
    87   43  166 1    
    88   43  167 1    
    89   43  168 1    
    90   44   45 am   BACKBONE|DICT|INTERRES
    91   44  169 1    
    92   45   46 2    
    93   45   47 1    
    94   47   48 1    
    95   47   49 1    
    96   47  170 1    
    97   48  171 1    
    98   48  172 1    
    99   48  173 1    
   100   49   50 am   BACKBONE|DICT|INTERRES
   101   49  174 1    
   102   50   51 2    
   103   50   52 1    
   104   52   53 1    
   105   52   54 1    
   106   52  175 1    
   107   53  176 1    
   108   53  177 1    
   109   53  178 1    
   110   54   55 am   BACKBONE|DICT|INTERRES
   111   54  179 1    
   112   55   56 2    
   113   55   57 1    
   114   57   58 1    
   115   57   59 1    
   116   57  180 1    
   117   58  181 1    
   118   58  182 1    
   119   58  183 1    
   120   59   60 am   BACKBONE|DICT|INTERRES
   121   59  184 1    
   122   60   61 2    
   123   60   62 1    
   124   62   63 1    
   125   62   64 1    
   126   62  185 1    
   127   63  186 1    
   128   63  187 1    
   129   63  188 1    
   130   64   65 am   BACKBONE|DICT|INTERRES
   131   64  189 1    
   132   65   66 2    
   133   67   68 2    
   134   67   69 am   BACKBONE|DICT|INTERRES
   135   69   70 1    
   136   69  190 1    
   137   70   71 1    
   138   70   72 1    
   139   70  191 1    
   140   71  192 1    
   141   71  193 1    
   142   71  194 1    
   143   72   73 2    
   144   72   74 am   BACKBONE|DICT|INTERRES
   145   74   75 1    
   146   74  195 1    
   147   75   76 1    
   148   75   77 1    
   149   75  196 1    
   150   76  197 1    
   151   76  198 1    
   152   76  199 1    
   153   77   78 2    
   154   77   79 am   BACKBONE|DICT|INTERRES
   155   79   80 1    
   156   79  200 1    
   157   80   81 1    
   158   80   82 1    
   159   80  201 1    
   160   81  202 1    
   161   81  203 1    
   162   81  204 1    
   163   82   83 2    
   164   82   84 am   BACKBONE|DICT|INTERRES
   165   84   85 1    
   166   84  205 1    
   167   85   86 1    
   168   85   87 1    
   169   85  206 1    
   170   86  207 1    
   171   86  208 1    
   172   86  209 1    
   173   87   88 2    
   174   87   89 am   BACKBONE|DICT|INTERRES
   175   89   90 1    
   176   89  210 1    
   177   90   91 1    
   178   90   92 1    
   179   90  211 1    
   180   91  212 1    
   181   91  213 1    
   182   91  214 1    
   183   92   93 2    
   184   92   94 am   BACKBONE|DICT|INTERRES
   185   94   95 1    
   186   94  215 1    
   187   95   96 1    
   188   95   97 1    
   189   95  216 1    
   190   96  217 1    
   191   96  218 1    
   192   96  219 1    
   193   97   98 2    
   194   97   99 am   BACKBONE|DICT|INTERRES
   195   99  100 1    
   196   99  220 1    
   197  100  101 1    
   198  100  102 1    
   199  100  221 1    
   200  101  222 1    
   201  101  223 1    
   202  101  224 1    
   203  102  103 2    
   204  102  104 am   BACKBONE|DICT|INTERRES
   205  104  105 1    
   206  104  225 1    
   207  105  106 1    
   208  105  107 1    
   209  105  226 1    
   210  106  227 1    
   211  106  228 1    
   212  106  229 1    
   213  107  108 2    
   214  107  109 am   BACKBONE|DICT|INTERRES
   215  109  110 1    
   216  109  230 1    
   217  110  111 1    
   218  110  112 1    
   219  110  231 1    
   220  111  232 1    
   221  111  233 1    
   222  111  234 1    
   223  112  113 2    
   224  112  114 am   BACKBONE|DICT|INTERRES
   225  114  115 1    
   226  114  235 1    
   227  115  116 1    
   228  115  117 1    
   229  115  236 1    
   230  116  237 1    
   231  116  238 1    
   232  116  239 1    
   233  117  118 2    
   234  117  119 am   BACKBONE|DICT|INTERRES
   235  119  120 1    
   236  119  240 1    
   237  120  121 1    
   238  120  124 1    
   239  120  241 1    
   240  121  122 am   BACKBONE|DICT|INTERRES
   241  121  123 2    
   242  122  242 1    
   243  122  243 1    
   244  124  125 1    
   245  124  244 1    
   246  124  245 1    
   247  125  126 1    
   248  126  246 1    
   249  126  247 1    
@<TRIPOS>SUBSTRUCTURE
     1 UNK         1 GROUP             0       ****    0 ROOT    
