@<TRIPOS>MOLECULE
3R540
247   249    1
SMALL
USER_CHARGES


@<TRIPOS>ATOM
      1 CA          4.8028  -11.0990  -49.1995 C.3       0 UNK        -0.1800 
      2 C           3.5592  -10.9561  -50.0765 C.2       0 UNK         0.5000 
      3 O           3.4623   -9.9867  -50.8267 O.2       0 UNK        -0.5000 
      4 N           2.5946  -11.8863  -50.0385 N.am      1 UNK        -0.5000 
      5 CA          2.5084  -13.0559  -49.1546 C.3       1 UNK         0.1400 
      6 C6          1.3957  -14.0361  -49.6023 C.3       23 UNK        -0.0398 
      7 S7          1.6054  -14.5912  -51.3314 S.3       23 UNK        -0.2404 
      8 C8          2.1079  -16.3348  -51.1169 C.3       23 UNK        -0.0205 
      9 C9          0.9886  -17.3313  -50.8007 C.ar      23 UNK        -0.0193 
     10 C10        -0.3265  -16.9444  -50.5040 C.ar      23 UNK        -0.1150 
     11 C11        -1.3047  -17.8988  -50.2136 C.ar      23 UNK        -0.0193 
     12 C12        -0.9609  -19.2508  -50.1978 C.ar      23 UNK        -0.1150 
     13 C13         0.3333  -19.6602  -50.5249 C.ar      23 UNK        -0.0193 
     14 C14         1.3003  -18.6952  -50.8208 C.ar      23 UNK        -0.1150 
     15 C15         0.6753  -21.1445  -50.5763 C.3       23 UNK        -0.0205 
     16 S16         1.9688  -21.6224  -49.3831 S.3       23 UNK        -0.2404 
     17 C17         1.2462  -21.0887  -47.7943 C.3       23 UNK        -0.0398 
     18 CA          0.5830  -22.2291  -46.9897 C.3       11 UNK         0.1400 
     19 N           0.3600  -21.8391  -45.5977 N.am      11 UNK        -0.5000 
     20 C          -0.0707  -22.6517  -44.6237 C.2       10 UNK         0.5000 
     21 O          -0.2691  -23.8566  -44.7759 O.2       10 UNK        -0.5000 
     22 CA         -0.3922  -21.9907  -43.2705 C.3       10 UNK         0.1400 
     23 CB          0.8860  -21.7678  -42.4490 C.3       10 UNK        -0.1800 
     24 N          -1.1033  -20.7202  -43.4291 N.am      10 UNK        -0.5000 
     25 C          -2.3201  -20.5984  -43.9800 C.2       9 UNK         0.5000 
     26 O          -3.0005  -21.5550  -44.3492 O.2       9 UNK        -0.5000 
     27 CA         -2.8412  -19.1684  -44.2050 C.3       9 UNK         0.1400 
     28 CB         -3.4188  -18.5776  -42.9098 C.3       9 UNK        -0.1800 
     29 N          -1.8034  -18.2826  -44.7335 N.am      9 UNK        -0.5000 
     30 C          -1.2879  -18.3708  -45.9687 C.2       8 UNK         0.5000 
     31 O          -1.6570  -19.1930  -46.8049 O.2       8 UNK        -0.5000 
     32 CA         -0.1321  -17.4082  -46.3048 C.3       8 UNK         0.1400 
     33 CB         -0.6738  -16.0468  -46.7637 C.3       8 UNK        -0.1800 
     34 N           0.7689  -17.2092  -45.1682 N.am      8 UNK        -0.5000 
     35 C           1.5358  -18.1706  -44.6343 C.2       7 UNK         0.5000 
     36 O           1.5959  -19.3189  -45.0682 O.2       7 UNK        -0.5000 
     37 CA          2.3169  -17.7991  -43.3655 C.3       7 UNK         0.1400 
     38 CB          3.6451  -17.1224  -43.7254 C.3       7 UNK        -0.1800 
     39 N           1.5399  -16.9255  -42.4867 N.am      7 UNK        -0.5000 
     40 C           0.4595  -17.3210  -41.7975 C.2       6 UNK         0.5000 
     41 O          -0.0067  -18.4582  -41.8818 O.2       6 UNK        -0.5000 
     42 CA         -0.2466  -16.2752  -40.9084 C.3       6 UNK         0.1400 
     43 CB         -0.7772  -16.8814  -39.5934 C.3       6 UNK        -0.1800 
     44 N           0.5534  -15.0705  -40.6593 N.am      6 UNK        -0.5000 
     45 C           1.7042  -14.9637  -39.9744 C.2       5 UNK         0.5000 
     46 O           2.2291  -15.8984  -39.3689 O.2       5 UNK        -0.5000 
     47 CA          2.4176  -13.5954  -40.0037 C.3       5 UNK         0.1400 
     48 CB          3.8290  -13.7385  -40.5985 C.3       5 UNK        -0.1800 
     49 N           1.6829  -12.6052  -40.7937 N.am      5 UNK        -0.5000 
     50 C           0.7847  -11.7391  -40.3044 C.2       4 UNK         0.5000 
     51 O           0.5287  -11.6226  -39.1058 O.2       4 UNK        -0.5000 
     52 CA          0.0215  -10.8759  -41.3310 C.3       4 UNK         0.1400 
     53 CB          0.6982   -9.5058  -41.4885 C.3       4 UNK        -0.1800 
     54 N          -0.0943  -11.5045  -42.6509 N.am      4 UNK        -0.5000 
     55 C          -0.7825  -12.6254  -42.9122 C.2       3 UNK         0.5000 
     56 O          -1.4299  -13.2402  -42.0661 O.2       3 UNK        -0.5000 
     57 CA         -0.6717  -13.1967  -44.3377 C.3       3 UNK         0.1400 
     58 CB         -1.8082  -12.6713  -45.2261 C.3       3 UNK        -0.1800 
     59 N           0.6134  -12.9051  -44.9762 N.am      3 UNK        -0.5000 
     60 C           1.8046  -13.3526  -44.5627 C.2       2 UNK         0.5000 
     61 O           1.9395  -14.1314  -43.6157 O.2       2 UNK        -0.5000 
     62 CA          3.0305  -12.8199  -45.3344 C.3       2 UNK         0.1400 
     63 CB          4.3712  -13.2457  -44.7119 C.3       2 UNK        -0.1800 
     64 N           3.0196  -13.1941  -46.7519 N.am      2 UNK        -0.5000 
     65 C           2.2766  -12.6045  -47.6976 C.2       1 UNK         0.5000 
     66 O           1.4427  -11.7274  -47.4575 O.2       1 UNK        -0.5000 
     67 C          -0.7157  -22.7302  -47.6542 C.2       11 UNK         0.5000 
     68 O          -0.6958  -23.7868  -48.2801 O.2       11 UNK        -0.5000 
     69 N          -1.8281  -22.0048  -47.4723 N.am      12 UNK        -0.5000 
     70 CA         -3.1477  -22.3873  -47.9786 C.3       12 UNK         0.1400 
     71 CB         -4.1262  -21.2180  -47.8107 C.3       12 UNK        -0.1800 
     72 C          -3.7093  -23.6744  -47.3511 C.2       12 UNK         0.5000 
     73 O          -4.3929  -24.4284  -48.0422 O.2       12 UNK        -0.5000 
     74 N          -3.3983  -23.9232  -46.0729 N.am      13 UNK        -0.5000 
     75 CA         -3.7254  -25.1717  -45.3861 C.3       13 UNK         0.1400 
     76 CB         -3.5408  -24.9901  -43.8717 C.3       13 UNK        -0.1800 
     77 C          -2.8929  -26.3595  -45.9077 C.2       13 UNK         0.5000 
     78 O          -3.4346  -27.4528  -46.0751 O.2       13 UNK        -0.5000 
     79 N          -1.5970  -26.1250  -46.1539 N.am      14 UNK        -0.5000 
     80 CA         -0.6483  -27.1277  -46.6359 C.3       14 UNK         0.1400 
     81 CB          0.7823  -26.6425  -46.3531 C.3       14 UNK        -0.1800 
     82 C          -0.8147  -27.4627  -48.1299 C.2       14 UNK         0.5000 
     83 O          -0.7365  -28.6357  -48.4978 O.2       14 UNK        -0.5000 
     84 N          -1.0121  -26.4351  -48.9626 N.am      15 UNK        -0.5000 
     85 CA         -1.0126  -26.5139  -50.4182 C.3       15 UNK         0.1400 
     86 CB          0.4004  -26.1957  -50.9421 C.3       15 UNK        -0.1800 
     87 C          -2.0808  -25.5680  -50.9851 C.2       15 UNK         0.5000 
     88 O          -1.7583  -24.5357  -51.5782 O.2       15 UNK        -0.5000 
     89 N          -3.3523  -25.9533  -50.8178 N.am      16 UNK        -0.5000 
     90 CA         -4.5219  -25.2268  -51.3255 C.3       16 UNK         0.1400 
     91 CB         -5.8010  -25.9520  -50.8817 C.3       16 UNK        -0.1800 
     92 C          -4.5181  -25.0390  -52.8565 C.2       16 UNK         0.5000 
     93 O          -4.9920  -24.0140  -53.3451 O.2       16 UNK        -0.5000 
     94 N          -3.9441  -26.0093  -53.5816 N.am      17 UNK        -0.5000 
     95 CA         -3.7607  -25.9702  -55.0333 C.3       17 UNK         0.1400 
     96 CB         -3.3361  -27.3634  -55.5217 C.3       17 UNK        -0.1800 
     97 C          -2.7455  -24.9051  -55.4941 C.2       17 UNK         0.5000 
     98 O          -2.8964  -24.3683  -56.5919 O.2       17 UNK        -0.5000 
     99 N          -1.7412  -24.6116  -54.6547 N.am      18 UNK        -0.5000 
    100 CA        -0.7580  -23.5534  -54.8933 C.3       18 UNK         0.1400 
    101 CB         0.5220  -23.8447  -54.0935 C.3       18 UNK        -0.1800 
    102 C         -1.3248  -22.1711  -54.5281 C.2       18 UNK         0.5000 
    103 O         -1.0313  -21.1926  -55.2152 O.2       18 UNK        -0.5000 
    104 N         -2.1335  -22.1256  -53.4609 N.am      19 UNK        -0.5000 
    105 CA        -2.8335  -20.9338  -52.9857 C.3       19 UNK         0.1400 
    106 CB        -3.4526  -21.2487  -51.6197 C.3       19 UNK        -0.1800 
    107 C         -3.9146  -20.4518  -53.9673 C.2       19 UNK         0.5000 
    108 O         -3.9977  -19.2550  -54.2441 O.2       19 UNK        -0.5000 
    109 N         -4.7136  -21.3997  -54.4797 N.am      20 UNK        -0.5000 
    110 CA        -5.8336  -21.2100  -55.4005 C.3       20 UNK         0.1400 
    111 CB        -5.3265  -20.7863  -56.7969 C.3       20 UNK        -0.1800 
    112 C         -6.8957  -20.2685  -54.7983 C.2       20 UNK         0.5000 
    113 O         -7.6294  -20.6895  -53.9024 O.2       20 UNK        -0.5000 
    114 N         -6.9416  -19.0144  -55.2681 N.am      21 UNK        -0.5000 
    115 CA        -7.8830  -17.9727  -54.8497 C.3       21 UNK         0.1400 
    116 CB        -7.6362  -16.7109  -55.6907 C.3       21 UNK        -0.1800 
    117 C         -7.8451  -17.6333  -53.3456 C.2       21 UNK         0.5000 
    118 O         -8.8855  -17.2747  -52.7919 O.2       21 UNK        -0.5000 
    119 N         -6.6715  -17.7666  -52.7130 N.am      22 UNK        -0.5000 
    120 CA        -6.4852  -17.6159  -51.2591 C.3       22 UNK         0.1400 
    121 C         -6.4932  -18.9623  -50.4765 C.2       22 UNK         0.5000 
    122 N         -6.7934  -20.0992  -51.0954 N.am      22 UNK        -0.7600 
    123 O         -6.2525  -18.9745  -49.2733 O.2       22 UNK        -0.5000 
    124 C124       -5.2763  -16.7060  -50.9131 C.3       23 UNK        -0.0398 
    125 S125       -3.6609  -17.3147  -51.5051 S.3       23 UNK        -0.2404 
    126 C126       -2.7385  -17.4705  -49.9451 C.3       23 UNK        -0.0205 
    127 H127        5.5927  -10.4361  -49.5533 H         1 UNK         0.0600 
    128 H128        5.1982  -12.1138  -49.2204 H         1 UNK         0.0600 
    129 H129        4.5794  -10.8271  -48.1680 H         1 UNK         0.0600 
    130 H130        1.7922  -11.7589  -50.6376 H         1 UNK         0.3000 
    131 H131        3.4571  -13.5926  -49.2087 H         1 UNK         0.0600 
    132 H132        0.4131  -13.5676  -49.5184 H         1 UNK         0.0800 
    133 H133        1.3715  -14.9093  -48.9484 H         1 UNK         0.0800 
    134 H134        2.8701  -16.3944  -50.3387 H         1 UNK         0.0800 
    135 H135        2.5929  -16.6489  -52.0424 H         1 UNK         0.0800 
    136 H136       -0.6116  -15.9035  -50.5071 H         1 UNK         0.1150 
    137 H137       -1.7097  -19.9835  -49.9424 H         1 UNK         0.1150 
    138 H138        2.3049  -19.0117  -51.0650 H         1 UNK         0.1150 
    139 H139       -0.2120  -21.7565  -50.4068 H         1 UNK         0.0800 
    140 H140        1.0186  -21.3904  -51.5820 H         1 UNK         0.0800 
    141 H141        0.5571  -20.2569  -47.9359 H         1 UNK         0.0800 
    142 H142        2.0776  -20.6807  -47.2193 H         1 UNK         0.0800 
    143 H143        1.2798  -23.0698  -46.9663 H         1 UNK         0.0600 
    144 H144        0.5608  -20.8697  -45.3668 H         1 UNK         0.3000 
    145 H145       -1.0411  -22.6699  -42.7138 H         1 UNK         0.0600 
    146 H146        0.6562  -21.3488  -41.4691 H         1 UNK         0.0600 
    147 H147        1.5745  -21.0868  -42.9494 H         1 UNK         0.0600 
    148 H148        1.4138  -22.7083  -42.2865 H         1 UNK         0.0600 
    149 H149       -0.6298  -19.8869  -43.0936 H         1 UNK         0.3000 
    150 H150       -3.6475  -19.2202  -44.9400 H         1 UNK         0.0600 
    151 H151       -4.2250  -19.2032  -42.5248 H         1 UNK         0.0600 
    152 H152       -3.8329  -17.5836  -43.0799 H         1 UNK         0.0600 
    153 H153       -2.6661  -18.4978  -42.1256 H         1 UNK         0.0600 
    154 H154       -1.4136  -17.6082  -44.0942 H         1 UNK         0.3000 
    155 H155        0.4463  -17.8415  -47.1238 H         1 UNK         0.0600 
    156 H156       -1.1850  -16.1384  -47.7203 H         1 UNK         0.0600 
    157 H157        0.1265  -15.3184  -46.8922 H         1 UNK         0.0600 
    158 H158       -1.3919  -15.6381  -46.0534 H         1 UNK         0.0600 
    159 H159        0.7906  -16.2930  -44.7449 H         1 UNK         0.3000 
    160 H160        2.5392  -18.7193  -42.8211 H         1 UNK         0.0600 
    161 H161        3.4837  -16.2413  -44.3437 H         1 UNK         0.0600 
    162 H162        4.2877  -17.8017  -44.2866 H         1 UNK         0.0600 
    163 H163        4.1914  -16.8154  -42.8334 H         1 UNK         0.0600 
    164 H164        1.8285  -15.9559  -42.4357 H         1 UNK         0.3000 
    165 H165       -1.1125  -15.9418  -41.4814 H         1 UNK         0.0600 
    166 H166       -1.2745  -16.1269  -38.9840 H         1 UNK         0.0600 
    167 H167       -1.5064  -17.6678  -39.7920 H         1 UNK         0.0600 
    168 H168        0.0210  -17.3239  -38.9973 H         1 UNK         0.0600 
    169 H169        0.1921  -14.2326  -41.0978 H         1 UNK         0.3000 
    170 H170        2.5151  -13.2513  -38.9721 H         1 UNK         0.0600 
    171 H171        3.8021  -14.1642  -41.6019 H         1 UNK         0.0600 
    172 H172        4.3354  -12.7748  -40.6545 H         1 UNK         0.0600 
    173 H173        4.4479  -14.3934  -39.9840 H         1 UNK         0.0600 
    174 H174        1.8128  -12.6564  -41.7948 H         1 UNK         0.3000 
    175 H175       -0.9870  -10.7184  -40.9430 H         1 UNK         0.0600 
    176 H176        1.7064   -9.5987  -41.8944 H         1 UNK         0.0600 
    177 H177        0.1264   -8.8569  -42.1522 H         1 UNK         0.0600 
    178 H178        0.7771   -8.9962  -40.5272 H         1 UNK         0.0600 
    179 H179        0.4062  -11.0633  -43.4083 H         1 UNK         0.3000 
    180 H180       -0.7680  -14.2804  -44.2556 H         1 UNK         0.0600 
    181 H181       -1.7722  -13.1177  -46.2200 H         1 UNK         0.0600 
    182 H182       -1.7574  -11.5883  -45.3449 H         1 UNK         0.0600 
    183 H183       -2.7823  -12.9105  -44.7973 H         1 UNK         0.0600 
    184 H184        0.5993  -12.2979  -45.7909 H         1 UNK         0.3000 
    185 H185        2.9852  -11.7308  -45.2663 H         1 UNK         0.0600 
    186 H186        4.5426  -14.3171  -44.7999 H         1 UNK         0.0600 
    187 H187        5.2045  -12.7380  -45.1979 H         1 UNK         0.0600 
    188 H188        4.4142  -12.9875  -43.6534 H         1 UNK         0.0600 
    189 H189        3.6610  -13.9281  -47.0162 H         1 UNK         0.3000 
    190 H190       -1.7688  -21.1129  -46.9889 H         1 UNK         0.3000 
    191 H191       -3.0423  -22.5957  -49.0415 H         1 UNK         0.0600 
    192 H192       -4.2496  -20.9429  -46.7633 H         1 UNK         0.0600 
    193 H193       -5.1115  -21.4716  -48.2037 H         1 UNK         0.0600 
    194 H194       -3.7819  -20.3363  -48.3501 H         1 UNK         0.0600 
    195 H195       -2.9013  -23.2159  -45.5420 H         1 UNK         0.3000 
    196 H196       -4.7782  -25.3961  -45.5703 H         1 UNK         0.0600 
    197 H197       -4.1669  -24.1819  -43.4931 H         1 UNK         0.0600 
    198 H198       -2.5074  -24.7595  -43.6134 H         1 UNK         0.0600 
    199 H199       -3.8185  -25.8974  -43.3340 H         1 UNK         0.0600 
    200 H200       -1.2193  -25.2071  -45.9415 H         1 UNK         0.3000 
    201 H201       -0.8067  -28.0482  -46.0700 H         1 UNK         0.0600 
    202 H202        0.9401  -26.4831  -45.2862 H         1 UNK         0.0600 
    203 H203        0.9973  -25.7040  -46.8656 H         1 UNK         0.0600 
    204 H204        1.5180  -27.3758  -46.6856 H         1 UNK         0.0600 
    205 H205       -1.0404  -25.4871  -48.5852 H         1 UNK         0.3000 
    206 H206       -1.2764  -27.5227  -50.7420 H         1 UNK         0.0600 
    207 H207        1.1311  -26.9116  -50.5658 H         1 UNK         0.0600 
    208 H208        0.4334  -26.2401  -52.0312 H         1 UNK         0.0600 
    209 H209        0.7244  -25.1982  -50.6408 H         1 UNK         0.0600 
    210 H210       -3.5385  -26.7922  -50.2877 H         1 UNK         0.3000 
    211 H211       -4.5152  -24.2345  -50.8710 H         1 UNK         0.0600 
    212 H212       -5.8522  -26.9637  -51.2859 H         1 UNK         0.0600 
    213 H213       -6.6897  -25.4169  -51.2192 H         1 UNK         0.0600 
    214 H214       -5.8590  -26.0208  -49.7953 H         1 UNK         0.0600 
    215 H215       -3.5867  -26.8205  -53.0992 H         1 UNK         0.3000 
    216 H216       -4.7229  -25.7268  -55.4890 H         1 UNK         0.0600 
    217 H217       -3.2151  -27.3769  -56.6057 H         1 UNK         0.0600 
    218 H218       -4.0847  -28.1150  -55.2705 H         1 UNK         0.0600 
    219 H219       -2.3872  -27.6728  -55.0817 H         1 UNK         0.0600 
    220 H220       -1.7147  -25.0543  -53.7462 H         1 UNK         0.3000 
    221 H221       -0.4964  -23.5433  -55.9537 H         1 UNK         0.0600 
    222 H222        0.3463  -23.8174  -53.0180 H         1 UNK         0.0600 
    223 H223        0.9303  -24.8240  -54.3431 H         1 UNK         0.0600 
    224 H224        1.2925  -23.1050  -54.3142 H         1 UNK         0.0600 
    225 H225       -2.2686  -22.9763  -52.9276 H         1 UNK         0.3000 
    226 H226       -2.0990  -20.1355  -52.8601 H         1 UNK         0.0600 
    227 H227       -2.7078  -21.6999  -50.9697 H         1 UNK         0.0600 
    228 H228       -3.8182  -20.3434  -51.1357 H         1 UNK         0.0600 
    229 H229       -4.2909  -21.9407  -51.6956 H         1 UNK         0.0600 
    230 H230       -4.6155  -22.3472  -54.1221 H         1 UNK         0.3000 
    231 H231       -6.3120  -22.1847  -55.5068 H         1 UNK         0.0600 
    232 H232       -6.1557  -20.6661  -57.4952 H         1 UNK         0.0600 
    233 H233       -4.6647  -21.5468  -57.2121 H         1 UNK         0.0600 
    234 H234       -4.7710  -19.8485  -56.7747 H         1 UNK         0.0600 
    235 H235       -6.2595  -18.7477  -55.9632 H         1 UNK         0.3000 
    236 H236       -8.8877  -18.3379  -55.0721 H         1 UNK         0.0600 
    237 H237       -6.6292  -16.3196  -55.5404 H         1 UNK         0.0600 
    238 H238       -7.7639  -16.9130  -56.7543 H         1 UNK         0.0600 
    239 H239       -8.3389  -15.9198  -55.4252 H         1 UNK         0.0600 
    240 H240       -5.8619  -18.0806  -53.2337 H         1 UNK         0.3000 
    241 H241       -7.3535  -17.0904  -50.8585 H         1 UNK         0.0600 
    242 H242       -6.8154  -20.9511  -50.5603 H         1 UNK         0.3800 
    243 H243       -7.0552  -20.1199  -52.0747 H         1 UNK         0.3800 
    244 H244       -5.4342  -15.7217  -51.3552 H         1 UNK         0.0800 
    245 H245       -5.2328  -16.5318  -49.8368 H         1 UNK         0.0800 
    246 H246       -3.2363  -18.1894  -49.2927 H         1 UNK         0.0800 
    247 H247       -2.7521  -16.5133  -49.4232 H         1 UNK         0.0800 
@<TRIPOS>BOND
     1    1    2 1    
     2    1  127 1    
     3    1  128 1    
     4    1  129 1    
     5    2    3 2    
     6    2    4 am   BACKBONE|DICT|INTERRES
     7    4    5 1    
     8    4  130 1    
     9    5    6 1    
    10    5   65 1    
    11    5  131 1    
    12    6    7 1    
    13    6  132 1    
    14    6  133 1    
    15    7    8 1    
    16    8    9 1    
    17    8  134 1    
    18    8  135 1    
    19    9   10 ar   
    20    9   14 ar   
    21   10   11 ar   
    22   10  136 1    
    23   11   12 ar   
    24   11  126 1    
    25   12   13 ar   
    26   12  137 1    
    27   13   14 ar   
    28   13   15 1    
    29   14  138 1    
    30   15   16 1    
    31   15  139 1    
    32   15  140 1    
    33   16   17 1    
    34   17   18 1    
    35   17  141 1    
    36   17  142 1    
    37   18   19 1    
    38   18   67 1    
    39   18  143 1    
    40   19   20 am   BACKBONE|DICT|INTERRES
    41   19  144 1    
    42   20   21 2    
    43   20   22 1    
    44   22   23 1    
    45   22   24 1    
    46   22  145 1    
    47   23  146 1    
    48   23  147 1    
    49   23  148 1    
    50   24   25 am   BACKBONE|DICT|INTERRES
    51   24  149 1    
    52   25   26 2    
    53   25   27 1    
    54   27   28 1    
    55   27   29 1    
    56   27  150 1    
    57   28  151 1    
    58   28  152 1    
    59   28  153 1    
    60   29   30 am   BACKBONE|DICT|INTERRES
    61   29  154 1    
    62   30   31 2    
    63   30   32 1    
    64   32   33 1    
    65   32   34 1    
    66   32  155 1    
    67   33  156 1    
    68   33  157 1    
    69   33  158 1    
    70   34   35 am   BACKBONE|DICT|INTERRES
    71   34  159 1    
    72   35   36 2    
    73   35   37 1    
    74   37   38 1    
    75   37   39 1    
    76   37  160 1    
    77   38  161 1    
    78   38  162 1    
    79   38  163 1    
    80   39   40 am   BACKBONE|DICT|INTERRES
    81   39  164 1    
    82   40   41 2    
    83   40   42 1    
    84   42   43 1    
    85   42   44 1    
    86   42  165 1    
    87   43  166 1    
    88   43  167 1    
    89   43  168 1    
    90   44   45 am   BACKBONE|DICT|INTERRES
    91   44  169 1    
    92   45   46 2    
    93   45   47 1    
    94   47   48 1    
    95   47   49 1    
    96   47  170 1    
    97   48  171 1    
    98   48  172 1    
    99   48  173 1    
   100   49   50 am   BACKBONE|DICT|INTERRES
   101   49  174 1    
   102   50   51 2    
   103   50   52 1    
   104   52   53 1    
   105   52   54 1    
   106   52  175 1    
   107   53  176 1    
   108   53  177 1    
   109   53  178 1    
   110   54   55 am   BACKBONE|DICT|INTERRES
   111   54  179 1    
   112   55   56 2    
   113   55   57 1    
   114   57   58 1    
   115   57   59 1    
   116   57  180 1    
   117   58  181 1    
   118   58  182 1    
   119   58  183 1    
   120   59   60 am   BACKBONE|DICT|INTERRES
   121   59  184 1    
   122   60   61 2    
   123   60   62 1    
   124   62   63 1    
   125   62   64 1    
   126   62  185 1    
   127   63  186 1    
   128   63  187 1    
   129   63  188 1    
   130   64   65 am   BACKBONE|DICT|INTERRES
   131   64  189 1    
   132   65   66 2    
   133   67   68 2    
   134   67   69 am   BACKBONE|DICT|INTERRES
   135   69   70 1    
   136   69  190 1    
   137   70   71 1    
   138   70   72 1    
   139   70  191 1    
   140   71  192 1    
   141   71  193 1    
   142   71  194 1    
   143   72   73 2    
   144   72   74 am   BACKBONE|DICT|INTERRES
   145   74   75 1    
   146   74  195 1    
   147   75   76 1    
   148   75   77 1    
   149   75  196 1    
   150   76  197 1    
   151   76  198 1    
   152   76  199 1    
   153   77   78 2    
   154   77   79 am   BACKBONE|DICT|INTERRES
   155   79   80 1    
   156   79  200 1    
   157   80   81 1    
   158   80   82 1    
   159   80  201 1    
   160   81  202 1    
   161   81  203 1    
   162   81  204 1    
   163   82   83 2    
   164   82   84 am   BACKBONE|DICT|INTERRES
   165   84   85 1    
   166   84  205 1    
   167   85   86 1    
   168   85   87 1    
   169   85  206 1    
   170   86  207 1    
   171   86  208 1    
   172   86  209 1    
   173   87   88 2    
   174   87   89 am   BACKBONE|DICT|INTERRES
   175   89   90 1    
   176   89  210 1    
   177   90   91 1    
   178   90   92 1    
   179   90  211 1    
   180   91  212 1    
   181   91  213 1    
   182   91  214 1    
   183   92   93 2    
   184   92   94 am   BACKBONE|DICT|INTERRES
   185   94   95 1    
   186   94  215 1    
   187   95   96 1    
   188   95   97 1    
   189   95  216 1    
   190   96  217 1    
   191   96  218 1    
   192   96  219 1    
   193   97   98 2    
   194   97   99 am   BACKBONE|DICT|INTERRES
   195   99  100 1    
   196   99  220 1    
   197  100  101 1    
   198  100  102 1    
   199  100  221 1    
   200  101  222 1    
   201  101  223 1    
   202  101  224 1    
   203  102  103 2    
   204  102  104 am   BACKBONE|DICT|INTERRES
   205  104  105 1    
   206  104  225 1    
   207  105  106 1    
   208  105  107 1    
   209  105  226 1    
   210  106  227 1    
   211  106  228 1    
   212  106  229 1    
   213  107  108 2    
   214  107  109 am   BACKBONE|DICT|INTERRES
   215  109  110 1    
   216  109  230 1    
   217  110  111 1    
   218  110  112 1    
   219  110  231 1    
   220  111  232 1    
   221  111  233 1    
   222  111  234 1    
   223  112  113 2    
   224  112  114 am   BACKBONE|DICT|INTERRES
   225  114  115 1    
   226  114  235 1    
   227  115  116 1    
   228  115  117 1    
   229  115  236 1    
   230  116  237 1    
   231  116  238 1    
   232  116  239 1    
   233  117  118 2    
   234  117  119 am   BACKBONE|DICT|INTERRES
   235  119  120 1    
   236  119  240 1    
   237  120  121 1    
   238  120  124 1    
   239  120  241 1    
   240  121  122 am   BACKBONE|DICT|INTERRES
   241  121  123 2    
   242  122  242 1    
   243  122  243 1    
   244  124  125 1    
   245  124  244 1    
   246  124  245 1    
   247  125  126 1    
   248  126  246 1    
   249  126  247 1    
@<TRIPOS>SUBSTRUCTURE
     1 UNK         1 GROUP             0       ****    0 ROOT    
