@<TRIPOS>MOLECULE
3R540
247   249    1
SMALL
USER_CHARGES


@<TRIPOS>ATOM
      1 CA         -1.9236  -12.6741  -50.3243 C.3       0 UNK        -0.1800 
      2 C          -0.6218  -12.1456  -49.7390 C.2       0 UNK         0.5000 
      3 O          -0.3899  -10.9360  -49.7425 O.2       0 UNK        -0.5000 
      4 N           0.2241  -13.0431  -49.2197 N.am      1 UNK        -0.5000 
      5 CA          1.5356  -12.7479  -48.6284 C.3       1 UNK         0.1400 
      6 C6          2.5169  -13.9435  -48.7609 C.3       23 UNK        -0.0398 
      7 S7          2.8272  -14.3946  -50.5048 S.3       23 UNK        -0.2404 
      8 C8          3.2324  -16.1739  -50.3743 C.3       23 UNK        -0.0205 
      9 C9          2.0496  -17.1431  -50.2792 C.ar      23 UNK        -0.0193 
     10 C10         0.7396  -16.7284  -50.0041 C.ar      23 UNK        -0.1150 
     11 C11        -0.2996  -17.6554  -49.8946 C.ar      23 UNK        -0.0193 
     12 C12        -0.0264  -19.0138  -50.0676 C.ar      23 UNK        -0.1150 
     13 C13         1.2675  -19.4470  -50.3612 C.ar      23 UNK        -0.0193 
     14 C14         2.2981  -18.5084  -50.4626 C.ar      23 UNK        -0.1150 
     15 C15         1.5421  -20.9305  -50.5659 C.3       23 UNK        -0.0205 
     16 S16         2.5243  -21.6745  -49.2256 S.3       23 UNK        -0.2404 
     17 C17         1.5757  -21.2184  -47.7372 C.3       23 UNK        -0.0398 
     18 CA          0.6354  -22.3244  -47.2072 C.3       11 UNK         0.1400 
     19 N           0.3249  -22.0917  -45.7970 N.am      11 UNK        -0.5000 
     20 C          -0.2988  -22.9469  -44.9799 C.2       10 UNK         0.5000 
     21 O          -0.6532  -24.0756  -45.3160 O.2       10 UNK        -0.5000 
     22 CA         -0.6194  -22.4308  -43.5641 C.3       10 UNK         0.1400 
     23 CB          0.5990  -22.5641  -42.6386 C.3       10 UNK        -0.1800 
     24 N          -1.0821  -21.0408  -43.5708 N.am      10 UNK        -0.5000 
     25 C          -2.2360  -20.6382  -44.1224 C.2       9 UNK         0.5000 
     26 O          -3.0499  -21.4068  -44.6345 O.2       9 UNK        -0.5000 
     27 CA         -2.5064  -19.1224  -44.1478 C.3       9 UNK         0.1400 
     28 CB         -3.0311  -18.6398  -42.7875 C.3       9 UNK        -0.1800 
     29 N          -1.3296  -18.3387  -44.5271 N.am      9 UNK        -0.5000 
     30 C          -0.7088  -18.4235  -45.7124 C.2       8 UNK         0.5000 
     31 O          -1.0880  -19.1496  -46.6278 O.2       8 UNK        -0.5000 
     32 CA          0.5860  -17.6105  -45.8868 C.3       8 UNK         0.1400 
     33 CB          0.2709  -16.1417  -46.2035 C.3       8 UNK        -0.1800 
     34 N           1.4549  -17.6860  -44.7120 N.am      8 UNK        -0.5000 
     35 C           1.9775  -18.8152  -44.2128 C.2       7 UNK         0.5000 
     36 O           1.8110  -19.9258  -44.7121 O.2       7 UNK        -0.5000 
     37 CA          2.7727  -18.6929  -42.9045 C.3       7 UNK         0.1400 
     38 CB          4.2182  -18.2499  -43.1760 C.3       7 UNK        -0.1800 
     39 N           2.1287  -17.7619  -41.9802 N.am      7 UNK        -0.5000 
     40 C           1.0054  -18.0344  -41.3020 C.2       6 UNK         0.5000 
     41 O           0.4299  -19.1229  -41.3411 O.2       6 UNK        -0.5000 
     42 CA          0.4080  -16.8837  -40.4699 C.3       6 UNK         0.1400 
     43 CB          1.0871  -16.7994  -39.0948 C.3       6 UNK        -0.1800 
     44 N           0.5085  -15.5856  -41.1419 N.am      6 UNK        -0.5000 
     45 C          -0.1613  -15.2645  -42.2574 C.2       5 UNK         0.5000 
     46 O          -0.9506  -16.0237  -42.8182 O.2       5 UNK        -0.5000 
     47 CA          0.1176  -13.8788  -42.8719 C.3       5 UNK         0.1400 
     48 CB         -0.7938  -12.8230  -42.2285 C.3       5 UNK        -0.1800 
     49 N           1.5123  -13.4283  -42.7957 N.am      5 UNK        -0.5000 
     50 C           2.5844  -14.1129  -43.2230 C.2       4 UNK         0.5000 
     51 O           2.5352  -15.2727  -43.6322 O.2       4 UNK        -0.5000 
     52 CA          3.9177  -13.3496  -43.2235 C.3       4 UNK         0.1400 
     53 CB          5.0873  -14.1653  -43.8047 C.3       4 UNK        -0.1800 
     54 N           3.7394  -12.1303  -44.0021 N.am      4 UNK        -0.5000 
     55 C           4.2257  -10.9232  -43.6879 C.2       3 UNK         0.5000 
     56 O           4.9625  -10.7142  -42.7234 O.2       3 UNK        -0.5000 
     57 CA          3.8071   -9.7400  -44.5886 C.3       3 UNK         0.1400 
     58 CB          4.9235   -9.4082  -45.5905 C.3       3 UNK        -0.1800 
     59 N           2.5642   -9.9760  -45.3282 N.am      3 UNK        -0.5000 
     60 C           1.3577  -10.1592  -44.7739 C.2       2 UNK         0.5000 
     61 O           1.1400  -10.0403  -43.5679 O.2       2 UNK        -0.5000 
     62 CA          0.2081  -10.5881  -45.7085 C.3       2 UNK         0.1400 
     63 CB         -0.7303   -9.4041  -45.9852 C.3       2 UNK        -0.1800 
     64 N           0.6247  -11.1689  -46.9901 N.am      2 UNK        -0.5000 
     65 C           1.3685  -12.2699  -47.1681 C.2       1 UNK         0.5000 
     66 O           1.8889  -12.8920  -46.2415 O.2       1 UNK        -0.5000 
     67 C          -0.6466  -22.4775  -48.0585 C.2       11 UNK         0.5000 
     68 O          -0.7259  -23.3914  -48.8786 O.2       11 UNK        -0.5000 
     69 N          -1.6514  -21.6232  -47.8159 N.am      12 UNK        -0.5000 
     70 CA         -2.9768  -21.6924  -48.4346 C.3       12 UNK         0.1400 
     71 CB         -3.7879  -20.4440  -48.0629 C.3       12 UNK        -0.1800 
     72 C          -3.7519  -22.9651  -48.0509 C.2       12 UNK         0.5000 
     73 O          -4.4089  -23.5525  -48.9109 O.2       12 UNK        -0.5000 
     74 N          -3.6402  -23.3803  -46.7802 N.am      13 UNK        -0.5000 
     75 CA         -4.1919  -24.6331  -46.2632 C.3       13 UNK         0.1400 
     76 CB         -4.0865  -24.6633  -44.7314 C.3       13 UNK        -0.1800 
     77 C          -3.5229  -25.8679  -46.8934 C.2       13 UNK         0.5000 
     78 O          -4.2239  -26.8056  -47.2739 O.2       13 UNK        -0.5000 
     79 N          -2.1897  -25.8270  -47.0363 N.am      14 UNK        -0.5000 
     80 CA         -1.3903  -26.8476  -47.7184 C.3       14 UNK         0.1400 
     81 CB          0.1045  -26.5628  -47.5107 C.3       14 UNK        -0.1800 
     82 C          -1.7262  -26.9684  -49.2173 C.2       14 UNK         0.5000 
     83 O          -1.7436  -28.0808  -49.7461 O.2       14 UNK        -0.5000 
     84 N          -2.0566  -25.8407  -49.8624 N.am      15 UNK        -0.5000 
     85 CA         -2.5655  -25.7430  -51.2336 C.3       15 UNK         0.1400 
     86 CB         -2.3303  -24.3119  -51.7505 C.3       15 UNK        -0.1800 
     87 C          -4.0454  -26.1795  -51.3464 C.2       15 UNK         0.5000 
     88 O          -4.8762  -25.4379  -51.8765 O.2       15 UNK        -0.5000 
     89 N          -4.3511  -27.3734  -50.8159 N.am      16 UNK        -0.5000 
     90 CA         -5.6423  -28.0755  -50.8116 C.3       16 UNK         0.1400 
     91 CB         -5.9902  -28.5310  -52.2439 C.3       16 UNK        -0.1800 
     92 C          -6.8060  -27.2957  -50.1581 C.2       16 UNK         0.5000 
     93 O          -7.9681  -27.6059  -50.4247 O.2       16 UNK        -0.5000 
     94 N          -6.4775  -26.2778  -49.3479 N.am      17 UNK        -0.5000 
     95 CA         -7.3704  -25.2592  -48.7830 C.3       17 UNK         0.1400 
     96 CB         -8.3487  -25.8830  -47.7670 C.3       17 UNK        -0.1800 
     97 C          -8.0801  -24.3941  -49.8499 C.2       17 UNK         0.5000 
     98 O          -9.0744  -23.7368  -49.5374 O.2       17 UNK        -0.5000 
     99 N          -7.5614  -24.3976  -51.0862 N.am      18 UNK        -0.5000 
    100 CA        -8.1140  -23.6642  -52.2227 C.3       18 UNK         0.1400 
    101 CB        -7.7879  -24.4330  -53.5132 C.3       18 UNK        -0.1800 
    102 C         -7.5707  -22.2289  -52.3057 C.2       18 UNK         0.5000 
    103 O         -8.2162  -21.3804  -52.9215 O.2       18 UNK        -0.5000 
    104 N         -6.3893  -21.9930  -51.7102 N.am      19 UNK        -0.5000 
    105 CA        -5.6405  -20.7286  -51.6938 C.3       19 UNK         0.1400 
    106 CB        -6.4221  -19.6393  -50.9303 C.3       19 UNK        -0.1800 
    107 C         -5.1818  -20.2572  -53.0934 C.2       19 UNK         0.5000 
    108 O         -4.8765  -19.0791  -53.2782 O.2       19 UNK        -0.5000 
    109 N         -5.1090  -21.1867  -54.0577 N.am      20 UNK        -0.5000 
    110 CA        -4.6950  -20.9298  -55.4405 C.3       20 UNK         0.1400 
    111 CB        -5.0005  -22.1727  -56.2899 C.3       20 UNK        -0.1800 
    112 C         -3.2089  -20.5420  -55.5605 C.2       20 UNK         0.5000 
    113 O         -2.8368  -19.8009  -56.4711 O.2       20 UNK        -0.5000 
    114 N         -2.3951  -21.0284  -54.6145 N.am      21 UNK        -0.5000 
    115 CA        -0.9648  -20.7511  -54.4977 C.3       21 UNK         0.1400 
    116 CB        -0.3584  -21.7561  -53.5093 C.3       21 UNK        -0.1800 
    117 C         -0.6357  -19.3032  -54.0777 C.2       21 UNK         0.5000 
    118 O          0.5122  -18.8873  -54.2381 O.2       21 UNK        -0.5000 
    119 N         -1.6277  -18.5606  -53.5646 N.am      22 UNK        -0.5000 
    120 CA        -1.4915  -17.1471  -53.1742 C.3       22 UNK         0.1400 
    121 C         -1.3647  -16.1565  -54.3703 C.2       22 UNK         0.5000 
    122 N         -1.6279  -16.5628  -55.6076 N.am      22 UNK        -0.7600 
    123 O         -1.0203  -14.9950  -54.1712 O.2       22 UNK        -0.5000 
    124 C124       -2.6202  -16.6803  -52.2156 C.3       23 UNK        -0.0398 
    125 S125       -2.9267  -17.7850  -50.7950 S.3       23 UNK        -0.2404 
    126 C126       -1.7138  -17.1929  -49.5745 C.3       23 UNK        -0.0205 
    127 H127       -2.7743  -12.1762  -49.8591 H         1 UNK         0.0600 
    128 H128       -1.9576  -12.4809  -51.3965 H         1 UNK         0.0600 
    129 H129       -2.0326  -13.7471  -50.1687 H         1 UNK         0.0600 
    130 H130       -0.0425  -14.0143  -49.2120 H         1 UNK         0.3000 
    131 H131        1.9798  -11.9122  -49.1737 H         1 UNK         0.0600 
    132 H132        3.4790  -13.6996  -48.3068 H         1 UNK         0.0800 
    133 H133        2.1398  -14.8140  -48.2243 H         1 UNK         0.0800 
    134 H134        3.8201  -16.4360  -51.2553 H         1 UNK         0.0800 
    135 H135        3.8868  -16.3284  -49.5152 H         1 UNK         0.0800 
    136 H136        0.5163  -15.6841  -49.8709 H         1 UNK         0.1150 
    137 H137       -0.8285  -19.7326  -49.9764 H         1 UNK         0.1150 
    138 H138        3.3018  -18.8471  -50.6783 H         1 UNK         0.1150 
    139 H139        0.6089  -21.4864  -50.6586 H         1 UNK         0.0800 
    140 H140        2.0765  -21.0666  -51.5066 H         1 UNK         0.0800 
    141 H141        1.0427  -20.2786  -47.8697 H         1 UNK         0.0800 
    142 H142        2.3357  -21.0059  -46.9854 H         1 UNK         0.0800 
    143 H143        1.1715  -23.2746  -47.2542 H         1 UNK         0.0600 
    144 H144        0.6352  -21.2027  -45.4126 H         1 UNK         0.3000 
    145 H145       -1.4215  -23.0506  -43.1584 H         1 UNK         0.0600 
    146 H146        0.3582  -22.2486  -41.6232 H         1 UNK         0.0600 
    147 H147        0.9372  -23.5997  -42.5871 H         1 UNK         0.0600 
    148 H148        1.4392  -21.9615  -42.9839 H         1 UNK         0.0600 
    149 H149       -0.4673  -20.3493  -43.1610 H         1 UNK         0.3000 
    150 H150       -3.2812  -18.9382  -44.8948 H         1 UNK         0.0600 
    151 H151       -3.9111  -19.2079  -42.4832 H         1 UNK         0.0600 
    152 H152       -3.3203  -17.5895  -42.8281 H         1 UNK         0.0600 
    153 H153       -2.2805  -18.7489  -42.0041 H         1 UNK         0.0600 
    154 H154       -0.9908  -17.6670  -43.8441 H         1 UNK         0.3000 
    155 H155        1.1386  -18.0289  -46.7305 H         1 UNK         0.0600 
    156 H156       -0.2140  -16.0479  -47.1748 H         1 UNK         0.0600 
    157 H157        1.1791  -15.5408  -46.2272 H         1 UNK         0.0600 
    158 H158       -0.3971  -15.7028  -45.4638 H         1 UNK         0.0600 
    159 H159        1.6904  -16.8065  -44.2579 H         1 UNK         0.3000 
    160 H160        2.8050  -19.6790  -42.4359 H         1 UNK         0.0600 
    161 H161        4.7862  -18.1637  -42.2497 H         1 UNK         0.0600 
    162 H162        4.2602  -17.2884  -43.6873 H         1 UNK         0.0600 
    163 H163        4.7324  -18.9758  -43.8070 H         1 UNK         0.0600 
    164 H164        2.4875  -16.8171  -41.9697 H         1 UNK         0.3000 
    165 H165       -0.6503  -17.1039  -40.3136 H         1 UNK         0.0600 
    166 H166        0.6170  -16.0406  -38.4689 H         1 UNK         0.0600 
    167 H167        1.0118  -17.7494  -38.5640 H         1 UNK         0.0600 
    168 H168        2.1465  -16.5547  -39.1816 H         1 UNK         0.0600 
    169 H169        1.1417  -14.9071  -40.7452 H         1 UNK         0.3000 
    170 H170       -0.1349  -13.9370  -43.9318 H         1 UNK         0.0600 
    171 H171       -1.8408  -13.1248  -42.2814 H         1 UNK         0.0600 
    172 H172       -0.5492  -12.6681  -41.1770 H         1 UNK         0.0600 
    173 H173       -0.7112  -11.8626  -42.7359 H         1 UNK         0.0600 
    174 H174        1.6511  -12.4727  -42.4978 H         1 UNK         0.3000 
    175 H175        4.1444  -13.1067  -42.1835 H         1 UNK         0.0600 
    176 H176        6.0129  -13.5899  -43.7928 H         1 UNK         0.0600 
    177 H177        5.2604  -15.0698  -43.2210 H         1 UNK         0.0600 
    178 H178        4.8932  -14.4666  -44.8350 H         1 UNK         0.0600 
    179 H179        3.1199  -12.2220  -44.8030 H         1 UNK         0.3000 
    180 H180        3.6547   -8.8734  -43.9420 H         1 UNK         0.0600 
    181 H181        5.1065  -10.2360  -46.2769 H         1 UNK         0.0600 
    182 H182        5.8612   -9.1961  -45.0750 H         1 UNK         0.0600 
    183 H183        4.6741   -8.5278  -46.1831 H         1 UNK         0.0600 
    184 H184        2.6469  -10.0894  -46.3274 H         1 UNK         0.3000 
    185 H185       -0.3596  -11.3556  -45.1793 H         1 UNK         0.0600 
    186 H186       -1.6032   -9.7178  -46.5581 H         1 UNK         0.0600 
    187 H187       -1.0945   -8.9656  -45.0551 H         1 UNK         0.0600 
    188 H188       -0.2261   -8.6159  -46.5456 H         1 UNK         0.0600 
    189 H189        0.2302  -10.7460  -47.8245 H         1 UNK         0.3000 
    190 H190       -1.4914  -20.8461  -47.1777 H         1 UNK         0.3000 
    191 H191       -2.8378  -21.6984  -49.5173 H         1 UNK         0.0600 
    192 H192       -3.9345  -20.3628  -46.9860 H         1 UNK         0.0600 
    193 H193       -4.7737  -20.4636  -48.5273 H         1 UNK         0.0600 
    194 H194       -3.2882  -19.5375  -48.3979 H         1 UNK         0.0600 
    195 H195       -3.1377  -22.7964  -46.1196 H         1 UNK         0.3000 
    196 H196       -5.2516  -24.6622  -46.5172 H         1 UNK         0.0600 
    197 H197       -3.0516  -24.6346  -44.3929 H         1 UNK         0.0600 
    198 H198       -4.5369  -25.5713  -44.3289 H         1 UNK         0.0600 
    199 H199       -4.6072  -23.8162  -44.2845 H         1 UNK         0.0600 
    200 H200       -1.6807  -25.0440  -46.6354 H         1 UNK         0.3000 
    201 H201       -1.6180  -27.8086  -47.2526 H         1 UNK         0.0600 
    202 H202        0.4007  -25.6114  -47.9514 H         1 UNK         0.0600 
    203 H203        0.7165  -27.3403  -47.9693 H         1 UNK         0.0600 
    204 H204        0.3568  -26.5329  -46.4505 H         1 UNK         0.0600 
    205 H205       -1.9618  -24.9643  -49.3604 H         1 UNK         0.3000 
    206 H206       -1.9858  -26.4200  -51.8641 H         1 UNK         0.0600 
    207 H207       -1.2775  -24.0387  -51.6780 H         1 UNK         0.0600 
    208 H208       -2.6199  -24.2199  -52.7979 H         1 UNK         0.0600 
    209 H209       -2.9043  -23.5789  -51.1841 H         1 UNK         0.0600 
    210 H210       -3.5836  -27.8765  -50.3802 H         1 UNK         0.3000 
    211 H211       -5.4995  -28.9687  -50.2022 H         1 UNK         0.0600 
    212 H212       -6.2069  -27.6825  -52.8942 H         1 UNK         0.0600 
    213 H213       -6.8661  -29.1807  -52.2505 H         1 UNK         0.0600 
    214 H214       -5.1700  -29.0939  -52.6893 H         1 UNK         0.0600 
    215 H215       -5.4918  -26.1266  -49.1758 H         1 UNK         0.3000 
    216 H216       -6.7338  -24.5678  -48.2346 H         1 UNK         0.0600 
    217 H217       -7.8167  -26.4761  -47.0230 H         1 UNK         0.0600 
    218 H218       -8.9002  -25.1108  -47.2296 H         1 UNK         0.0600 
    219 H219       -9.0815  -26.5286  -48.2513 H         1 UNK         0.0600 
    220 H220       -6.7169  -24.9343  -51.2623 H         1 UNK         0.3000 
    221 H221       -9.2004  -23.6073  -52.1269 H         1 UNK         0.0600 
    222 H222       -6.7128  -24.5060  -53.6809 H         1 UNK         0.0600 
    223 H223       -8.1897  -25.4459  -53.4797 H         1 UNK         0.0600 
    224 H224       -8.2226  -23.9389  -54.3832 H         1 UNK         0.0600 
    225 H225       -5.9494  -22.7689  -51.2326 H         1 UNK         0.3000 
    226 H226       -4.7262  -20.9283  -51.1336 H         1 UNK         0.0600 
    227 H227       -6.7555  -19.9997  -49.9574 H         1 UNK         0.0600 
    228 H228       -5.8006  -18.7613  -50.7541 H         1 UNK         0.0600 
    229 H229       -7.3009  -19.3075  -51.4834 H         1 UNK         0.0600 
    230 H230       -5.3808  -22.1317  -53.8312 H         1 UNK         0.3000 
    231 H231       -5.2870  -20.0960  -55.8237 H         1 UNK         0.0600 
    232 H232       -6.0633  -22.4150  -56.2663 H         1 UNK         0.0600 
    233 H233       -4.4490  -23.0462  -55.9397 H         1 UNK         0.0600 
    234 H234       -4.7286  -22.0089  -57.3335 H         1 UNK         0.0600 
    235 H235       -2.7980  -21.6231  -53.9066 H         1 UNK         0.3000 
    236 H236       -0.5071  -20.9156  -55.4754 H         1 UNK         0.0600 
    237 H237        0.7174  -21.6084  -53.4135 H         1 UNK         0.0600 
    238 H238       -0.8016  -21.6546  -52.5185 H         1 UNK         0.0600 
    239 H239       -0.5125  -22.7817  -53.8448 H         1 UNK         0.0600 
    240 H240       -2.5522  -18.9582  -53.4671 H         1 UNK         0.3000 
    241 H241       -0.5508  -17.0614  -52.6288 H         1 UNK         0.0600 
    242 H242       -1.5399  -15.9125  -56.3726 H         1 UNK         0.3800 
    243 H243       -1.9161  -17.5134  -55.7877 H         1 UNK         0.3800 
    244 H244       -2.4105  -15.6779  -51.8392 H         1 UNK         0.0800 
    245 H245       -3.5607  -16.6024  -52.7639 H         1 UNK         0.0800 
    246 H246       -1.9893  -17.5755  -48.5923 H         1 UNK         0.0800 
    247 H247       -1.7719  -16.1068  -49.5027 H         1 UNK         0.0800 
@<TRIPOS>BOND
     1    1    2 1    
     2    1  127 1    
     3    1  128 1    
     4    1  129 1    
     5    2    3 2    
     6    2    4 am   BACKBONE|DICT|INTERRES
     7    4    5 1    
     8    4  130 1    
     9    5    6 1    
    10    5   65 1    
    11    5  131 1    
    12    6    7 1    
    13    6  132 1    
    14    6  133 1    
    15    7    8 1    
    16    8    9 1    
    17    8  134 1    
    18    8  135 1    
    19    9   10 ar   
    20    9   14 ar   
    21   10   11 ar   
    22   10  136 1    
    23   11   12 ar   
    24   11  126 1    
    25   12   13 ar   
    26   12  137 1    
    27   13   14 ar   
    28   13   15 1    
    29   14  138 1    
    30   15   16 1    
    31   15  139 1    
    32   15  140 1    
    33   16   17 1    
    34   17   18 1    
    35   17  141 1    
    36   17  142 1    
    37   18   19 1    
    38   18   67 1    
    39   18  143 1    
    40   19   20 am   BACKBONE|DICT|INTERRES
    41   19  144 1    
    42   20   21 2    
    43   20   22 1    
    44   22   23 1    
    45   22   24 1    
    46   22  145 1    
    47   23  146 1    
    48   23  147 1    
    49   23  148 1    
    50   24   25 am   BACKBONE|DICT|INTERRES
    51   24  149 1    
    52   25   26 2    
    53   25   27 1    
    54   27   28 1    
    55   27   29 1    
    56   27  150 1    
    57   28  151 1    
    58   28  152 1    
    59   28  153 1    
    60   29   30 am   BACKBONE|DICT|INTERRES
    61   29  154 1    
    62   30   31 2    
    63   30   32 1    
    64   32   33 1    
    65   32   34 1    
    66   32  155 1    
    67   33  156 1    
    68   33  157 1    
    69   33  158 1    
    70   34   35 am   BACKBONE|DICT|INTERRES
    71   34  159 1    
    72   35   36 2    
    73   35   37 1    
    74   37   38 1    
    75   37   39 1    
    76   37  160 1    
    77   38  161 1    
    78   38  162 1    
    79   38  163 1    
    80   39   40 am   BACKBONE|DICT|INTERRES
    81   39  164 1    
    82   40   41 2    
    83   40   42 1    
    84   42   43 1    
    85   42   44 1    
    86   42  165 1    
    87   43  166 1    
    88   43  167 1    
    89   43  168 1    
    90   44   45 am   BACKBONE|DICT|INTERRES
    91   44  169 1    
    92   45   46 2    
    93   45   47 1    
    94   47   48 1    
    95   47   49 1    
    96   47  170 1    
    97   48  171 1    
    98   48  172 1    
    99   48  173 1    
   100   49   50 am   BACKBONE|DICT|INTERRES
   101   49  174 1    
   102   50   51 2    
   103   50   52 1    
   104   52   53 1    
   105   52   54 1    
   106   52  175 1    
   107   53  176 1    
   108   53  177 1    
   109   53  178 1    
   110   54   55 am   BACKBONE|DICT|INTERRES
   111   54  179 1    
   112   55   56 2    
   113   55   57 1    
   114   57   58 1    
   115   57   59 1    
   116   57  180 1    
   117   58  181 1    
   118   58  182 1    
   119   58  183 1    
   120   59   60 am   BACKBONE|DICT|INTERRES
   121   59  184 1    
   122   60   61 2    
   123   60   62 1    
   124   62   63 1    
   125   62   64 1    
   126   62  185 1    
   127   63  186 1    
   128   63  187 1    
   129   63  188 1    
   130   64   65 am   BACKBONE|DICT|INTERRES
   131   64  189 1    
   132   65   66 2    
   133   67   68 2    
   134   67   69 am   BACKBONE|DICT|INTERRES
   135   69   70 1    
   136   69  190 1    
   137   70   71 1    
   138   70   72 1    
   139   70  191 1    
   140   71  192 1    
   141   71  193 1    
   142   71  194 1    
   143   72   73 2    
   144   72   74 am   BACKBONE|DICT|INTERRES
   145   74   75 1    
   146   74  195 1    
   147   75   76 1    
   148   75   77 1    
   149   75  196 1    
   150   76  197 1    
   151   76  198 1    
   152   76  199 1    
   153   77   78 2    
   154   77   79 am   BACKBONE|DICT|INTERRES
   155   79   80 1    
   156   79  200 1    
   157   80   81 1    
   158   80   82 1    
   159   80  201 1    
   160   81  202 1    
   161   81  203 1    
   162   81  204 1    
   163   82   83 2    
   164   82   84 am   BACKBONE|DICT|INTERRES
   165   84   85 1    
   166   84  205 1    
   167   85   86 1    
   168   85   87 1    
   169   85  206 1    
   170   86  207 1    
   171   86  208 1    
   172   86  209 1    
   173   87   88 2    
   174   87   89 am   BACKBONE|DICT|INTERRES
   175   89   90 1    
   176   89  210 1    
   177   90   91 1    
   178   90   92 1    
   179   90  211 1    
   180   91  212 1    
   181   91  213 1    
   182   91  214 1    
   183   92   93 2    
   184   92   94 am   BACKBONE|DICT|INTERRES
   185   94   95 1    
   186   94  215 1    
   187   95   96 1    
   188   95   97 1    
   189   95  216 1    
   190   96  217 1    
   191   96  218 1    
   192   96  219 1    
   193   97   98 2    
   194   97   99 am   BACKBONE|DICT|INTERRES
   195   99  100 1    
   196   99  220 1    
   197  100  101 1    
   198  100  102 1    
   199  100  221 1    
   200  101  222 1    
   201  101  223 1    
   202  101  224 1    
   203  102  103 2    
   204  102  104 am   BACKBONE|DICT|INTERRES
   205  104  105 1    
   206  104  225 1    
   207  105  106 1    
   208  105  107 1    
   209  105  226 1    
   210  106  227 1    
   211  106  228 1    
   212  106  229 1    
   213  107  108 2    
   214  107  109 am   BACKBONE|DICT|INTERRES
   215  109  110 1    
   216  109  230 1    
   217  110  111 1    
   218  110  112 1    
   219  110  231 1    
   220  111  232 1    
   221  111  233 1    
   222  111  234 1    
   223  112  113 2    
   224  112  114 am   BACKBONE|DICT|INTERRES
   225  114  115 1    
   226  114  235 1    
   227  115  116 1    
   228  115  117 1    
   229  115  236 1    
   230  116  237 1    
   231  116  238 1    
   232  116  239 1    
   233  117  118 2    
   234  117  119 am   BACKBONE|DICT|INTERRES
   235  119  120 1    
   236  119  240 1    
   237  120  121 1    
   238  120  124 1    
   239  120  241 1    
   240  121  122 am   BACKBONE|DICT|INTERRES
   241  121  123 2    
   242  122  242 1    
   243  122  243 1    
   244  124  125 1    
   245  124  244 1    
   246  124  245 1    
   247  125  126 1    
   248  126  246 1    
   249  126  247 1    
@<TRIPOS>SUBSTRUCTURE
     1 UNK         1 GROUP             0       ****    0 ROOT    
