@<TRIPOS>MOLECULE
3R540
247   249    1
SMALL
USER_CHARGES


@<TRIPOS>ATOM
      1 CA         -1.7311  -10.8630  -50.5423 C.3       0 UNK        -0.1800 
      2 C          -1.2534  -11.8871  -49.5230 C.2       0 UNK         0.5000 
      3 O          -1.0664  -11.5494  -48.3539 O.2       0 UNK        -0.5000 
      4 N          -1.0584  -13.1386  -49.9601 N.am      1 UNK        -0.5000 
      5 CA         -0.5821  -14.2523  -49.1270 C.3       1 UNK         0.1400 
      6 C6         -0.1241  -15.4763  -49.9582 C.3       23 UNK        -0.0398 
      7 S7          1.0694  -15.0407  -51.2680 S.3       23 UNK        -0.2404 
      8 C8          2.5447  -16.0077  -50.7947 C.3       23 UNK        -0.0205 
      9 C9          2.4956  -17.4811  -51.1991 C.ar      23 UNK        -0.0193 
     10 C10         1.9101  -17.8890  -52.4045 C.ar      23 UNK        -0.1150 
     11 C11         1.9292  -19.2320  -52.7898 C.ar      23 UNK        -0.0193 
     12 C12         2.5508  -20.1734  -51.9663 C.ar      23 UNK        -0.1150 
     13 C13         3.1542  -19.7856  -50.7675 C.ar      23 UNK        -0.0193 
     14 C14         3.1191  -18.4378  -50.3899 C.ar      23 UNK        -0.1150 
     15 C15         3.8891  -20.8261  -49.9260 C.3       23 UNK        -0.0205 
     16 S16         3.4457  -20.7967  -48.1591 S.3       23 UNK        -0.2404 
     17 C17         1.6623  -21.1773  -48.2081 C.3       23 UNK        -0.0398 
     18 CA          1.2840  -22.5476  -47.5797 C.3       11 UNK         0.1400 
     19 N           1.8334  -22.7931  -46.2335 N.am      11 UNK        -0.5000 
     20 C           1.6995  -22.0162  -45.1520 C.2       10 UNK         0.5000 
     21 O           1.0738  -20.9566  -45.1554 O.2       10 UNK        -0.5000 
     22 CA          2.3496  -22.5041  -43.8527 C.3       10 UNK         0.1400 
     23 CB          3.8530  -22.1815  -43.8322 C.3       10 UNK        -0.1800 
     24 N           1.6968  -21.8306  -42.7364 N.am      10 UNK        -0.5000 
     25 C           1.5069  -22.3326  -41.5124 C.2       9 UNK         0.5000 
     26 O           1.8567  -23.4652  -41.1739 O.2       9 UNK        -0.5000 
     27 CA          0.8309  -21.3810  -40.5030 C.3       9 UNK         0.1400 
     28 CB          0.8183  -21.9181  -39.0568 C.3       9 UNK        -0.1800 
     29 N           1.4110  -20.0366  -40.5670 N.am      9 UNK        -0.5000 
     30 C           2.6795  -19.6804  -40.3140 C.2       8 UNK         0.5000 
     31 O           3.5376  -20.4394  -39.8620 O.2       8 UNK        -0.5000 
     32 CA          3.0670  -18.2281  -40.6491 C.3       8 UNK         0.1400 
     33 CB          3.7104  -18.1692  -42.0438 C.3       8 UNK        -0.1800 
     34 N           1.9349  -17.3003  -40.6041 N.am      8 UNK        -0.5000 
     35 C           1.3225  -16.8998  -39.4812 C.2       7 UNK         0.5000 
     36 O           1.6782  -17.2356  -38.3507 O.2       7 UNK        -0.5000 
     37 CA          0.0951  -15.9848  -39.6490 C.3       7 UNK         0.1400 
     38 CB          0.5278  -14.5269  -39.8674 C.3       7 UNK        -0.1800 
     39 N          -0.7798  -16.4037  -40.7450 N.am      7 UNK        -0.5000 
     40 C          -1.4992  -17.5351  -40.7588 C.2       6 UNK         0.5000 
     41 O          -1.5324  -18.3384  -39.8266 O.2       6 UNK        -0.5000 
     42 CA         -2.2883  -17.8400  -42.0458 C.3       6 UNK         0.1400 
     43 CB         -3.6180  -17.0710  -42.0776 C.3       6 UNK        -0.1800 
     44 N          -1.5218  -17.5406  -43.2546 N.am      6 UNK        -0.5000 
     45 C          -0.4229  -18.2051  -43.6385 C.2       5 UNK         0.5000 
     46 O           0.0500  -19.1567  -43.0164 O.2       5 UNK        -0.5000 
     47 CA          0.2895  -17.6723  -44.8960 C.3       5 UNK         0.1400 
     48 CB         -0.4079  -18.1578  -46.1785 C.3       5 UNK        -0.1800 
     49 N           0.3446  -16.2104  -44.9210 N.am      5 UNK        -0.5000 
     50 C           1.0068  -15.4474  -44.0406 C.2       4 UNK         0.5000 
     51 O           1.6677  -15.8966  -43.1060 O.2       4 UNK        -0.5000 
     52 CA          0.8663  -13.9236  -44.2046 C.3       4 UNK         0.1400 
     53 CB          1.7850  -13.4139  -45.3253 C.3       4 UNK        -0.1800 
     54 N          -0.5087  -13.5042  -44.4801 N.am      4 UNK        -0.5000 
     55 C          -1.5496  -13.6799  -43.6519 C.2       3 UNK         0.5000 
     56 O          -1.4660  -14.2146  -42.5474 O.2       3 UNK        -0.5000 
     57 CA         -2.9201  -13.2544  -44.1899 C.3       3 UNK         0.1400 
     58 CB         -3.0426  -11.7219  -44.2765 C.3       3 UNK        -0.1800 
     59 N          -3.0924  -13.8763  -45.4955 N.am      3 UNK        -0.5000 
     60 C          -4.2124  -14.0057  -46.2055 C.2       2 UNK         0.5000 
     61 O          -5.2993  -13.5448  -45.8529 O.2       2 UNK        -0.5000 
     62 CA         -4.0823  -14.8016  -47.5266 C.3       2 UNK         0.1400 
     63 CB         -5.3426  -14.6970  -48.4049 C.3       2 UNK        -0.1800 
     64 N          -2.9161  -14.4359  -48.3419 N.am      2 UNK        -0.5000 
     65 C          -1.6254  -14.6937  -48.0799 C.2       1 UNK         0.5000 
     66 O          -1.2361  -15.2316  -47.0436 O.2       1 UNK        -0.5000 
     67 C          -0.2469  -22.7450  -47.6406 C.2       11 UNK         0.5000 
     68 O          -0.7274  -23.4814  -48.5016 O.2       11 UNK        -0.5000 
     69 N          -0.9722  -22.1077  -46.7101 N.am      12 UNK        -0.5000 
     70 CA         -2.4322  -22.0277  -46.6152 C.3       12 UNK         0.1400 
     71 CB         -2.8058  -21.1478  -45.4103 C.3       12 UNK        -0.1800 
     72 C          -3.1672  -23.3787  -46.5262 C.2       12 UNK         0.5000 
     73 O          -4.3409  -23.4462  -46.8946 O.2       12 UNK        -0.5000 
     74 N          -2.4766  -24.4115  -46.0272 N.am      13 UNK        -0.5000 
     75 CA         -2.9834  -25.7792  -45.9252 C.3       13 UNK         0.1400 
     76 CB         -2.3062  -26.4661  -44.7290 C.3       13 UNK        -0.1800 
     77 C          -2.7541  -26.5988  -47.2102 C.2       13 UNK         0.5000 
     78 O          -3.4821  -27.5653  -47.4398 O.2       13 UNK        -0.5000 
     79 N          -1.7478  -26.2234  -48.0125 N.am      14 UNK        -0.5000 
     80 CA         -1.3914  -26.8966  -49.2630 C.3       14 UNK         0.1400 
     81 CB          0.1175  -26.7438  -49.5139 C.3       14 UNK        -0.1800 
     82 C          -2.2016  -26.3374  -50.4428 C.2       14 UNK         0.5000 
     83 O          -2.6954  -27.1074  -51.2674 O.2       14 UNK        -0.5000 
     84 N          -2.3417  -25.0099  -50.4786 N.am      15 UNK        -0.5000 
     85 CA         -3.1821  -24.2600  -51.3997 C.3       15 UNK         0.1400 
     86 CB         -2.2824  -23.4416  -52.3385 C.3       15 UNK        -0.1800 
     87 C          -4.0453  -23.3453  -50.5290 C.2       15 UNK         0.5000 
     88 O          -3.4760  -22.5942  -49.7409 O.2       15 UNK        -0.5000 
     89 N          -5.3756  -23.4430  -50.6542 N.am      16 UNK        -0.5000 
     90 CA         -6.3870  -22.7948  -49.8078 C.3       16 UNK         0.1400 
     91 CB         -7.7797  -23.1213  -50.3739 C.3       16 UNK        -0.1800 
     92 C          -6.1934  -21.2722  -49.6336 C.2       16 UNK         0.5000 
     93 O          -6.6301  -20.4978  -50.4845 O.2       16 UNK        -0.5000 
     94 N          -5.5180  -20.8897  -48.5399 N.am      17 UNK        -0.5000 
     95 CA         -5.0753  -19.5312  -48.1910 C.3       17 UNK         0.1400 
     96 CB         -6.2747  -18.5800  -47.9975 C.3       17 UNK        -0.1800 
     97 C          -4.0003  -18.9471  -49.1393 C.2       17 UNK         0.5000 
     98 O          -3.7698  -17.7382  -49.1179 O.2       17 UNK        -0.5000 
     99 N          -3.3301  -19.8148  -49.9114 N.am      18 UNK        -0.5000 
    100 CA        -2.2532  -19.5258  -50.8603 C.3       18 UNK         0.1400 
    101 CB        -0.9776  -19.1404  -50.0825 C.3       18 UNK        -0.1800 
    102 C         -2.6621  -18.5224  -51.9660 C.2       18 UNK         0.5000 
    103 O         -3.8314  -18.4899  -52.3582 O.2       18 UNK        -0.5000 
    104 N         -1.6925  -17.7488  -52.4783 N.am      19 UNK        -0.5000 
    105 CA        -1.8339  -16.7420  -53.5369 C.3       19 UNK         0.1400 
    106 CB        -2.5980  -15.5033  -53.0117 C.3       19 UNK        -0.1800 
    107 C         -2.4331  -17.3418  -54.8270 C.2       19 UNK         0.5000 
    108 O         -1.7922  -18.1853  -55.4541 O.2       19 UNK        -0.5000 
    109 N         -3.6511  -16.9197  -55.1923 N.am      20 UNK        -0.5000 
    110 CA        -4.3890  -17.3771  -56.3709 C.3       20 UNK         0.1400 
    111 CB        -5.6465  -16.5108  -56.5382 C.3       20 UNK        -0.1800 
    112 C         -4.7654  -18.8715  -56.3366 C.2       20 UNK         0.5000 
    113 O         -4.9295  -19.4722  -57.3998 O.2       20 UNK        -0.5000 
    114 N         -4.8683  -19.4596  -55.1345 N.am      21 UNK        -0.5000 
    115 CA        -5.1644  -20.8814  -54.9400 C.3       21 UNK         0.1400 
    116 CB        -5.5508  -21.1298  -53.4762 C.3       21 UNK        -0.1800 
    117 C         -4.0111  -21.8132  -55.3586 C.2       21 UNK         0.5000 
    118 O         -4.2448  -23.0091  -55.5365 O.2       21 UNK        -0.5000 
    119 N         -2.7976  -21.2647  -55.5107 N.am      22 UNK        -0.5000 
    120 CA        -1.6128  -21.9834  -56.0026 C.3       22 UNK         0.1400 
    121 C         -1.6740  -22.3627  -57.5138 C.2       22 UNK         0.5000 
    122 N         -2.5904  -21.8179  -58.3071 N.am      22 UNK        -0.7600 
    123 O         -0.8736  -23.1717  -57.9750 O.2       22 UNK        -0.5000 
    124 C124       -0.3040  -21.2120  -55.7036 C.3       23 UNK        -0.0398 
    125 S125       -0.0587  -20.8067  -53.9412 S.3       23 UNK        -0.2404 
    126 C126        1.3410  -19.6588  -54.1254 C.3       23 UNK        -0.0205 
    127 H127       -2.6887  -10.4444  -50.2325 H         1 UNK         0.0600 
    128 H128       -1.8563  -11.3033  -51.5319 H         1 UNK         0.0600 
    129 H129       -1.0110  -10.0486  -50.6210 H         1 UNK         0.0600 
    130 H130       -1.1899  -13.3484  -50.9390 H         1 UNK         0.3000 
    131 H131        0.2867  -13.8914  -48.5723 H         1 UNK         0.0600 
    132 H132        0.3235  -16.2265  -49.3037 H         1 UNK         0.0800 
    133 H133       -0.9803  -15.9609  -50.4261 H         1 UNK         0.0800 
    134 H134        3.4135  -15.5588  -51.2772 H         1 UNK         0.0800 
    135 H135        2.7072  -15.9068  -49.7204 H         1 UNK         0.0800 
    136 H136        1.4634  -17.1562  -53.0605 H         1 UNK         0.1150 
    137 H137        2.5827  -21.2085  -52.2770 H         1 UNK         0.1150 
    138 H138        3.6018  -18.1313  -49.4725 H         1 UNK         0.1150 
    139 H139        4.9614  -20.6500  -50.0185 H         1 UNK         0.0800 
    140 H140        3.7099  -21.8319  -50.3094 H         1 UNK         0.0800 
    141 H141        1.3187  -21.1449  -49.2430 H         1 UNK         0.0800 
    142 H142        1.1491  -20.3584  -47.7033 H         1 UNK         0.0800 
    143 H143        1.7198  -23.3217  -48.2136 H         1 UNK         0.0600 
    144 H144        2.3592  -23.6505  -46.1402 H         1 UNK         0.3000 
    145 H145        2.1998  -23.5829  -43.7760 H         1 UNK         0.0600 
    146 H146        4.3178  -22.5266  -42.9084 H         1 UNK         0.0600 
    147 H147        4.3715  -22.6675  -44.6594 H         1 UNK         0.0600 
    148 H148        4.0325  -21.1087  -43.9154 H         1 UNK         0.0600 
    149 H149        1.3057  -20.9201  -42.9664 H         1 UNK         0.3000 
    150 H150       -0.2065  -21.2788  -40.8250 H         1 UNK         0.0600 
    151 H151        0.2688  -22.8581  -38.9967 H         1 UNK         0.0600 
    152 H152        0.3322  -21.2140  -38.3813 H         1 UNK         0.0600 
    153 H153        1.8243  -22.1047  -38.6805 H         1 UNK         0.0600 
    154 H154        0.8179  -19.3411  -41.0036 H         1 UNK         0.3000 
    155 H155        3.8077  -17.9030  -39.9155 H         1 UNK         0.0600 
    156 H156        3.0062  -18.4659  -42.8226 H         1 UNK         0.0600 
    157 H157        4.5708  -18.8365  -42.1080 H         1 UNK         0.0600 
    158 H158        4.0611  -17.1632  -42.2746 H         1 UNK         0.0600 
    159 H159        1.6270  -16.9195  -41.4954 H         1 UNK         0.3000 
    160 H160       -0.4821  -16.0306  -38.7232 H         1 UNK         0.0600 
    161 H161        1.0838  -14.4064  -40.7976 H         1 UNK         0.0600 
    162 H162        1.1677  -14.1825  -39.0541 H         1 UNK         0.0600 
    163 H163       -0.3353  -13.8620  -39.9066 H         1 UNK         0.0600 
    164 H164       -0.8559  -15.7657  -41.5317 H         1 UNK         0.3000 
    165 H165       -2.5159  -18.9082  -42.0502 H         1 UNK         0.0600 
    166 H166       -4.2041  -17.3330  -42.9587 H         1 UNK         0.0600 
    167 H167       -4.2242  -17.3074  -41.2023 H         1 UNK         0.0600 
    168 H168       -3.4635  -15.9920  -42.0861 H         1 UNK         0.0600 
    169 H169       -1.8151  -16.7430  -43.7970 H         1 UNK         0.3000 
    170 H170        1.3122  -18.0549  -44.8912 H         1 UNK         0.0600 
    171 H171       -0.4408  -19.2432  -46.2274 H         1 UNK         0.0600 
    172 H172       -1.4364  -17.8007  -46.2423 H         1 UNK         0.0600 
    173 H173        0.1204  -17.8143  -47.0680 H         1 UNK         0.0600 
    174 H174       -0.1811  -15.7600  -45.6665 H         1 UNK         0.3000 
    175 H175        1.1768  -13.4578  -43.2671 H         1 UNK         0.0600 
    176 H176        1.5029  -13.8233  -46.2961 H         1 UNK         0.0600 
    177 H177        1.7531  -12.3267  -45.3978 H         1 UNK         0.0600 
    178 H178        2.8220  -13.6963  -45.1383 H         1 UNK         0.0600 
    179 H179       -0.6665  -13.0461  -45.3658 H         1 UNK         0.3000 
    180 H180       -3.6862  -13.6383  -43.5132 H         1 UNK         0.0600 
    181 H181       -2.3442  -11.2999  -45.0001 H         1 UNK         0.0600 
    182 H182       -2.8376  -11.2595  -43.3102 H         1 UNK         0.0600 
    183 H183       -4.0478  -11.4205  -44.5709 H         1 UNK         0.0600 
    184 H184       -2.2687  -14.3356  -45.8777 H         1 UNK         0.3000 
    185 H185       -3.9674  -15.8479  -47.2379 H         1 UNK         0.0600 
    186 H186       -5.2551  -15.3220  -49.2940 H         1 UNK         0.0600 
    187 H187       -6.2289  -15.0328  -47.8652 H         1 UNK         0.0600 
    188 H188       -5.5215  -13.6715  -48.7297 H         1 UNK         0.0600 
    189 H189       -3.1224  -13.9485  -49.2007 H         1 UNK         0.3000 
    190 H190       -0.4475  -21.5572  -46.0343 H         1 UNK         0.3000 
    191 H191       -2.7810  -21.5276  -47.5179 H         1 UNK         0.0600 
    192 H192       -2.4816  -20.1184  -45.5523 H         1 UNK         0.0600 
    193 H193       -3.8857  -21.1212  -45.2577 H         1 UNK         0.0600 
    194 H194       -2.3545  -21.5169  -44.4883 H         1 UNK         0.0600 
    195 H195       -1.5266  -24.2509  -45.7278 H         1 UNK         0.3000 
    196 H196       -4.0588  -25.7537  -45.7358 H         1 UNK         0.0600 
    197 H197       -2.6775  -27.4838  -44.6010 H         1 UNK         0.0600 
    198 H198       -2.5067  -25.9297  -43.8013 H         1 UNK         0.0600 
    199 H199       -1.2245  -26.5250  -44.8564 H         1 UNK         0.0600 
    200 H200       -1.2551  -25.3625  -47.8109 H         1 UNK         0.3000 
    201 H201       -1.6092  -27.9635  -49.1778 H         1 UNK         0.0600 
    202 H202        0.6974  -27.1719  -48.6962 H         1 UNK         0.0600 
    203 H203        0.4096  -25.6985  -49.6200 H         1 UNK         0.0600 
    204 H204        0.4135  -27.2603  -50.4278 H         1 UNK         0.0600 
    205 H205       -1.9160  -24.4483  -49.7445 H         1 UNK         0.3000 
    206 H206       -3.8232  -24.9191  -51.9887 H         1 UNK         0.0600 
    207 H207       -1.5525  -22.8498  -51.7845 H         1 UNK         0.0600 
    208 H208       -1.7343  -24.0896  -53.0222 H         1 UNK         0.0600 
    209 H209       -2.8707  -22.7514  -52.9396 H         1 UNK         0.0600 
    210 H210       -5.7408  -24.0821  -51.3446 H         1 UNK         0.3000 
    211 H211       -6.3215  -23.2548  -48.8200 H         1 UNK         0.0600 
    212 H212       -7.8919  -22.7636  -51.3983 H         1 UNK         0.0600 
    213 H213       -8.5638  -22.6551  -49.7758 H         1 UNK         0.0600 
    214 H214       -7.9664  -24.1953  -50.3708 H         1 UNK         0.0600 
    215 H215       -5.1702  -21.6291  -47.9399 H         1 UNK         0.3000 
    216 H216       -4.5856  -19.6235  -47.2217 H         1 UNK         0.0600 
    217 H217       -5.9566  -17.6382  -47.5496 H         1 UNK         0.0600 
    218 H218       -7.0229  -19.0155  -47.3354 H         1 UNK         0.0600 
    219 H219       -6.7594  -18.3403  -48.9441 H         1 UNK         0.0600 
    220 H220       -3.5740  -20.8003  -49.8369 H         1 UNK         0.3000 
    221 H221       -2.0520  -20.4654  -51.3753 H         1 UNK         0.0600 
    222 H222       -1.0858  -18.1811  -49.5791 H         1 UNK         0.0600 
    223 H223       -0.7606  -19.8832  -49.3160 H         1 UNK         0.0600 
    224 H224       -0.1049  -19.0913  -50.7313 H         1 UNK         0.0600 
    225 H225       -0.7511  -17.8939  -52.1437 H         1 UNK         0.3000 
    226 H226       -0.8250  -16.4187  -53.7964 H         1 UNK         0.0600 
    227 H227       -2.0592  -15.0264  -52.1963 H         1 UNK         0.0600 
    228 H228       -2.7098  -14.7480  -53.7907 H         1 UNK         0.0600 
    229 H229       -3.5930  -15.7550  -52.6427 H         1 UNK         0.0600 
    230 H230       -4.1208  -16.2511  -54.5994 H         1 UNK         0.3000 
    231 H231       -3.7496  -17.2239  -57.2427 H         1 UNK         0.0600 
    232 H232       -6.3149  -16.6030  -55.6811 H         1 UNK         0.0600 
    233 H233       -6.2085  -16.8044  -57.4259 H         1 UNK         0.0600 
    234 H234       -5.3888  -15.4577  -56.6527 H         1 UNK         0.0600 
    235 H235       -4.6786  -18.9171  -54.2982 H         1 UNK         0.3000 
    236 H236       -6.0264  -21.1334  -55.5611 H         1 UNK         0.0600 
    237 H237       -6.3760  -20.4854  -53.1738 H         1 UNK         0.0600 
    238 H238       -5.8738  -22.1604  -53.3262 H         1 UNK         0.0600 
    239 H239       -4.7170  -20.9482  -52.7980 H         1 UNK         0.0600 
    240 H240       -2.6765  -20.2729  -55.3476 H         1 UNK         0.3000 
    241 H241       -1.5627  -22.9284  -55.4587 H         1 UNK         0.0600 
    242 H242       -3.2586  -21.1520  -57.9463 H         1 UNK         0.3800 
    243 H243       -2.6189  -22.0763  -59.2809 H         1 UNK         0.3800 
    244 H244       -0.2803  -20.2856  -56.2802 H         1 UNK         0.0800 
    245 H245        0.5603  -21.7946  -56.0277 H         1 UNK         0.0800 
    246 H246        1.0095  -18.7898  -54.6965 H         1 UNK         0.0800 
    247 H247        2.1250  -20.1362  -54.7150 H         1 UNK         0.0800 
@<TRIPOS>BOND
     1    1    2 1    
     2    1  127 1    
     3    1  128 1    
     4    1  129 1    
     5    2    3 2    
     6    2    4 am   BACKBONE|DICT|INTERRES
     7    4    5 1    
     8    4  130 1    
     9    5    6 1    
    10    5   65 1    
    11    5  131 1    
    12    6    7 1    
    13    6  132 1    
    14    6  133 1    
    15    7    8 1    
    16    8    9 1    
    17    8  134 1    
    18    8  135 1    
    19    9   10 ar   
    20    9   14 ar   
    21   10   11 ar   
    22   10  136 1    
    23   11   12 ar   
    24   11  126 1    
    25   12   13 ar   
    26   12  137 1    
    27   13   14 ar   
    28   13   15 1    
    29   14  138 1    
    30   15   16 1    
    31   15  139 1    
    32   15  140 1    
    33   16   17 1    
    34   17   18 1    
    35   17  141 1    
    36   17  142 1    
    37   18   19 1    
    38   18   67 1    
    39   18  143 1    
    40   19   20 am   BACKBONE|DICT|INTERRES
    41   19  144 1    
    42   20   21 2    
    43   20   22 1    
    44   22   23 1    
    45   22   24 1    
    46   22  145 1    
    47   23  146 1    
    48   23  147 1    
    49   23  148 1    
    50   24   25 am   BACKBONE|DICT|INTERRES
    51   24  149 1    
    52   25   26 2    
    53   25   27 1    
    54   27   28 1    
    55   27   29 1    
    56   27  150 1    
    57   28  151 1    
    58   28  152 1    
    59   28  153 1    
    60   29   30 am   BACKBONE|DICT|INTERRES
    61   29  154 1    
    62   30   31 2    
    63   30   32 1    
    64   32   33 1    
    65   32   34 1    
    66   32  155 1    
    67   33  156 1    
    68   33  157 1    
    69   33  158 1    
    70   34   35 am   BACKBONE|DICT|INTERRES
    71   34  159 1    
    72   35   36 2    
    73   35   37 1    
    74   37   38 1    
    75   37   39 1    
    76   37  160 1    
    77   38  161 1    
    78   38  162 1    
    79   38  163 1    
    80   39   40 am   BACKBONE|DICT|INTERRES
    81   39  164 1    
    82   40   41 2    
    83   40   42 1    
    84   42   43 1    
    85   42   44 1    
    86   42  165 1    
    87   43  166 1    
    88   43  167 1    
    89   43  168 1    
    90   44   45 am   BACKBONE|DICT|INTERRES
    91   44  169 1    
    92   45   46 2    
    93   45   47 1    
    94   47   48 1    
    95   47   49 1    
    96   47  170 1    
    97   48  171 1    
    98   48  172 1    
    99   48  173 1    
   100   49   50 am   BACKBONE|DICT|INTERRES
   101   49  174 1    
   102   50   51 2    
   103   50   52 1    
   104   52   53 1    
   105   52   54 1    
   106   52  175 1    
   107   53  176 1    
   108   53  177 1    
   109   53  178 1    
   110   54   55 am   BACKBONE|DICT|INTERRES
   111   54  179 1    
   112   55   56 2    
   113   55   57 1    
   114   57   58 1    
   115   57   59 1    
   116   57  180 1    
   117   58  181 1    
   118   58  182 1    
   119   58  183 1    
   120   59   60 am   BACKBONE|DICT|INTERRES
   121   59  184 1    
   122   60   61 2    
   123   60   62 1    
   124   62   63 1    
   125   62   64 1    
   126   62  185 1    
   127   63  186 1    
   128   63  187 1    
   129   63  188 1    
   130   64   65 am   BACKBONE|DICT|INTERRES
   131   64  189 1    
   132   65   66 2    
   133   67   68 2    
   134   67   69 am   BACKBONE|DICT|INTERRES
   135   69   70 1    
   136   69  190 1    
   137   70   71 1    
   138   70   72 1    
   139   70  191 1    
   140   71  192 1    
   141   71  193 1    
   142   71  194 1    
   143   72   73 2    
   144   72   74 am   BACKBONE|DICT|INTERRES
   145   74   75 1    
   146   74  195 1    
   147   75   76 1    
   148   75   77 1    
   149   75  196 1    
   150   76  197 1    
   151   76  198 1    
   152   76  199 1    
   153   77   78 2    
   154   77   79 am   BACKBONE|DICT|INTERRES
   155   79   80 1    
   156   79  200 1    
   157   80   81 1    
   158   80   82 1    
   159   80  201 1    
   160   81  202 1    
   161   81  203 1    
   162   81  204 1    
   163   82   83 2    
   164   82   84 am   BACKBONE|DICT|INTERRES
   165   84   85 1    
   166   84  205 1    
   167   85   86 1    
   168   85   87 1    
   169   85  206 1    
   170   86  207 1    
   171   86  208 1    
   172   86  209 1    
   173   87   88 2    
   174   87   89 am   BACKBONE|DICT|INTERRES
   175   89   90 1    
   176   89  210 1    
   177   90   91 1    
   178   90   92 1    
   179   90  211 1    
   180   91  212 1    
   181   91  213 1    
   182   91  214 1    
   183   92   93 2    
   184   92   94 am   BACKBONE|DICT|INTERRES
   185   94   95 1    
   186   94  215 1    
   187   95   96 1    
   188   95   97 1    
   189   95  216 1    
   190   96  217 1    
   191   96  218 1    
   192   96  219 1    
   193   97   98 2    
   194   97   99 am   BACKBONE|DICT|INTERRES
   195   99  100 1    
   196   99  220 1    
   197  100  101 1    
   198  100  102 1    
   199  100  221 1    
   200  101  222 1    
   201  101  223 1    
   202  101  224 1    
   203  102  103 2    
   204  102  104 am   BACKBONE|DICT|INTERRES
   205  104  105 1    
   206  104  225 1    
   207  105  106 1    
   208  105  107 1    
   209  105  226 1    
   210  106  227 1    
   211  106  228 1    
   212  106  229 1    
   213  107  108 2    
   214  107  109 am   BACKBONE|DICT|INTERRES
   215  109  110 1    
   216  109  230 1    
   217  110  111 1    
   218  110  112 1    
   219  110  231 1    
   220  111  232 1    
   221  111  233 1    
   222  111  234 1    
   223  112  113 2    
   224  112  114 am   BACKBONE|DICT|INTERRES
   225  114  115 1    
   226  114  235 1    
   227  115  116 1    
   228  115  117 1    
   229  115  236 1    
   230  116  237 1    
   231  116  238 1    
   232  116  239 1    
   233  117  118 2    
   234  117  119 am   BACKBONE|DICT|INTERRES
   235  119  120 1    
   236  119  240 1    
   237  120  121 1    
   238  120  124 1    
   239  120  241 1    
   240  121  122 am   BACKBONE|DICT|INTERRES
   241  121  123 2    
   242  122  242 1    
   243  122  243 1    
   244  124  125 1    
   245  124  244 1    
   246  124  245 1    
   247  125  126 1    
   248  126  246 1    
   249  126  247 1    
@<TRIPOS>SUBSTRUCTURE
     1 UNK         1 GROUP             0       ****    0 ROOT    
