@<TRIPOS>MOLECULE
3R540
247   249    1
SMALL
USER_CHARGES


@<TRIPOS>ATOM
      1 CA          2.5205   -9.9939  -45.5571 C.3       0 UNK        -0.1800 
      2 C           2.1814  -10.9754  -46.6672 C.2       0 UNK         0.5000 
      3 O           1.1008  -10.8944  -47.2528 O.2       0 UNK        -0.5000 
      4 N           3.0942  -11.9095  -46.9705 N.am      1 UNK        -0.5000 
      5 CA          2.9103  -12.9636  -47.9785 C.3       1 UNK         0.1400 
      6 C6          3.9757  -14.0802  -47.8553 C.3       23 UNK        -0.0398 
      7 S7          3.4045  -15.6653  -48.5576 S.3       23 UNK        -0.2404 
      8 C8          2.4773  -16.3766  -47.1629 C.3       23 UNK        -0.0205 
      9 C9          1.7418  -17.6381  -47.5844 C.ar      23 UNK        -0.0193 
     10 C10         0.3476  -17.6440  -47.7117 C.ar      23 UNK        -0.1150 
     11 C11        -0.3267  -18.8075  -48.1026 C.ar      23 UNK        -0.0193 
     12 C12         0.4144  -19.9597  -48.3808 C.ar      23 UNK        -0.1150 
     13 C13         1.8068  -19.9599  -48.2808 C.ar      23 UNK        -0.0193 
     14 C14         2.4644  -18.7998  -47.8694 C.ar      23 UNK        -0.1150 
     15 C15         2.5953  -21.1972  -48.6759 C.3       23 UNK        -0.0205 
     16 S16         3.0606  -22.2023  -47.2330 S.3       23 UNK        -0.2404 
     17 C17         3.1142  -23.8647  -47.9899 C.3       23 UNK        -0.0398 
     18 CA          1.9703  -24.8097  -47.5473 C.3       11 UNK         0.1400 
     19 N           2.0781  -25.1964  -46.1389 N.am      11 UNK        -0.5000 
     20 C           1.4199  -26.2184  -45.5808 C.2       10 UNK         0.5000 
     21 O           0.6134  -26.9157  -46.1961 O.2       10 UNK        -0.5000 
     22 CA          1.6742  -26.5071  -44.0900 C.3       10 UNK         0.1400 
     23 CB          2.9953  -27.2732  -43.8882 C.3       10 UNK        -0.1800 
     24 N           1.5891  -25.3309  -43.2143 N.am      10 UNK        -0.5000 
     25 C           2.3948  -24.2619  -43.1533 C.2       9 UNK         0.5000 
     26 O           3.3819  -24.0913  -43.8731 O.2       9 UNK        -0.5000 
     27 CA          2.0390  -23.2291  -42.0686 C.3       9 UNK         0.1400 
     28 CB          2.6966  -23.6104  -40.7330 C.3       9 UNK        -0.1800 
     29 N           2.4402  -21.8672  -42.4167 N.am      9 UNK        -0.5000 
     30 C           1.9288  -21.1459  -43.4215 C.2       8 UNK         0.5000 
     31 O           1.0802  -21.5680  -44.2114 O.2       8 UNK        -0.5000 
     32 CA          2.4597  -19.7022  -43.5407 C.3       8 UNK         0.1400 
     33 CB          3.6767  -19.6330  -44.4732 C.3       8 UNK        -0.1800 
     34 N           1.4450  -18.7545  -44.0031 N.am      8 UNK        -0.5000 
     35 C           0.3248  -18.4542  -43.3325 C.2       7 UNK         0.5000 
     36 O           0.0274  -18.9431  -42.2397 O.2       7 UNK        -0.5000 
     37 CA         -0.5802  -17.3851  -43.9795 C.3       7 UNK         0.1400 
     38 CB         -1.9442  -17.2486  -43.2747 C.3       7 UNK        -0.1800 
     39 N           0.0510  -16.0633  -44.0914 N.am      7 UNK        -0.5000 
     40 C           0.6883  -15.3694  -43.1322 C.2       6 UNK         0.5000 
     41 O           0.9054  -15.7850  -41.9940 O.2       6 UNK        -0.5000 
     42 CA          1.1467  -13.9440  -43.4989 C.3       6 UNK         0.1400 
     43 CB          2.5947  -13.9458  -44.0103 C.3       6 UNK        -0.1800 
     44 N           0.2805  -13.2901  -44.4830 N.am      6 UNK        -0.5000 
     45 C          -0.9659  -12.8669  -44.2257 C.2       5 UNK         0.5000 
     46 O          -1.5125  -12.9811  -43.1281 O.2       5 UNK        -0.5000 
     47 CA         -1.7311  -12.1923  -45.3774 C.3       5 UNK         0.1400 
     48 CB         -1.7091  -10.6639  -45.2190 C.3       5 UNK        -0.1800 
     49 N          -1.2116  -12.5350  -46.7013 N.am      5 UNK        -0.5000 
     50 C          -1.4762  -13.6750  -47.3534 C.2       4 UNK         0.5000 
     51 O          -2.0750  -14.6148  -46.8329 O.2       4 UNK        -0.5000 
     52 CA         -0.9771  -13.7933  -48.8134 C.3       4 UNK         0.1400 
     53 CB         -1.9332  -14.6179  -49.6970 C.3       4 UNK        -0.1800 
     54 N          -0.6607  -12.5033  -49.4454 N.am      4 UNK        -0.5000 
     55 C          -1.4833  -11.4630  -49.6673 C.2       3 UNK         0.5000 
     56 O          -2.6929  -11.4908  -49.4393 O.2       3 UNK        -0.5000 
     57 CA         -0.8474  -10.1551  -50.1885 C.3       3 UNK         0.1400 
     58 CB         -1.3118   -8.9470  -49.3558 C.3       3 UNK        -0.1800 
     59 N           0.6144  -10.2083  -50.1336 N.am      3 UNK        -0.5000 
     60 C           1.4405  -10.2023  -51.1890 C.2       2 UNK         0.5000 
     61 O           1.0650  -10.0567  -52.3526 O.2       2 UNK        -0.5000 
     62 CA          2.9433  -10.4280  -50.9021 C.3       2 UNK         0.1400 
     63 CB          3.6828   -9.0835  -50.8295 C.3       2 UNK        -0.1800 
     64 N           3.2036  -11.1806  -49.6693 N.am      2 UNK        -0.5000 
     65 C           2.7680  -12.4251  -49.4228 C.2       1 UNK         0.5000 
     66 O           2.1757  -13.1029  -50.2617 O.2       1 UNK        -0.5000 
     67 C           0.5630  -24.2798  -47.9004 C.2       11 UNK         0.5000 
     68 O           0.0342  -24.6246  -48.9572 O.2       11 UNK        -0.5000 
     69 N          -0.0454  -23.5077  -46.9858 N.am      12 UNK        -0.5000 
     70 CA         -1.4212  -23.0252  -47.1035 C.3       12 UNK         0.1400 
     71 CB         -1.6985  -21.9661  -46.0266 C.3       12 UNK        -0.1800 
     72 C          -2.4475  -24.1665  -47.0225 C.2       12 UNK         0.5000 
     73 O          -3.4331  -24.1401  -47.7567 O.2       12 UNK        -0.5000 
     74 N          -2.1827  -25.1659  -46.1688 N.am      13 UNK        -0.5000 
     75 CA         -3.0087  -26.3656  -46.0279 C.3       13 UNK         0.1400 
     76 CB         -2.5951  -27.1435  -44.7694 C.3       13 UNK        -0.1800 
     77 C          -2.9493  -27.2557  -47.2816 C.2       13 UNK         0.5000 
     78 O          -3.9933  -27.7084  -47.7508 O.2       13 UNK        -0.5000 
     79 N          -1.7421  -27.4383  -47.8366 N.am      14 UNK        -0.5000 
     80 CA         -1.4958  -28.1555  -49.0911 C.3       14 UNK         0.1400 
     81 CB          0.0185  -28.2984  -49.3051 C.3       14 UNK        -0.1800 
     82 C          -2.1586  -27.4834  -50.3105 C.2       14 UNK         0.5000 
     83 O          -2.6545  -28.1793  -51.1969 O.2       14 UNK        -0.5000 
     84 N          -2.1910  -26.1445  -50.3096 N.am      15 UNK        -0.5000 
     85 CA         -2.8732  -25.3107  -51.3009 C.3       15 UNK         0.1400 
     86 CB         -2.2593  -23.9029  -51.2450 C.3       15 UNK        -0.1800 
     87 C          -4.4028  -25.2312  -51.1046 C.2       15 UNK         0.5000 
     88 O          -5.0769  -24.6079  -51.9273 O.2       15 UNK        -0.5000 
     89 N          -4.9206  -25.8062  -50.0059 N.am      16 UNK        -0.5000 
     90 CA         -6.3120  -25.7391  -49.5390 C.3       16 UNK         0.1400 
     91 CB         -7.2346  -26.5515  -50.4702 C.3       16 UNK        -0.1800 
     92 C          -6.7940  -24.2861  -49.3331 C.2       16 UNK         0.5000 
     93 O          -7.9522  -23.9670  -49.6098 O.2       16 UNK        -0.5000 
     94 N          -5.8626  -23.4239  -48.9008 N.am      17 UNK        -0.5000 
     95 CA         -5.9012  -21.9656  -48.7836 C.3       17 UNK         0.1400 
     96 CB         -6.9524  -21.5123  -47.7550 C.3       17 UNK        -0.1800 
     97 C          -6.0692  -21.2273  -50.1260 C.2       17 UNK         0.5000 
     98 O          -5.2975  -20.3110  -50.4146 O.2       17 UNK        -0.5000 
     99 N          -7.0752  -21.6297  -50.9095 N.am      18 UNK        -0.5000 
    100 CA        -7.5471  -20.9895  -52.1340 C.3       18 UNK         0.1400 
    101 CB        -8.7684  -21.7568  -52.6617 C.3       18 UNK        -0.1800 
    102 C         -6.4850  -20.8437  -53.2349 C.2       18 UNK         0.5000 
    103 O         -6.3817  -19.7662  -53.8222 O.2       18 UNK        -0.5000 
    104 N         -5.6974  -21.9009  -53.4857 N.am      19 UNK        -0.5000 
    105 CA        -4.6979  -21.9191  -54.5620 C.3       19 UNK         0.1400 
    106 CB        -4.2637  -23.3645  -54.8492 C.3       19 UNK        -0.1800 
    107 C         -3.4756  -21.0204  -54.2875 C.2       19 UNK         0.5000 
    108 O         -2.7731  -20.6560  -55.2310 O.2       19 UNK        -0.5000 
    109 N         -3.2570  -20.6677  -53.0145 N.am      20 UNK        -0.5000 
    110 CA        -2.2064  -19.7566  -52.5604 C.3       20 UNK         0.1400 
    111 CB        -1.4720  -20.4146  -51.3837 C.3       20 UNK        -0.1800 
    112 C         -2.7598  -18.3658  -52.1835 C.2       20 UNK         0.5000 
    113 O         -1.9875  -17.5155  -51.7431 O.2       20 UNK        -0.5000 
    114 N         -4.0718  -18.1538  -52.3705 N.am      21 UNK        -0.5000 
    115 CA        -4.8294  -16.9245  -52.1129 C.3       21 UNK         0.1400 
    116 CB        -4.2973  -15.7488  -52.9604 C.3       21 UNK        -0.1800 
    117 C         -4.9904  -16.5619  -50.6193 C.2       21 UNK         0.5000 
    118 O         -5.2884  -15.4072  -50.3101 O.2       21 UNK        -0.5000 
    119 N         -4.8603  -17.5485  -49.7211 N.am      22 UNK        -0.5000 
    120 CA        -5.2131  -17.4140  -48.2941 C.3       22 UNK         0.1400 
    121 C         -6.7498  -17.4514  -48.0322 C.2       22 UNK         0.5000 
    122 N         -7.5835  -17.8573  -48.9835 N.am      22 UNK        -0.7600 
    123 O         -7.1953  -17.1003  -46.9434 O.2       22 UNK        -0.5000 
    124 C124       -4.4854  -18.4647  -47.4112 C.3       23 UNK        -0.0398 
    125 S125       -2.7762  -17.9989  -46.9878 S.3       23 UNK        -0.2404 
    126 C126       -1.8401  -18.8310  -48.3022 C.3       23 UNK        -0.0205 
    127 H127        3.5381  -10.1319  -45.1915 H         1 UNK         0.0600 
    128 H128        2.4232   -8.9706  -45.9195 H         1 UNK         0.0600 
    129 H129        1.8359  -10.1279  -44.7198 H         1 UNK         0.0600 
    130 H130        3.9769  -11.9150  -46.4784 H         1 UNK         0.3000 
    131 H131        1.9459  -13.4139  -47.7387 H         1 UNK         0.0600 
    132 H132        4.9058  -13.7879  -48.3458 H         1 UNK         0.0800 
    133 H133        4.2353  -14.2518  -46.8101 H         1 UNK         0.0800 
    134 H134        1.7679  -15.6407  -46.7847 H         1 UNK         0.0800 
    135 H135        3.1632  -16.6070  -46.3463 H         1 UNK         0.0800 
    136 H136       -0.2162  -16.7427  -47.5179 H         1 UNK         0.1150 
    137 H137       -0.0894  -20.8554  -48.7118 H         1 UNK         0.1150 
    138 H138        3.5429  -18.7931  -47.7945 H         1 UNK         0.1150 
    139 H139        2.0008  -21.7916  -49.3715 H         1 UNK         0.0800 
    140 H140        3.4975  -20.9082  -49.2171 H         1 UNK         0.0800 
    141 H141        3.1262  -23.7807  -49.0776 H         1 UNK         0.0800 
    142 H142        4.0737  -24.3142  -47.7309 H         1 UNK         0.0800 
    143 H143        2.0969  -25.7291  -48.1235 H         1 UNK         0.0600 
    144 H144        2.7001  -24.6480  -45.5497 H         1 UNK         0.3000 
    145 H145        0.8694  -27.1683  -43.7645 H         1 UNK         0.0600 
    146 H146        3.1402  -27.5391  -42.8412 H         1 UNK         0.0600 
    147 H147        2.9966  -28.2007  -44.4621 H         1 UNK         0.0600 
    148 H148        3.8605  -26.6929  -44.2096 H         1 UNK         0.0600 
    149 H149        0.8065  -25.3513  -42.5751 H         1 UNK         0.3000 
    150 H150        0.9551  -23.2281  -41.9344 H         1 UNK         0.0600 
    151 H151        2.3963  -24.6108  -40.4182 H         1 UNK         0.0600 
    152 H152        2.4071  -22.9221  -39.9386 H         1 UNK         0.0600 
    153 H153        3.7851  -23.6031  -40.8048 H         1 UNK         0.0600 
    154 H154        3.1597  -21.4570  -41.8401 H         1 UNK         0.3000 
    155 H155        2.7771  -19.3734  -42.5488 H         1 UNK         0.0600 
    156 H156        4.1039  -18.6304  -44.4951 H         1 UNK         0.0600 
    157 H157        3.4114  -19.9068  -45.4922 H         1 UNK         0.0600 
    158 H158        4.4617  -20.3159  -44.1461 H         1 UNK         0.0600 
    159 H159        1.5966  -18.3409  -44.9104 H         1 UNK         0.3000 
    160 H160       -0.7665  -17.7268  -44.9962 H         1 UNK         0.0600 
    161 H161       -2.5938  -16.5572  -43.8120 H         1 UNK         0.0600 
    162 H162       -1.8366  -16.8826  -42.2530 H         1 UNK         0.0600 
    163 H163       -2.4594  -18.2090  -43.2309 H         1 UNK         0.0600 
    164 H164       -0.0983  -15.5943  -44.9723 H         1 UNK         0.3000 
    165 H165        1.1203  -13.3505  -42.5822 H         1 UNK         0.0600 
    166 H166        2.6896  -14.4798  -44.9532 H         1 UNK         0.0600 
    167 H167        2.9610  -12.9301  -44.1581 H         1 UNK         0.0600 
    168 H168        3.2612  -14.4271  -43.2934 H         1 UNK         0.0600 
    169 H169        0.6531  -13.1374  -45.4070 H         1 UNK         0.3000 
    170 H170       -2.7705  -12.5224  -45.3174 H         1 UNK         0.0600 
    171 H171       -2.1416  -10.3634  -44.2639 H         1 UNK         0.0600 
    172 H172       -0.6943  -10.2675  -45.2581 H         1 UNK         0.0600 
    173 H173       -2.2882  -10.1783  -46.0049 H         1 UNK         0.0600 
    174 H174       -0.6419  -11.8294  -47.1568 H         1 UNK         0.3000 
    175 H175       -0.0370  -14.3435  -48.7626 H         1 UNK         0.0600 
    176 H176       -2.9181  -14.1565  -49.7647 H         1 UNK         0.0600 
    177 H177       -1.5426  -14.7267  -50.7086 H         1 UNK         0.0600 
    178 H178       -2.0726  -15.6241  -49.2987 H         1 UNK         0.0600 
    179 H179        0.3049  -12.4001  -49.7337 H         1 UNK         0.3000 
    180 H180       -1.1919  -10.0201  -51.2154 H         1 UNK         0.0600 
    181 H181       -1.0373   -9.0557  -48.3055 H         1 UNK         0.0600 
    182 H182       -2.3947   -8.8261  -49.4029 H         1 UNK         0.0600 
    183 H183       -0.8681   -8.0218  -49.7238 H         1 UNK         0.0600 
    184 H184        1.0061  -10.3326  -49.2055 H         1 UNK         0.3000 
    185 H185        3.3530  -11.0020  -51.7357 H         1 UNK         0.0600 
    186 H186        3.5346   -8.5061  -51.7430 H         1 UNK         0.0600 
    187 H187        3.3298   -8.4752  -49.9957 H         1 UNK         0.0600 
    188 H188        4.7566   -9.2290  -50.7097 H         1 UNK         0.0600 
    189 H189        3.6657  -10.6802  -48.9241 H         1 UNK         0.3000 
    190 H190        0.4682  -23.2327  -46.1585 H         1 UNK         0.3000 
    191 H191       -1.5341  -22.5538  -48.0812 H         1 UNK         0.0600 
    192 H192       -2.7067  -21.5614  -46.1255 H         1 UNK         0.0600 
    193 H193       -1.0051  -21.1287  -46.1057 H         1 UNK         0.0600 
    194 H194       -1.6046  -22.3785  -45.0213 H         1 UNK         0.0600 
    195 H195       -1.3296  -25.1306  -45.6322 H         1 UNK         0.3000 
    196 H196       -4.0449  -26.0454  -45.8978 H         1 UNK         0.0600 
    197 H197       -3.2406  -28.0101  -44.6210 H         1 UNK         0.0600 
    198 H198       -2.6763  -26.5226  -43.8772 H         1 UNK         0.0600 
    199 H199       -1.5706  -27.5091  -44.8322 H         1 UNK         0.0600 
    200 H200       -0.9252  -27.0724  -47.3552 H         1 UNK         0.3000 
    201 H201       -1.9225  -29.1556  -48.9915 H         1 UNK         0.0600 
    202 H202        0.4860  -28.8272  -48.4743 H         1 UNK         0.0600 
    203 H203        0.5049  -27.3271  -49.3987 H         1 UNK         0.0600 
    204 H204        0.2333  -28.8627  -50.2134 H         1 UNK         0.0600 
    205 H205       -1.6941  -25.6516  -49.5758 H         1 UNK         0.3000 
    206 H206       -2.6929  -25.7253  -52.2946 H         1 UNK         0.0600 
    207 H207       -1.1876  -23.9318  -51.4421 H         1 UNK         0.0600 
    208 H208       -2.7061  -23.2451  -51.9886 H         1 UNK         0.0600 
    209 H209       -2.4077  -23.4383  -50.2702 H         1 UNK         0.0600 
    210 H210       -4.2846  -26.2869  -49.3820 H         1 UNK         0.3000 
    211 H211       -6.3305  -26.2103  -48.5554 H         1 UNK         0.0600 
    212 H212       -7.3089  -26.1009  -51.4605 H         1 UNK         0.0600 
    213 H213       -8.2443  -26.6147  -50.0629 H         1 UNK         0.0600 
    214 H214       -6.8703  -27.5715  -50.5922 H         1 UNK         0.0600 
    215 H215       -4.9540  -23.8213  -48.6649 H         1 UNK         0.3000 
    216 H216       -4.9201  -21.6885  -48.3964 H         1 UNK         0.0600 
    217 H217       -7.9669  -21.7562  -48.0709 H         1 UNK         0.0600 
    218 H218       -6.9117  -20.4341  -47.6029 H         1 UNK         0.0600 
    219 H219       -6.7812  -21.9824  -46.7866 H         1 UNK         0.0600 
    220 H220       -7.6134  -22.4270  -50.5786 H         1 UNK         0.3000 
    221 H221       -7.8730  -19.9833  -51.8632 H         1 UNK         0.0600 
    222 H222       -8.5210  -22.7933  -52.8954 H         1 UNK         0.0600 
    223 H223       -9.5758  -21.7635  -51.9291 H         1 UNK         0.0600 
    224 H224       -9.1589  -21.2973  -53.5707 H         1 UNK         0.0600 
    225 H225       -5.7982  -22.7478  -52.9368 H         1 UNK         0.3000 
    226 H226       -5.1780  -21.5369  -55.4655 H         1 UNK         0.0600 
    227 H227       -5.1237  -24.0080  -55.0355 H         1 UNK         0.0600 
    228 H228       -3.6271  -23.4089  -55.7337 H         1 UNK         0.0600 
    229 H229       -3.6972  -23.7915  -54.0236 H         1 UNK         0.0600 
    230 H230       -3.9039  -20.9926  -52.3081 H         1 UNK         0.3000 
    231 H231       -1.4755  -19.5914  -53.3543 H         1 UNK         0.0600 
    232 H232       -2.1580  -20.6742  -50.5778 H         1 UNK         0.0600 
    233 H233       -0.7061  -19.7516  -50.9813 H         1 UNK         0.0600 
    234 H234       -0.9665  -21.3264  -51.7000 H         1 UNK         0.0600 
    235 H235       -4.6194  -18.9158  -52.7499 H         1 UNK         0.3000 
    236 H236       -5.8397  -17.1364  -52.4655 H         1 UNK         0.0600 
    237 H237       -4.1989  -16.0301  -54.0089 H         1 UNK         0.0600 
    238 H238       -4.9765  -14.8967  -52.9179 H         1 UNK         0.0600 
    239 H239       -3.3240  -15.4037  -52.6109 H         1 UNK         0.0600 
    240 H240       -4.6989  -18.4924  -50.0579 H         1 UNK         0.3000 
    241 H241       -4.8908  -16.4252  -47.9607 H         1 UNK         0.0600 
    242 H242       -7.2339  -18.1472  -49.8811 H         1 UNK         0.3800 
    243 H243       -8.5746  -17.8661  -48.8008 H         1 UNK         0.3800 
    244 H244       -4.9941  -18.5943  -46.4540 H         1 UNK         0.0800 
    245 H245       -4.4987  -19.4456  -47.8826 H         1 UNK         0.0800 
    246 H246       -2.0742  -18.3489  -49.2496 H         1 UNK         0.0800 
    247 H247       -2.1918  -19.8607  -48.3704 H         1 UNK         0.0800 
@<TRIPOS>BOND
     1    1    2 1    
     2    1  127 1    
     3    1  128 1    
     4    1  129 1    
     5    2    3 2    
     6    2    4 am   BACKBONE|DICT|INTERRES
     7    4    5 1    
     8    4  130 1    
     9    5    6 1    
    10    5   65 1    
    11    5  131 1    
    12    6    7 1    
    13    6  132 1    
    14    6  133 1    
    15    7    8 1    
    16    8    9 1    
    17    8  134 1    
    18    8  135 1    
    19    9   10 ar   
    20    9   14 ar   
    21   10   11 ar   
    22   10  136 1    
    23   11   12 ar   
    24   11  126 1    
    25   12   13 ar   
    26   12  137 1    
    27   13   14 ar   
    28   13   15 1    
    29   14  138 1    
    30   15   16 1    
    31   15  139 1    
    32   15  140 1    
    33   16   17 1    
    34   17   18 1    
    35   17  141 1    
    36   17  142 1    
    37   18   19 1    
    38   18   67 1    
    39   18  143 1    
    40   19   20 am   BACKBONE|DICT|INTERRES
    41   19  144 1    
    42   20   21 2    
    43   20   22 1    
    44   22   23 1    
    45   22   24 1    
    46   22  145 1    
    47   23  146 1    
    48   23  147 1    
    49   23  148 1    
    50   24   25 am   BACKBONE|DICT|INTERRES
    51   24  149 1    
    52   25   26 2    
    53   25   27 1    
    54   27   28 1    
    55   27   29 1    
    56   27  150 1    
    57   28  151 1    
    58   28  152 1    
    59   28  153 1    
    60   29   30 am   BACKBONE|DICT|INTERRES
    61   29  154 1    
    62   30   31 2    
    63   30   32 1    
    64   32   33 1    
    65   32   34 1    
    66   32  155 1    
    67   33  156 1    
    68   33  157 1    
    69   33  158 1    
    70   34   35 am   BACKBONE|DICT|INTERRES
    71   34  159 1    
    72   35   36 2    
    73   35   37 1    
    74   37   38 1    
    75   37   39 1    
    76   37  160 1    
    77   38  161 1    
    78   38  162 1    
    79   38  163 1    
    80   39   40 am   BACKBONE|DICT|INTERRES
    81   39  164 1    
    82   40   41 2    
    83   40   42 1    
    84   42   43 1    
    85   42   44 1    
    86   42  165 1    
    87   43  166 1    
    88   43  167 1    
    89   43  168 1    
    90   44   45 am   BACKBONE|DICT|INTERRES
    91   44  169 1    
    92   45   46 2    
    93   45   47 1    
    94   47   48 1    
    95   47   49 1    
    96   47  170 1    
    97   48  171 1    
    98   48  172 1    
    99   48  173 1    
   100   49   50 am   BACKBONE|DICT|INTERRES
   101   49  174 1    
   102   50   51 2    
   103   50   52 1    
   104   52   53 1    
   105   52   54 1    
   106   52  175 1    
   107   53  176 1    
   108   53  177 1    
   109   53  178 1    
   110   54   55 am   BACKBONE|DICT|INTERRES
   111   54  179 1    
   112   55   56 2    
   113   55   57 1    
   114   57   58 1    
   115   57   59 1    
   116   57  180 1    
   117   58  181 1    
   118   58  182 1    
   119   58  183 1    
   120   59   60 am   BACKBONE|DICT|INTERRES
   121   59  184 1    
   122   60   61 2    
   123   60   62 1    
   124   62   63 1    
   125   62   64 1    
   126   62  185 1    
   127   63  186 1    
   128   63  187 1    
   129   63  188 1    
   130   64   65 am   BACKBONE|DICT|INTERRES
   131   64  189 1    
   132   65   66 2    
   133   67   68 2    
   134   67   69 am   BACKBONE|DICT|INTERRES
   135   69   70 1    
   136   69  190 1    
   137   70   71 1    
   138   70   72 1    
   139   70  191 1    
   140   71  192 1    
   141   71  193 1    
   142   71  194 1    
   143   72   73 2    
   144   72   74 am   BACKBONE|DICT|INTERRES
   145   74   75 1    
   146   74  195 1    
   147   75   76 1    
   148   75   77 1    
   149   75  196 1    
   150   76  197 1    
   151   76  198 1    
   152   76  199 1    
   153   77   78 2    
   154   77   79 am   BACKBONE|DICT|INTERRES
   155   79   80 1    
   156   79  200 1    
   157   80   81 1    
   158   80   82 1    
   159   80  201 1    
   160   81  202 1    
   161   81  203 1    
   162   81  204 1    
   163   82   83 2    
   164   82   84 am   BACKBONE|DICT|INTERRES
   165   84   85 1    
   166   84  205 1    
   167   85   86 1    
   168   85   87 1    
   169   85  206 1    
   170   86  207 1    
   171   86  208 1    
   172   86  209 1    
   173   87   88 2    
   174   87   89 am   BACKBONE|DICT|INTERRES
   175   89   90 1    
   176   89  210 1    
   177   90   91 1    
   178   90   92 1    
   179   90  211 1    
   180   91  212 1    
   181   91  213 1    
   182   91  214 1    
   183   92   93 2    
   184   92   94 am   BACKBONE|DICT|INTERRES
   185   94   95 1    
   186   94  215 1    
   187   95   96 1    
   188   95   97 1    
   189   95  216 1    
   190   96  217 1    
   191   96  218 1    
   192   96  219 1    
   193   97   98 2    
   194   97   99 am   BACKBONE|DICT|INTERRES
   195   99  100 1    
   196   99  220 1    
   197  100  101 1    
   198  100  102 1    
   199  100  221 1    
   200  101  222 1    
   201  101  223 1    
   202  101  224 1    
   203  102  103 2    
   204  102  104 am   BACKBONE|DICT|INTERRES
   205  104  105 1    
   206  104  225 1    
   207  105  106 1    
   208  105  107 1    
   209  105  226 1    
   210  106  227 1    
   211  106  228 1    
   212  106  229 1    
   213  107  108 2    
   214  107  109 am   BACKBONE|DICT|INTERRES
   215  109  110 1    
   216  109  230 1    
   217  110  111 1    
   218  110  112 1    
   219  110  231 1    
   220  111  232 1    
   221  111  233 1    
   222  111  234 1    
   223  112  113 2    
   224  112  114 am   BACKBONE|DICT|INTERRES
   225  114  115 1    
   226  114  235 1    
   227  115  116 1    
   228  115  117 1    
   229  115  236 1    
   230  116  237 1    
   231  116  238 1    
   232  116  239 1    
   233  117  118 2    
   234  117  119 am   BACKBONE|DICT|INTERRES
   235  119  120 1    
   236  119  240 1    
   237  120  121 1    
   238  120  124 1    
   239  120  241 1    
   240  121  122 am   BACKBONE|DICT|INTERRES
   241  121  123 2    
   242  122  242 1    
   243  122  243 1    
   244  124  125 1    
   245  124  244 1    
   246  124  245 1    
   247  125  126 1    
   248  126  246 1    
   249  126  247 1    
@<TRIPOS>SUBSTRUCTURE
     1 UNK         1 GROUP             0       ****    0 ROOT    
