@<TRIPOS>MOLECULE
3R540
247   249    1
SMALL
USER_CHARGES


@<TRIPOS>ATOM
      1 CA          0.3072  -11.2562  -43.5012 C.3       0 UNK        -0.1800 
      2 C           1.2050  -11.9556  -44.5111 C.2       0 UNK         0.5000 
      3 O           1.6743  -13.0570  -44.2402 O.2       0 UNK        -0.5000 
      4 N           1.4557  -11.3099  -45.6592 N.am      1 UNK        -0.5000 
      5 CA          2.2554  -11.7790  -46.8074 C.3       1 UNK         0.1400 
      6 C6          1.7510  -13.1129  -47.4240 C.3       23 UNK        -0.0398 
      7 S7          0.0470  -12.9959  -48.0763 S.3       23 UNK        -0.2404 
      8 C8          0.3220  -13.1924  -49.8687 C.3       23 UNK        -0.0205 
      9 C9          0.1808  -14.6337  -50.3526 C.ar      23 UNK        -0.0193 
     10 C10        -0.6903  -14.9237  -51.4068 C.ar      23 UNK        -0.1150 
     11 C11        -0.8257  -16.2282  -51.8939 C.ar      23 UNK        -0.0193 
     12 C12        -0.0585  -17.2507  -51.3257 C.ar      23 UNK        -0.1150 
     13 C13         0.8355  -16.9749  -50.2855 C.ar      23 UNK        -0.0193 
     14 C14         0.9427  -15.6684  -49.7987 C.ar      23 UNK        -0.1150 
     15 C15         1.7322  -18.0696  -49.7225 C.3       23 UNK        -0.0205 
     16 S16         1.0484  -18.8310  -48.2188 S.3       23 UNK        -0.2404 
     17 C17        -0.2136  -19.9386  -48.9207 C.3       23 UNK        -0.0398 
     18 CA         -0.6643  -21.0374  -47.9287 C.3       11 UNK         0.1400 
     19 N          -1.2467  -20.4977  -46.6953 N.am      11 UNK        -0.5000 
     20 C          -1.6203  -21.2314  -45.6365 C.2       10 UNK         0.5000 
     21 O          -1.4576  -22.4480  -45.5524 O.2       10 UNK        -0.5000 
     22 CA         -2.3546  -20.4942  -44.5051 C.3       10 UNK         0.1400 
     23 CB         -1.3626  -19.8377  -43.5314 C.3       10 UNK        -0.1800 
     24 N          -3.2808  -19.4937  -45.0340 N.am      10 UNK        -0.5000 
     25 C          -4.4370  -19.7884  -45.6454 C.2       9 UNK         0.5000 
     26 O          -4.8630  -20.9349  -45.7814 O.2       9 UNK        -0.5000 
     27 CA         -5.2354  -18.6111  -46.2362 C.3       9 UNK         0.1400 
     28 CB         -6.1251  -17.9684  -45.1619 C.3       9 UNK        -0.1800 
     29 N          -4.3833  -17.5836  -46.8357 N.am      9 UNK        -0.5000 
     30 C          -3.6173  -17.7729  -47.9193 C.2       8 UNK         0.5000 
     31 O          -3.5697  -18.8317  -48.5430 O.2       8 UNK        -0.5000 
     32 CA         -2.7196  -16.5949  -48.3457 C.3       8 UNK         0.1400 
     33 CB         -3.5343  -15.6016  -49.1856 C.3       8 UNK        -0.1800 
     34 N          -2.0949  -15.8678  -47.2351 N.am      8 UNK        -0.5000 
     35 C          -1.4133  -16.4091  -46.2167 C.2       7 UNK         0.5000 
     36 O          -1.2753  -17.6218  -46.0512 O.2       7 UNK        -0.5000 
     37 CA         -0.8748  -15.4207  -45.1688 C.3       7 UNK         0.1400 
     38 CB         -2.0212  -14.8833  -44.2967 C.3       7 UNK        -0.1800 
     39 N           0.1270  -16.0116  -44.2875 N.am      7 UNK        -0.5000 
     40 C           1.3674  -16.3724  -44.6375 C.2       6 UNK         0.5000 
     41 O           1.8083  -16.3043  -45.7855 O.2       6 UNK        -0.5000 
     42 CA          2.2777  -16.8294  -43.4786 C.3       6 UNK         0.1400 
     43 CB          3.7034  -17.1811  -43.9407 C.3       6 UNK        -0.1800 
     44 N           2.3663  -15.7851  -42.4580 N.am      6 UNK        -0.5000 
     45 C           1.4798  -15.5479  -41.4861 C.2       5 UNK         0.5000 
     46 O           0.4988  -16.2675  -41.2871 O.2       5 UNK        -0.5000 
     47 CA          1.7153  -14.2884  -40.6193 C.3       5 UNK         0.1400 
     48 CB          0.7250  -14.1845  -39.4452 C.3       5 UNK        -0.1800 
     49 N           3.0808  -14.1816  -40.0921 N.am      5 UNK        -0.5000 
     50 C           4.1556  -13.8168  -40.8002 C.2       4 UNK         0.5000 
     51 O           4.1258  -13.6019  -42.0134 O.2       4 UNK        -0.5000 
     52 CA          5.4913  -13.7159  -40.0459 C.3       4 UNK         0.1400 
     53 CB          6.2045  -15.0769  -40.0392 C.3       4 UNK        -0.1800 
     54 N           6.3413  -12.7411  -40.7244 N.am      4 UNK        -0.5000 
     55 C           6.3960  -11.4359  -40.4319 C.2       3 UNK         0.5000 
     56 O           5.9061  -10.9356  -39.4185 O.2       3 UNK        -0.5000 
     57 CA          7.0865  -10.5321  -41.4742 C.3       3 UNK         0.1400 
     58 CB          8.5960  -10.4441  -41.2018 C.3       3 UNK        -0.1800 
     59 N           6.8672  -10.9904  -42.8510 N.am      3 UNK        -0.5000 
     60 C           5.6782  -10.9785  -43.4709 C.2       2 UNK         0.5000 
     61 O           4.6611  -10.4767  -42.9815 O.2       2 UNK        -0.5000 
     62 CA          5.6164  -11.6330  -44.8631 C.3       2 UNK         0.1400 
     63 CB          6.1853  -13.0689  -44.8632 C.3       2 UNK        -0.1800 
     64 N           4.2266  -11.6451  -45.3070 N.am      2 UNK        -0.5000 
     65 C           3.7835  -11.8250  -46.5545 C.2       1 UNK         0.5000 
     66 O           4.5394  -11.9911  -47.5133 O.2       1 UNK        -0.5000 
     67 C          -1.6283  -22.0219  -48.6196 C.2       11 UNK         0.5000 
     68 O          -1.2224  -23.1358  -48.9516 O.2       11 UNK        -0.5000 
     69 N          -2.8947  -21.6104  -48.7781 N.am      12 UNK        -0.5000 
     70 CA         -3.9724  -22.4273  -49.3331 C.3       12 UNK         0.1400 
     71 CB         -5.2393  -21.5743  -49.4838 C.3       12 UNK        -0.1800 
     72 C          -4.2590  -23.6815  -48.4905 C.2       12 UNK         0.5000 
     73 O          -4.4209  -24.7598  -49.0591 O.2       12 UNK        -0.5000 
     74 N          -4.2830  -23.5323  -47.1574 N.am      13 UNK        -0.5000 
     75 CA         -4.4661  -24.6305  -46.2068 C.3       13 UNK         0.1400 
     76 CB         -4.6491  -24.0732  -44.7877 C.3       13 UNK        -0.1800 
     77 C          -3.3179  -25.6544  -46.2493 C.2       13 UNK         0.5000 
     78 O          -3.5845  -26.8558  -46.2853 O.2       13 UNK        -0.5000 
     79 N          -2.0682  -25.1698  -46.2938 N.am      14 UNK        -0.5000 
     80 CA         -0.8595  -25.9896  -46.4239 C.3       14 UNK         0.1400 
     81 CB          0.3824  -25.1015  -46.2554 C.3       14 UNK        -0.1800 
     82 C          -0.7983  -26.7629  -47.7552 C.2       14 UNK         0.5000 
     83 O          -0.3444  -27.9072  -47.7775 O.2       14 UNK        -0.5000 
     84 N          -1.2968  -26.1376  -48.8283 N.am      15 UNK        -0.5000 
     85 CA         -1.4527  -26.7271  -50.1576 C.3       15 UNK         0.1400 
     86 CB         -1.4494  -25.5890  -51.1878 C.3       15 UNK        -0.1800 
     87 C          -2.7219  -27.5951  -50.3060 C.2       15 UNK         0.5000 
     88 O          -2.9623  -28.1140  -51.3966 O.2       15 UNK        -0.5000 
     89 N          -3.5301  -27.7178  -49.2403 N.am      16 UNK        -0.5000 
     90 CA         -4.7957  -28.4596  -49.1578 C.3       16 UNK         0.1400 
     91 CB         -4.5298  -29.9777  -49.2181 C.3       16 UNK        -0.1800 
     92 C          -5.8503  -27.9956  -50.1882 C.2       16 UNK         0.5000 
     93 O          -6.6421  -28.8063  -50.6718 O.2       16 UNK        -0.5000 
     94 N          -5.8127  -26.6979  -50.5240 N.am      17 UNK        -0.5000 
     95 CA         -6.6077  -25.9897  -51.5319 C.3       17 UNK         0.1400 
     96 CB         -8.0999  -25.9784  -51.1438 C.3       17 UNK        -0.1800 
     97 C          -6.3815  -26.4611  -52.9870 C.2       17 UNK         0.5000 
     98 O          -7.1240  -26.0387  -53.8748 O.2       17 UNK        -0.5000 
     99 N          -5.3574  -27.2935  -53.2309 N.am      18 UNK        -0.5000 
    100 CA        -4.9709  -27.7605  -54.5663 C.3       18 UNK         0.1400 
    101 CB        -4.1809  -29.0712  -54.4319 C.3       18 UNK        -0.1800 
    102 C         -4.1502  -26.7102  -55.3403 C.2       18 UNK         0.5000 
    103 O         -4.0503  -26.7935  -56.5651 O.2       18 UNK        -0.5000 
    104 N         -3.5881  -25.7415  -54.6127 N.am      19 UNK        -0.5000 
    105 CA        -2.8388  -24.5942  -55.1007 C.3       19 UNK         0.1400 
    106 CB        -1.3787  -25.0024  -55.3723 C.3       19 UNK        -0.1800 
    107 C         -2.9335  -23.4878  -54.0384 C.2       19 UNK         0.5000 
    108 O         -3.4826  -23.7214  -52.9583 O.2       19 UNK        -0.5000 
    109 N         -2.4041  -22.3018  -54.3678 N.am      20 UNK        -0.5000 
    110 CA        -2.2430  -21.1239  -53.5005 C.3       20 UNK         0.1400 
    111 CB        -1.2676  -21.4314  -52.3474 C.3       20 UNK        -0.1800 
    112 C         -3.5508  -20.4811  -52.9867 C.2       20 UNK         0.5000 
    113 O         -3.4899  -19.5490  -52.1851 O.2       20 UNK        -0.5000 
    114 N         -4.7078  -20.9372  -53.4820 N.am      21 UNK        -0.5000 
    115 CA        -6.0411  -20.4260  -53.1644 C.3       21 UNK         0.1400 
    116 CB        -7.0666  -21.5477  -53.4089 C.3       21 UNK        -0.1800 
    117 C         -6.3489  -19.1376  -53.9557 C.2       21 UNK         0.5000 
    118 O         -7.3042  -19.0933  -54.7328 O.2       21 UNK        -0.5000 
    119 N         -5.5027  -18.1203  -53.7642 N.am      22 UNK        -0.5000 
    120 CA        -5.5692  -16.8108  -54.4297 C.3       22 UNK         0.1400 
    121 C         -6.6701  -15.8463  -53.8939 C.2       22 UNK         0.5000 
    122 N         -7.3506  -16.1525  -52.7957 N.am      22 UNK        -0.7600 
    123 O         -6.9235  -14.8073  -54.4979 O.2       22 UNK        -0.5000 
    124 C124       -4.1737  -16.1359  -54.4878 C.3       23 UNK        -0.0398 
    125 S125       -3.4245  -15.8394  -52.8467 S.3       23 UNK        -0.2404 
    126 C126       -1.7485  -16.5204  -53.0736 C.3       23 UNK        -0.0205 
    127 H127        0.8524  -11.0854  -42.5728 H         1 UNK         0.0600 
    128 H128       -0.0477  -10.2939  -43.8707 H         1 UNK         0.0600 
    129 H129       -0.5606  -11.8767  -43.2789 H         1 UNK         0.0600 
    130 H130        1.0454  -10.3956  -45.7892 H         1 UNK         0.3000 
    131 H131        2.1278  -11.0093  -47.5702 H         1 UNK         0.0600 
    132 H132        2.4145  -13.4327  -48.2283 H         1 UNK         0.0800 
    133 H133        1.7861  -13.9129  -46.6872 H         1 UNK         0.0800 
    134 H134       -0.4024  -12.5559  -50.3789 H         1 UNK         0.0800 
    135 H135        1.3026  -12.8079  -50.1511 H         1 UNK         0.0800 
    136 H136       -1.2665  -14.1284  -51.8583 H         1 UNK         0.1150 
    137 H137       -0.1371  -18.2575  -51.7101 H         1 UNK         0.1150 
    138 H138        1.6329  -15.4624  -48.9942 H         1 UNK         0.1150 
    139 H139        1.9230  -18.8357  -50.4755 H         1 UNK         0.0800 
    140 H140        2.7067  -17.6443  -49.4777 H         1 UNK         0.0800 
    141 H141        0.2122  -20.4023  -49.8114 H         1 UNK         0.0800 
    142 H142       -1.0588  -19.3367  -49.2564 H         1 UNK         0.0800 
    143 H143        0.2206  -21.6081  -47.6386 H         1 UNK         0.0600 
    144 H144       -1.3638  -19.4892  -46.6498 H         1 UNK         0.3000 
    145 H145       -2.9332  -21.2308  -43.9439 H         1 UNK         0.0600 
    146 H146       -1.8832  -19.3114  -42.7313 H         1 UNK         0.0600 
    147 H147       -0.7258  -20.5902  -43.0649 H         1 UNK         0.0600 
    148 H148       -0.7068  -19.1244  -44.0301 H         1 UNK         0.0600 
    149 H149       -2.9381  -18.5424  -45.0682 H         1 UNK         0.3000 
    150 H150       -5.8819  -19.0110  -47.0204 H         1 UNK         0.0600 
    151 H151       -6.7857  -18.7088  -44.7088 H         1 UNK         0.0600 
    152 H152       -6.7567  -17.1884  -45.5875 H         1 UNK         0.0600 
    153 H153       -5.5331  -17.5227  -44.3614 H         1 UNK         0.0600 
    154 H154       -4.3561  -16.6852  -46.3772 H         1 UNK         0.3000 
    155 H155       -1.9169  -16.9979  -48.9653 H         1 UNK         0.0600 
    156 H156       -2.8975  -14.8305  -49.6179 H         1 UNK         0.0600 
    157 H157       -4.3037  -15.1064  -48.5924 H         1 UNK         0.0600 
    158 H158       -4.0362  -16.1108  -50.0085 H         1 UNK         0.0600 
    159 H159       -2.1519  -14.8612  -47.2880 H         1 UNK         0.3000 
    160 H160       -0.4080  -14.5844  -45.6888 H         1 UNK         0.0600 
    161 H161       -2.5273  -15.6867  -43.7596 H         1 UNK         0.0600 
    162 H162       -2.7694  -14.3666  -44.8988 H         1 UNK         0.0600 
    163 H163       -1.6530  -14.1690  -43.5600 H         1 UNK         0.0600 
    164 H164       -0.1292  -16.1153  -43.3138 H         1 UNK         0.3000 
    165 H165        1.8328  -17.7269  -43.0439 H         1 UNK         0.0600 
    166 H166        4.2061  -16.3190  -44.3815 H         1 UNK         0.0600 
    167 H167        4.3119  -17.5329  -43.1075 H         1 UNK         0.0600 
    168 H168        3.6874  -17.9738  -44.6898 H         1 UNK         0.0600 
    169 H169        3.0910  -15.0840  -42.5908 H         1 UNK         0.3000 
    170 H170        1.5356  -13.4307  -41.2715 H         1 UNK         0.0600 
    171 H171       -0.3066  -14.1870  -39.7998 H         1 UNK         0.0600 
    172 H172        0.8369  -15.0176  -38.7502 H         1 UNK         0.0600 
    173 H173        0.8695  -13.2590  -38.8876 H         1 UNK         0.0600 
    174 H174        3.1932  -14.3919  -39.1108 H         1 UNK         0.3000 
    175 H175        5.3034  -13.4066  -39.0156 H         1 UNK         0.0600 
    176 H176        7.1632  -15.0160  -39.5237 H         1 UNK         0.0600 
    177 H177        5.6061  -15.8297  -39.5247 H         1 UNK         0.0600 
    178 H178        6.3903  -15.4407  -41.0508 H         1 UNK         0.0600 
    179 H179        6.7159  -13.0360  -41.6137 H         1 UNK         0.3000 
    180 H180        6.6636   -9.5299  -41.3770 H         1 UNK         0.0600 
    181 H181        9.0821  -11.4153  -41.3035 H         1 UNK         0.0600 
    182 H182        8.7890  -10.0849  -40.1901 H         1 UNK         0.0600 
    183 H183        9.0813   -9.7512  -41.8894 H         1 UNK         0.0600 
    184 H184        7.6637  -11.3916  -43.3243 H         1 UNK         0.3000 
    185 H185        6.1992  -11.0109  -45.5449 H         1 UNK         0.0600 
    186 H186        6.1437  -13.5132  -45.8575 H         1 UNK         0.0600 
    187 H187        7.2306  -13.0892  -44.5551 H         1 UNK         0.0600 
    188 H188        5.6287  -13.7206  -44.1897 H         1 UNK         0.0600 
    189 H189        3.5569  -11.4929  -44.5623 H         1 UNK         0.3000 
    190 H190       -3.1386  -20.6555  -48.5241 H         1 UNK         0.3000 
    191 H191       -3.6626  -22.7546  -50.3274 H         1 UNK         0.0600 
    192 H192       -5.0402  -20.6833  -50.0781 H         1 UNK         0.0600 
    193 H193       -6.0301  -22.1343  -49.9843 H         1 UNK         0.0600 
    194 H194       -5.6233  -21.2468  -48.5172 H         1 UNK         0.0600 
    195 H195       -4.1909  -22.6018  -46.7639 H         1 UNK         0.3000 
    196 H196       -5.3839  -25.1543  -46.4821 H         1 UNK         0.0600 
    197 H197       -4.8012  -24.8787  -44.0682 H         1 UNK         0.0600 
    198 H198       -5.5193  -23.4192  -44.7307 H         1 UNK         0.0600 
    199 H199       -3.7792  -23.5028  -44.4628 H         1 UNK         0.0600 
    200 H200       -1.9270  -24.1650  -46.2202 H         1 UNK         0.3000 
    201 H201       -0.8659  -26.7234  -45.6153 H         1 UNK         0.0600 
    202 H202        0.3908  -24.6180  -45.2785 H         1 UNK         0.0600 
    203 H203        0.4236  -24.3199  -47.0149 H         1 UNK         0.0600 
    204 H204        1.2981  -25.6885  -46.3361 H         1 UNK         0.0600 
    205 H205       -1.5958  -25.1727  -48.7295 H         1 UNK         0.3000 
    206 H206       -0.5968  -27.3728  -50.3634 H         1 UNK         0.0600 
    207 H207       -0.5159  -25.0273  -51.1555 H         1 UNK         0.0600 
    208 H208       -1.5662  -25.9688  -52.2029 H         1 UNK         0.0600 
    209 H209       -2.2634  -24.8895  -50.9985 H         1 UNK         0.0600 
    210 H210       -3.2701  -27.2265  -48.3938 H         1 UNK         0.3000 
    211 H211       -5.2154  -28.2355  -48.1763 H         1 UNK         0.0600 
    212 H212       -4.1601  -30.2846  -50.1971 H         1 UNK         0.0600 
    213 H213       -5.4402  -30.5442  -49.0194 H         1 UNK         0.0600 
    214 H214       -3.7938  -30.2779  -48.4722 H         1 UNK         0.0600 
    215 H215       -5.1419  -26.1093  -50.0304 H         1 UNK         0.3000 
    216 H216       -6.2560  -24.9571  -51.5029 H         1 UNK         0.0600 
    217 H217       -8.2388  -25.6166  -50.1250 H         1 UNK         0.0600 
    218 H218       -8.5442  -26.9716  -51.2121 H         1 UNK         0.0600 
    219 H219       -8.6710  -25.3203  -51.7998 H         1 UNK         0.0600 
    220 H220       -4.7720  -27.5963  -52.4603 H         1 UNK         0.3000 
    221 H221       -5.8745  -27.9683  -55.1431 H         1 UNK         0.0600 
    222 H222       -3.2297  -28.9185  -53.9213 H         1 UNK         0.0600 
    223 H223       -4.7456  -29.8187  -53.8743 H         1 UNK         0.0600 
    224 H224       -3.9599  -29.4942  -55.4126 H         1 UNK         0.0600 
    225 H225       -3.7717  -25.7093  -53.6174 H         1 UNK         0.3000 
    226 H226       -3.2991  -24.2260  -56.0198 H         1 UNK         0.0600 
    227 H227       -1.3226  -25.8067  -56.1060 H         1 UNK         0.0600 
    228 H228       -0.8002  -24.1673  -55.7684 H         1 UNK         0.0600 
    229 H229       -0.8813  -25.3449  -54.4645 H         1 UNK         0.0600 
    230 H230       -2.0108  -22.2023  -55.2936 H         1 UNK         0.3000 
    231 H231       -1.7748  -20.3602  -54.1230 H         1 UNK         0.0600 
    232 H232       -1.0699  -20.5371  -51.7581 H         1 UNK         0.0600 
    233 H233       -0.3098  -21.7894  -52.7245 H         1 UNK         0.0600 
    234 H234       -1.6640  -22.1884  -51.6712 H         1 UNK         0.0600 
    235 H235       -4.6657  -21.6946  -54.1466 H         1 UNK         0.3000 
    236 H236       -6.0824  -20.1667  -52.1055 H         1 UNK         0.0600 
    237 H237       -8.0741  -21.2209  -53.1484 H         1 UNK         0.0600 
    238 H238       -7.0808  -21.8617  -54.4533 H         1 UNK         0.0600 
    239 H239       -6.8430  -22.4241  -52.7996 H         1 UNK         0.0600 
    240 H240       -4.7392  -18.2516  -53.1076 H         1 UNK         0.3000 
    241 H241       -5.8551  -17.0033  -55.4656 H         1 UNK         0.0600 
    242 H242       -7.1489  -16.9990  -52.2896 H         1 UNK         0.3800 
    243 H243       -8.0653  -15.5248  -52.4627 H         1 UNK         0.3800 
    244 H244       -3.5029  -16.7609  -55.0786 H         1 UNK         0.0800 
    245 H245       -4.2272  -15.1847  -55.0202 H         1 UNK         0.0800 
    246 H246       -1.8271  -17.5950  -53.2436 H         1 UNK         0.0800 
    247 H247       -1.3045  -16.0910  -53.9726 H         1 UNK         0.0800 
@<TRIPOS>BOND
     1    1    2 1    
     2    1  127 1    
     3    1  128 1    
     4    1  129 1    
     5    2    3 2    
     6    2    4 am   BACKBONE|DICT|INTERRES
     7    4    5 1    
     8    4  130 1    
     9    5    6 1    
    10    5   65 1    
    11    5  131 1    
    12    6    7 1    
    13    6  132 1    
    14    6  133 1    
    15    7    8 1    
    16    8    9 1    
    17    8  134 1    
    18    8  135 1    
    19    9   10 ar   
    20    9   14 ar   
    21   10   11 ar   
    22   10  136 1    
    23   11   12 ar   
    24   11  126 1    
    25   12   13 ar   
    26   12  137 1    
    27   13   14 ar   
    28   13   15 1    
    29   14  138 1    
    30   15   16 1    
    31   15  139 1    
    32   15  140 1    
    33   16   17 1    
    34   17   18 1    
    35   17  141 1    
    36   17  142 1    
    37   18   19 1    
    38   18   67 1    
    39   18  143 1    
    40   19   20 am   BACKBONE|DICT|INTERRES
    41   19  144 1    
    42   20   21 2    
    43   20   22 1    
    44   22   23 1    
    45   22   24 1    
    46   22  145 1    
    47   23  146 1    
    48   23  147 1    
    49   23  148 1    
    50   24   25 am   BACKBONE|DICT|INTERRES
    51   24  149 1    
    52   25   26 2    
    53   25   27 1    
    54   27   28 1    
    55   27   29 1    
    56   27  150 1    
    57   28  151 1    
    58   28  152 1    
    59   28  153 1    
    60   29   30 am   BACKBONE|DICT|INTERRES
    61   29  154 1    
    62   30   31 2    
    63   30   32 1    
    64   32   33 1    
    65   32   34 1    
    66   32  155 1    
    67   33  156 1    
    68   33  157 1    
    69   33  158 1    
    70   34   35 am   BACKBONE|DICT|INTERRES
    71   34  159 1    
    72   35   36 2    
    73   35   37 1    
    74   37   38 1    
    75   37   39 1    
    76   37  160 1    
    77   38  161 1    
    78   38  162 1    
    79   38  163 1    
    80   39   40 am   BACKBONE|DICT|INTERRES
    81   39  164 1    
    82   40   41 2    
    83   40   42 1    
    84   42   43 1    
    85   42   44 1    
    86   42  165 1    
    87   43  166 1    
    88   43  167 1    
    89   43  168 1    
    90   44   45 am   BACKBONE|DICT|INTERRES
    91   44  169 1    
    92   45   46 2    
    93   45   47 1    
    94   47   48 1    
    95   47   49 1    
    96   47  170 1    
    97   48  171 1    
    98   48  172 1    
    99   48  173 1    
   100   49   50 am   BACKBONE|DICT|INTERRES
   101   49  174 1    
   102   50   51 2    
   103   50   52 1    
   104   52   53 1    
   105   52   54 1    
   106   52  175 1    
   107   53  176 1    
   108   53  177 1    
   109   53  178 1    
   110   54   55 am   BACKBONE|DICT|INTERRES
   111   54  179 1    
   112   55   56 2    
   113   55   57 1    
   114   57   58 1    
   115   57   59 1    
   116   57  180 1    
   117   58  181 1    
   118   58  182 1    
   119   58  183 1    
   120   59   60 am   BACKBONE|DICT|INTERRES
   121   59  184 1    
   122   60   61 2    
   123   60   62 1    
   124   62   63 1    
   125   62   64 1    
   126   62  185 1    
   127   63  186 1    
   128   63  187 1    
   129   63  188 1    
   130   64   65 am   BACKBONE|DICT|INTERRES
   131   64  189 1    
   132   65   66 2    
   133   67   68 2    
   134   67   69 am   BACKBONE|DICT|INTERRES
   135   69   70 1    
   136   69  190 1    
   137   70   71 1    
   138   70   72 1    
   139   70  191 1    
   140   71  192 1    
   141   71  193 1    
   142   71  194 1    
   143   72   73 2    
   144   72   74 am   BACKBONE|DICT|INTERRES
   145   74   75 1    
   146   74  195 1    
   147   75   76 1    
   148   75   77 1    
   149   75  196 1    
   150   76  197 1    
   151   76  198 1    
   152   76  199 1    
   153   77   78 2    
   154   77   79 am   BACKBONE|DICT|INTERRES
   155   79   80 1    
   156   79  200 1    
   157   80   81 1    
   158   80   82 1    
   159   80  201 1    
   160   81  202 1    
   161   81  203 1    
   162   81  204 1    
   163   82   83 2    
   164   82   84 am   BACKBONE|DICT|INTERRES
   165   84   85 1    
   166   84  205 1    
   167   85   86 1    
   168   85   87 1    
   169   85  206 1    
   170   86  207 1    
   171   86  208 1    
   172   86  209 1    
   173   87   88 2    
   174   87   89 am   BACKBONE|DICT|INTERRES
   175   89   90 1    
   176   89  210 1    
   177   90   91 1    
   178   90   92 1    
   179   90  211 1    
   180   91  212 1    
   181   91  213 1    
   182   91  214 1    
   183   92   93 2    
   184   92   94 am   BACKBONE|DICT|INTERRES
   185   94   95 1    
   186   94  215 1    
   187   95   96 1    
   188   95   97 1    
   189   95  216 1    
   190   96  217 1    
   191   96  218 1    
   192   96  219 1    
   193   97   98 2    
   194   97   99 am   BACKBONE|DICT|INTERRES
   195   99  100 1    
   196   99  220 1    
   197  100  101 1    
   198  100  102 1    
   199  100  221 1    
   200  101  222 1    
   201  101  223 1    
   202  101  224 1    
   203  102  103 2    
   204  102  104 am   BACKBONE|DICT|INTERRES
   205  104  105 1    
   206  104  225 1    
   207  105  106 1    
   208  105  107 1    
   209  105  226 1    
   210  106  227 1    
   211  106  228 1    
   212  106  229 1    
   213  107  108 2    
   214  107  109 am   BACKBONE|DICT|INTERRES
   215  109  110 1    
   216  109  230 1    
   217  110  111 1    
   218  110  112 1    
   219  110  231 1    
   220  111  232 1    
   221  111  233 1    
   222  111  234 1    
   223  112  113 2    
   224  112  114 am   BACKBONE|DICT|INTERRES
   225  114  115 1    
   226  114  235 1    
   227  115  116 1    
   228  115  117 1    
   229  115  236 1    
   230  116  237 1    
   231  116  238 1    
   232  116  239 1    
   233  117  118 2    
   234  117  119 am   BACKBONE|DICT|INTERRES
   235  119  120 1    
   236  119  240 1    
   237  120  121 1    
   238  120  124 1    
   239  120  241 1    
   240  121  122 am   BACKBONE|DICT|INTERRES
   241  121  123 2    
   242  122  242 1    
   243  122  243 1    
   244  124  125 1    
   245  124  244 1    
   246  124  245 1    
   247  125  126 1    
   248  126  246 1    
   249  126  247 1    
@<TRIPOS>SUBSTRUCTURE
     1 UNK         1 GROUP             0       ****    0 ROOT    
