@<TRIPOS>MOLECULE
3R540
247   249    1
SMALL
USER_CHARGES


@<TRIPOS>ATOM
      1 CA         -6.0555  -15.1411  -47.4917 C.3       0 UNK        -0.1800 
      2 C          -4.6563  -15.0622  -46.9007 C.2       0 UNK         0.5000 
      3 O          -4.4357  -14.3294  -45.9351 O.2       0 UNK        -0.5000 
      4 N          -3.7106  -15.8303  -47.4594 N.am      1 UNK        -0.5000 
      5 CA         -2.2944  -15.8664  -47.0666 C.3       1 UNK         0.1400 
      6 C6         -1.4447  -16.7234  -48.0332 C.3       23 UNK        -0.0398 
      7 S7         -1.1128  -15.8273  -49.5874 S.3       23 UNK        -0.2404 
      8 C8         -0.6918  -17.1831  -50.7373 C.3       23 UNK        -0.0205 
      9 C9          0.6459  -17.8974  -50.5104 C.ar      23 UNK        -0.0193 
     10 C10         0.9666  -18.9683  -51.3530 C.ar      23 UNK        -0.1150 
     11 C11         2.1629  -19.6748  -51.1977 C.ar      23 UNK        -0.0193 
     12 C12         3.0500  -19.3060  -50.1865 C.ar      23 UNK        -0.1150 
     13 C13         2.7514  -18.2405  -49.3356 C.ar      23 UNK        -0.0193 
     14 C14         1.5599  -17.5305  -49.5112 C.ar      23 UNK        -0.1150 
     15 C15         3.7145  -17.8737  -48.2170 C.3       23 UNK        -0.0205 
     16 S16         3.8346  -19.2002  -46.9748 S.3       23 UNK        -0.2404 
     17 C17         2.1573  -19.1828  -46.2569 C.3       23 UNK        -0.0398 
     18 CA          1.2123  -20.2593  -46.8457 C.3       11 UNK         0.1400 
     19 N           1.7726  -21.6109  -46.7629 N.am      11 UNK        -0.5000 
     20 C           1.2604  -22.6943  -47.3626 C.2       10 UNK         0.5000 
     21 O           0.2527  -22.6782  -48.0666 O.2       10 UNK        -0.5000 
     22 CA          1.9638  -24.0328  -47.0747 C.3       10 UNK         0.1400 
     23 CB          3.2276  -24.1756  -47.9366 C.3       10 UNK        -0.1800 
     24 N           2.3142  -24.1834  -45.6606 N.am      10 UNK        -0.5000 
     25 C           1.4219  -24.2620  -44.6616 C.2       9 UNK         0.5000 
     26 O           0.2049  -24.2906  -44.8352 O.2       9 UNK        -0.5000 
     27 CA          1.9774  -24.2514  -43.2239 C.3       9 UNK         0.1400 
     28 CB          2.2618  -25.6826  -42.7454 C.3       9 UNK        -0.1800 
     29 N           3.1880  -23.4384  -43.0729 N.am      9 UNK        -0.5000 
     30 C           3.2623  -22.1240  -43.3227 C.2       8 UNK         0.5000 
     31 O           2.3020  -21.4491  -43.6990 O.2       8 UNK        -0.5000 
     32 CA          4.6653  -21.5009  -43.2067 C.3       8 UNK         0.1400 
     33 CB          5.5415  -21.9473  -44.3899 C.3       8 UNK        -0.1800 
     34 N           4.6525  -20.0395  -43.1804 N.am      8 UNK        -0.5000 
     35 C           4.2313  -19.2737  -42.1659 C.2       7 UNK         0.5000 
     36 O           3.7746  -19.7227  -41.1120 O.2       7 UNK        -0.5000 
     37 CA          4.4242  -17.7466  -42.3182 C.3       7 UNK         0.1400 
     38 CB          4.8970  -17.2990  -43.7215 C.3       7 UNK        -0.1800 
     39 N           3.2557  -16.9587  -41.9188 N.am      7 UNK        -0.5000 
     40 C           2.0235  -17.0277  -42.4403 C.2       6 UNK         0.5000 
     41 O           1.6554  -17.8819  -43.2447 O.2       6 UNK        -0.5000 
     42 CA          1.0380  -15.9062  -42.0682 C.3       6 UNK         0.1400 
     43 CB          1.3696  -15.1489  -40.7627 C.3       6 UNK        -0.1800 
     44 N           0.8934  -14.9965  -43.2073 N.am      6 UNK        -0.5000 
     45 C           1.8395  -14.2203  -43.7603 C.2       5 UNK         0.5000 
     46 O           2.9538  -14.0317  -43.2716 O.2       5 UNK        -0.5000 
     47 CA          1.4895  -13.5399  -45.0935 C.3       5 UNK         0.1400 
     48 CB          1.8090  -14.4751  -46.2741 C.3       5 UNK        -0.1800 
     49 N           0.0783  -13.1500  -45.1468 N.am      5 UNK        -0.5000 
     50 C          -0.3575  -11.8871  -45.2400 C.2       4 UNK         0.5000 
     51 O           0.3877  -10.9087  -45.3115 O.2       4 UNK        -0.5000 
     52 CA         -1.8808  -11.6614  -45.2636 C.3       4 UNK         0.1400 
     53 CB         -2.4076  -11.6472  -46.7069 C.3       4 UNK        -0.1800 
     54 N          -2.6445  -12.6320  -44.4770 N.am      4 UNK        -0.5000 
     55 C          -2.6863  -12.6448  -43.1362 C.2       3 UNK         0.5000 
     56 O          -2.0002  -11.9111  -42.4241 O.2       3 UNK        -0.5000 
     57 CA         -3.6712  -13.6244  -42.4782 C.3       3 UNK         0.1400 
     58 CB         -5.1038  -13.0716  -42.5439 C.3       3 UNK        -0.1800 
     59 N          -3.6316  -14.9270  -43.1363 N.am      3 UNK        -0.5000 
     60 C          -3.0493  -16.0208  -42.6276 C.2       2 UNK         0.5000 
     61 O          -2.5477  -16.0727  -41.5047 O.2       2 UNK        -0.5000 
     62 CA         -3.0022  -17.2724  -43.5282 C.3       2 UNK         0.1400 
     63 CB         -4.1931  -18.1909  -43.2129 C.3       2 UNK        -0.1800 
     64 N          -2.9985  -16.9675  -44.9618 N.am      2 UNK        -0.5000 
     65 C          -2.0531  -16.2589  -45.5928 C.2       1 UNK         0.5000 
     66 O          -1.0479  -15.8330  -45.0286 O.2       1 UNK        -0.5000 
     67 C          -0.1702  -20.1871  -46.1680 C.2       11 UNK         0.5000 
     68 O          -1.0785  -19.5538  -46.7035 O.2       11 UNK        -0.5000 
     69 N          -0.3184  -20.8719  -45.0250 N.am      12 UNK        -0.5000 
     70 CA         -1.5875  -21.0143  -44.3159 C.3       12 UNK         0.1400 
     71 CB         -1.3445  -21.6270  -42.9294 C.3       12 UNK        -0.1800 
     72 C          -2.6230  -21.8249  -45.1181 C.2       12 UNK         0.5000 
     73 O          -3.7661  -21.3875  -45.2455 O.2       12 UNK        -0.5000 
     74 N          -2.2012  -22.9673  -45.6798 N.am      13 UNK        -0.5000 
     75 CA         -3.0270  -23.8365  -46.5229 C.3       13 UNK         0.1400 
     76 CB         -2.2602  -25.1291  -46.8377 C.3       13 UNK        -0.1800 
     77 C          -3.4955  -23.1569  -47.8224 C.2       13 UNK         0.5000 
     78 O          -4.6288  -23.3791  -48.2508 O.2       13 UNK        -0.5000 
     79 N          -2.6409  -22.3026  -48.4020 N.am      14 UNK        -0.5000 
     80 CA         -2.9200  -21.5268  -49.6104 C.3       14 UNK         0.1400 
     81 CB         -1.6456  -20.8072  -50.0649 C.3       14 UNK        -0.1800 
     82 C          -4.0844  -20.5272  -49.4732 C.2       14 UNK         0.5000 
     83 O          -4.6408  -20.1231  -50.4930 O.2       14 UNK        -0.5000 
     84 N          -4.4741  -20.1677  -48.2412 N.am      15 UNK        -0.5000 
     85 CA         -5.6612  -19.3543  -47.9700 C.3       15 UNK         0.1400 
     86 CB         -5.6793  -18.9452  -46.4935 C.3       15 UNK        -0.1800 
     87 C          -6.9723  -20.0710  -48.3427 C.2       15 UNK         0.5000 
     88 O          -7.8958  -19.4189  -48.8287 O.2       15 UNK        -0.5000 
     89 N          -7.0182  -21.3985  -48.1535 N.am      16 UNK        -0.5000 
     90 CA         -8.1537  -22.2438  -48.5323 C.3       16 UNK         0.1400 
     91 CB         -8.0644  -23.5855  -47.7896 C.3       16 UNK        -0.1800 
     92 C          -8.2313  -22.4658  -50.0544 C.2       16 UNK         0.5000 
     93 O          -9.3277  -22.6195  -50.5928 O.2       16 UNK        -0.5000 
     94 N          -7.0691  -22.4471  -50.7215 N.am      17 UNK        -0.5000 
     95 CA         -6.9369  -22.5098  -52.1787 C.3       17 UNK         0.1400 
     96 CB         -5.5191  -22.9931  -52.5232 C.3       17 UNK        -0.1800 
     97 C          -7.2252  -21.1605  -52.8708 C.2       17 UNK         0.5000 
     98 O          -7.3864  -21.1393  -54.0913 O.2       17 UNK        -0.5000 
     99 N          -7.2718  -20.0717  -52.0862 N.am      18 UNK        -0.5000 
    100 CA        -7.3738  -18.6693  -52.5005 C.3       18 UNK         0.1400 
    101 CB        -8.7213  -18.3859  -53.1970 C.3       18 UNK        -0.1800 
    102 C         -6.1455  -18.2305  -53.3247 C.2       18 UNK         0.5000 
    103 O         -6.2902  -17.6219  -54.3869 O.2       18 UNK        -0.5000 
    104 N         -4.9564  -18.5705  -52.8059 N.am      19 UNK        -0.5000 
    105 CA        -3.6362  -18.4136  -53.4144 C.3       19 UNK         0.1400 
    106 CB        -3.2670  -16.9222  -53.5831 C.3       19 UNK        -0.1800 
    107 C         -3.5154  -19.2690  -54.6920 C.2       19 UNK         0.5000 
    108 O         -3.7271  -20.4792  -54.6107 O.2       19 UNK        -0.5000 
    109 N         -3.1645  -18.6426  -55.8260 N.am      20 UNK        -0.5000 
    110 CA        -2.9662  -19.2540  -57.1487 C.3       20 UNK         0.1400 
    111 CB        -4.2889  -19.8351  -57.6931 C.3       20 UNK        -0.1800 
    112 C         -1.7952  -20.2630  -57.1884 C.2       20 UNK         0.5000 
    113 O         -1.8482  -21.2397  -57.9385 O.2       20 UNK        -0.5000 
    114 N         -0.7539  -19.9717  -56.3927 N.am      21 UNK        -0.5000 
    115 CA         0.4780  -20.7370  -56.1646 C.3       21 UNK         0.1400 
    116 CB         1.2398  -20.9859  -57.4833 C.3       21 UNK        -0.1800 
    117 C          0.2663  -22.0451  -55.3727 C.2       21 UNK         0.5000 
    118 O         -0.8525  -22.5467  -55.2505 O.2       21 UNK        -0.5000 
    119 N          1.3733  -22.5636  -54.8313 N.am      22 UNK        -0.5000 
    120 CA         1.4270  -23.7817  -54.0033 C.3       22 UNK         0.1400 
    121 C          1.8151  -25.0602  -54.8046 C.2       22 UNK         0.5000 
    122 N          2.0484  -24.9886  -56.1098 N.am      22 UNK        -0.7600 
    123 O          1.8920  -26.1457  -54.2356 O.2       22 UNK        -0.5000 
    124 C124        2.3525  -23.5794  -52.7736 C.3       23 UNK        -0.0398 
    125 S125        1.6866  -22.3659  -51.5832 S.3       23 UNK        -0.2404 
    126 C126        2.5028  -20.8327  -52.1211 C.3       23 UNK        -0.0205 
    127 H127       -6.1027  -15.8302  -48.3351 H         1 UNK         0.0600 
    128 H128       -6.3705  -14.1567  -47.8376 H         1 UNK         0.0600 
    129 H129       -6.7624  -15.4800  -46.7346 H         1 UNK         0.0600 
    130 H130       -3.9479  -16.3901  -48.2651 H         1 UNK         0.3000 
    131 H131       -1.9298  -14.8410  -47.1357 H         1 UNK         0.0600 
    132 H132       -0.4846  -16.9839  -47.5860 H         1 UNK         0.0800 
    133 H133       -1.9462  -17.6667  -48.2537 H         1 UNK         0.0800 
    134 H134       -1.5013  -17.9125  -50.7172 H         1 UNK         0.0800 
    135 H135       -0.6828  -16.7665  -51.7452 H         1 UNK         0.0800 
    136 H136        0.2775  -19.2618  -52.1324 H         1 UNK         0.1150 
    137 H137        3.9704  -19.8565  -50.0502 H         1 UNK         0.1150 
    138 H138        1.3570  -16.6964  -48.8577 H         1 UNK         0.1150 
    139 H139        4.7033  -17.6971  -48.6422 H         1 UNK         0.0800 
    140 H140        3.4191  -16.9437  -47.7290 H         1 UNK         0.0800 
    141 H141        1.7256  -18.1863  -46.3672 H         1 UNK         0.0800 
    142 H142        2.2767  -19.3398  -45.1863 H         1 UNK         0.0800 
    143 H143        1.0605  -20.0377  -47.9039 H         1 UNK         0.0600 
    144 H144        2.5738  -21.7182  -46.1599 H         1 UNK         0.3000 
    145 H145        1.2748  -24.8371  -47.3412 H         1 UNK         0.0600 
    146 H146        3.6902  -25.1532  -47.7998 H         1 UNK         0.0600 
    147 H147        2.9887  -24.0748  -48.9964 H         1 UNK         0.0600 
    148 H148        3.9707  -23.4145  -47.6949 H         1 UNK         0.0600 
    149 H149        3.2959  -24.1737  -45.4286 H         1 UNK         0.3000 
    150 H150        1.2089  -23.8222  -42.5781 H         1 UNK         0.0600 
    151 H151        3.0477  -26.1565  -43.3349 H         1 UNK         0.0600 
    152 H152        1.3697  -26.3053  -42.8265 H         1 UNK         0.0600 
    153 H153        2.5708  -25.6954  -41.7000 H         1 UNK         0.0600 
    154 H154        4.0204  -23.9277  -42.7767 H         1 UNK         0.3000 
    155 H155        5.1191  -21.8540  -42.2784 H         1 UNK         0.0600 
    156 H156        5.1221  -21.6278  -45.3449 H         1 UNK         0.0600 
    157 H157        5.6445  -23.0324  -44.4235 H         1 UNK         0.0600 
    158 H158        6.5476  -21.5343  -44.3129 H         1 UNK         0.0600 
    159 H159        4.9752  -19.5790  -44.0183 H         1 UNK         0.3000 
    160 H160        5.2148  -17.4829  -41.6145 H         1 UNK         0.0600 
    161 H161        4.1635  -17.5369  -44.4919 H         1 UNK         0.0600 
    162 H162        5.8431  -17.7658  -43.9979 H         1 UNK         0.0600 
    163 H163        5.0581  -16.2211  -43.7499 H         1 UNK         0.0600 
    164 H164        3.4402  -16.2151  -41.2610 H         1 UNK         0.3000 
    165 H165        0.0697  -16.3873  -41.9304 H         1 UNK         0.0600 
    166 H166        0.5878  -14.4256  -40.5301 H         1 UNK         0.0600 
    167 H167        1.4298  -15.8383  -39.9197 H         1 UNK         0.0600 
    168 H168        2.3132  -14.6062  -40.8129 H         1 UNK         0.0600 
    169 H169        0.0667  -15.1753  -43.7715 H         1 UNK         0.3000 
    170 H170        2.1340  -12.6631  -45.1832 H         1 UNK         0.0600 
    171 H171        2.8680  -14.7359  -46.2857 H         1 UNK         0.0600 
    172 H172        1.2471  -15.4076  -46.2234 H         1 UNK         0.0600 
    173 H173        1.5804  -13.9991  -47.2277 H         1 UNK         0.0600 
    174 H174       -0.5960  -13.9021  -45.0720 H         1 UNK         0.3000 
    175 H175       -2.0657  -10.6723  -44.8387 H         1 UNK         0.0600 
    176 H176       -2.2507  -12.6011  -47.2078 H         1 UNK         0.0600 
    177 H177       -3.4750  -11.4270  -46.7351 H         1 UNK         0.0600 
    178 H178       -1.9027  -10.8821  -47.2980 H         1 UNK         0.0600 
    179 H179       -3.2710  -13.2422  -44.9957 H         1 UNK         0.3000 
    180 H180       -3.3960  -13.7158  -41.4253 H         1 UNK         0.0600 
    181 H181       -5.1676  -12.0932  -42.0661 H         1 UNK         0.0600 
    182 H182       -5.8021  -13.7313  -42.0287 H         1 UNK         0.0600 
    183 H183       -5.4484  -12.9591  -43.5728 H         1 UNK         0.0600 
    184 H184       -4.0007  -14.9624  -44.0803 H         1 UNK         0.3000 
    185 H185       -2.0771  -17.8045  -43.2978 H         1 UNK         0.0600 
    186 H186       -4.1551  -19.1118  -43.7928 H         1 UNK         0.0600 
    187 H187       -4.1994  -18.4740  -42.1595 H         1 UNK         0.0600 
    188 H188       -5.1446  -17.7023  -43.4269 H         1 UNK         0.0600 
    189 H189       -3.8074  -17.2566  -45.4888 H         1 UNK         0.3000 
    190 H190        0.4976  -21.3161  -44.6161 H         1 UNK         0.3000 
    191 H191       -1.9923  -20.0127  -44.1729 H         1 UNK         0.0600 
    192 H192       -0.6385  -21.0284  -42.3530 H         1 UNK         0.0600 
    193 H193       -2.2728  -21.6769  -42.3591 H         1 UNK         0.0600 
    194 H194       -0.9470  -22.6393  -42.9978 H         1 UNK         0.0600 
    195 H195       -1.2539  -23.2873  -45.4940 H         1 UNK         0.3000 
    196 H196       -3.9192  -24.1011  -45.9519 H         1 UNK         0.0600 
    197 H197       -2.8593  -25.7996  -47.4550 H         1 UNK         0.0600 
    198 H198       -2.0054  -25.6682  -45.9252 H         1 UNK         0.0600 
    199 H199       -1.3338  -24.9253  -47.3758 H         1 UNK         0.0600 
    200 H200       -1.7014  -22.2253  -48.0241 H         1 UNK         0.3000 
    201 H201       -3.1979  -22.2372  -50.3907 H         1 UNK         0.0600 
    202 H202       -1.8106  -20.2832  -51.0061 H         1 UNK         0.0600 
    203 H203       -0.8336  -21.5131  -50.2326 H         1 UNK         0.0600 
    204 H204       -1.3070  -20.0776  -49.3294 H         1 UNK         0.0600 
    205 H205       -3.9802  -20.5442  -47.4415 H         1 UNK         0.3000 
    206 H206       -5.5904  -18.4476  -48.5743 H         1 UNK         0.0600 
    207 H207       -4.7316  -18.4983  -46.2085 H         1 UNK         0.0600 
    208 H208       -6.4650  -18.2145  -46.2980 H         1 UNK         0.0600 
    209 H209       -5.8546  -19.7996  -45.8386 H         1 UNK         0.0600 
    210 H210       -6.1979  -21.8754  -47.7990 H         1 UNK         0.3000 
    211 H211       -9.0746  -21.7461  -48.2207 H         1 UNK         0.0600 
    212 H212       -7.1802  -24.1525  -48.0816 H         1 UNK         0.0600 
    213 H213       -8.9351  -24.2064  -48.0037 H         1 UNK         0.0600 
    214 H214       -8.0278  -23.4380  -46.7101 H         1 UNK         0.0600 
    215 H215       -6.2164  -22.3337  -50.1924 H         1 UNK         0.3000 
    216 H216       -7.6504  -23.2407  -52.5650 H         1 UNK         0.0600 
    217 H217       -5.4135  -23.1521  -53.5972 H         1 UNK         0.0600 
    218 H218       -5.2876  -23.9371  -52.0297 H         1 UNK         0.0600 
    219 H219       -4.7637  -22.2631  -52.2320 H         1 UNK         0.0600 
    220 H220       -7.1095  -20.2146  -51.0993 H         1 UNK         0.3000 
    221 H221       -7.3513  -18.0801  -51.5824 H         1 UNK         0.0600 
    222 H222       -8.7999  -18.8929  -54.1588 H         1 UNK         0.0600 
    223 H223       -9.5591  -18.7075  -52.5782 H         1 UNK         0.0600 
    224 H224       -8.8452  -17.3183  -53.3817 H         1 UNK         0.0600 
    225 H225       -4.9573  -19.1242  -51.9503 H         1 UNK         0.3000 
    226 H226       -2.9285  -18.8419  -52.7038 H         1 UNK         0.0600 
    227 H227       -2.2389  -16.8073  -53.9285 H         1 UNK         0.0600 
    228 H228       -3.9170  -16.4098  -54.2927 H         1 UNK         0.0600 
    229 H229       -3.3415  -16.3960  -52.6312 H         1 UNK         0.0600 
    230 H230       -3.0296  -17.6420  -55.7858 H         1 UNK         0.3000 
    231 H231       -2.6758  -18.4397  -57.8139 H         1 UNK         0.0600 
    232 H232       -4.6110  -20.7104  -57.1284 H         1 UNK         0.0600 
    233 H233       -4.1829  -20.1404  -58.7346 H         1 UNK         0.0600 
    234 H234       -5.0901  -19.0971  -57.6521 H         1 UNK         0.0600 
    235 H235       -0.8502  -19.1480  -55.8172 H         1 UNK         0.3000 
    236 H236        1.1008  -20.0925  -55.5422 H         1 UNK         0.0600 
    237 H237        1.3598  -20.0627  -58.0503 H         1 UNK         0.0600 
    238 H238        2.2395  -21.3769  -57.2922 H         1 UNK         0.0600 
    239 H239        0.7287  -21.7074  -58.1211 H         1 UNK         0.0600 
    240 H240        2.2601  -22.1118  -54.9991 H         1 UNK         0.3000 
    241 H241        0.4275  -23.9906  -53.6172 H         1 UNK         0.0600 
    242 H242        1.9686  -24.1123  -56.5994 H         1 UNK         0.3800 
    243 H243        2.2920  -25.8256  -56.6165 H         1 UNK         0.3800 
    244 H244        2.4700  -24.5146  -52.2235 H         1 UNK         0.0800 
    245 H245        3.3567  -23.2874  -53.0844 H         1 UNK         0.0800 
    246 H246        3.5825  -20.9867  -52.1514 H         1 UNK         0.0800 
    247 H247        2.1962  -20.5841  -53.1366 H         1 UNK         0.0800 
@<TRIPOS>BOND
     1    1    2 1    
     2    1  127 1    
     3    1  128 1    
     4    1  129 1    
     5    2    3 2    
     6    2    4 am   BACKBONE|DICT|INTERRES
     7    4    5 1    
     8    4  130 1    
     9    5    6 1    
    10    5   65 1    
    11    5  131 1    
    12    6    7 1    
    13    6  132 1    
    14    6  133 1    
    15    7    8 1    
    16    8    9 1    
    17    8  134 1    
    18    8  135 1    
    19    9   10 ar   
    20    9   14 ar   
    21   10   11 ar   
    22   10  136 1    
    23   11   12 ar   
    24   11  126 1    
    25   12   13 ar   
    26   12  137 1    
    27   13   14 ar   
    28   13   15 1    
    29   14  138 1    
    30   15   16 1    
    31   15  139 1    
    32   15  140 1    
    33   16   17 1    
    34   17   18 1    
    35   17  141 1    
    36   17  142 1    
    37   18   19 1    
    38   18   67 1    
    39   18  143 1    
    40   19   20 am   BACKBONE|DICT|INTERRES
    41   19  144 1    
    42   20   21 2    
    43   20   22 1    
    44   22   23 1    
    45   22   24 1    
    46   22  145 1    
    47   23  146 1    
    48   23  147 1    
    49   23  148 1    
    50   24   25 am   BACKBONE|DICT|INTERRES
    51   24  149 1    
    52   25   26 2    
    53   25   27 1    
    54   27   28 1    
    55   27   29 1    
    56   27  150 1    
    57   28  151 1    
    58   28  152 1    
    59   28  153 1    
    60   29   30 am   BACKBONE|DICT|INTERRES
    61   29  154 1    
    62   30   31 2    
    63   30   32 1    
    64   32   33 1    
    65   32   34 1    
    66   32  155 1    
    67   33  156 1    
    68   33  157 1    
    69   33  158 1    
    70   34   35 am   BACKBONE|DICT|INTERRES
    71   34  159 1    
    72   35   36 2    
    73   35   37 1    
    74   37   38 1    
    75   37   39 1    
    76   37  160 1    
    77   38  161 1    
    78   38  162 1    
    79   38  163 1    
    80   39   40 am   BACKBONE|DICT|INTERRES
    81   39  164 1    
    82   40   41 2    
    83   40   42 1    
    84   42   43 1    
    85   42   44 1    
    86   42  165 1    
    87   43  166 1    
    88   43  167 1    
    89   43  168 1    
    90   44   45 am   BACKBONE|DICT|INTERRES
    91   44  169 1    
    92   45   46 2    
    93   45   47 1    
    94   47   48 1    
    95   47   49 1    
    96   47  170 1    
    97   48  171 1    
    98   48  172 1    
    99   48  173 1    
   100   49   50 am   BACKBONE|DICT|INTERRES
   101   49  174 1    
   102   50   51 2    
   103   50   52 1    
   104   52   53 1    
   105   52   54 1    
   106   52  175 1    
   107   53  176 1    
   108   53  177 1    
   109   53  178 1    
   110   54   55 am   BACKBONE|DICT|INTERRES
   111   54  179 1    
   112   55   56 2    
   113   55   57 1    
   114   57   58 1    
   115   57   59 1    
   116   57  180 1    
   117   58  181 1    
   118   58  182 1    
   119   58  183 1    
   120   59   60 am   BACKBONE|DICT|INTERRES
   121   59  184 1    
   122   60   61 2    
   123   60   62 1    
   124   62   63 1    
   125   62   64 1    
   126   62  185 1    
   127   63  186 1    
   128   63  187 1    
   129   63  188 1    
   130   64   65 am   BACKBONE|DICT|INTERRES
   131   64  189 1    
   132   65   66 2    
   133   67   68 2    
   134   67   69 am   BACKBONE|DICT|INTERRES
   135   69   70 1    
   136   69  190 1    
   137   70   71 1    
   138   70   72 1    
   139   70  191 1    
   140   71  192 1    
   141   71  193 1    
   142   71  194 1    
   143   72   73 2    
   144   72   74 am   BACKBONE|DICT|INTERRES
   145   74   75 1    
   146   74  195 1    
   147   75   76 1    
   148   75   77 1    
   149   75  196 1    
   150   76  197 1    
   151   76  198 1    
   152   76  199 1    
   153   77   78 2    
   154   77   79 am   BACKBONE|DICT|INTERRES
   155   79   80 1    
   156   79  200 1    
   157   80   81 1    
   158   80   82 1    
   159   80  201 1    
   160   81  202 1    
   161   81  203 1    
   162   81  204 1    
   163   82   83 2    
   164   82   84 am   BACKBONE|DICT|INTERRES
   165   84   85 1    
   166   84  205 1    
   167   85   86 1    
   168   85   87 1    
   169   85  206 1    
   170   86  207 1    
   171   86  208 1    
   172   86  209 1    
   173   87   88 2    
   174   87   89 am   BACKBONE|DICT|INTERRES
   175   89   90 1    
   176   89  210 1    
   177   90   91 1    
   178   90   92 1    
   179   90  211 1    
   180   91  212 1    
   181   91  213 1    
   182   91  214 1    
   183   92   93 2    
   184   92   94 am   BACKBONE|DICT|INTERRES
   185   94   95 1    
   186   94  215 1    
   187   95   96 1    
   188   95   97 1    
   189   95  216 1    
   190   96  217 1    
   191   96  218 1    
   192   96  219 1    
   193   97   98 2    
   194   97   99 am   BACKBONE|DICT|INTERRES
   195   99  100 1    
   196   99  220 1    
   197  100  101 1    
   198  100  102 1    
   199  100  221 1    
   200  101  222 1    
   201  101  223 1    
   202  101  224 1    
   203  102  103 2    
   204  102  104 am   BACKBONE|DICT|INTERRES
   205  104  105 1    
   206  104  225 1    
   207  105  106 1    
   208  105  107 1    
   209  105  226 1    
   210  106  227 1    
   211  106  228 1    
   212  106  229 1    
   213  107  108 2    
   214  107  109 am   BACKBONE|DICT|INTERRES
   215  109  110 1    
   216  109  230 1    
   217  110  111 1    
   218  110  112 1    
   219  110  231 1    
   220  111  232 1    
   221  111  233 1    
   222  111  234 1    
   223  112  113 2    
   224  112  114 am   BACKBONE|DICT|INTERRES
   225  114  115 1    
   226  114  235 1    
   227  115  116 1    
   228  115  117 1    
   229  115  236 1    
   230  116  237 1    
   231  116  238 1    
   232  116  239 1    
   233  117  118 2    
   234  117  119 am   BACKBONE|DICT|INTERRES
   235  119  120 1    
   236  119  240 1    
   237  120  121 1    
   238  120  124 1    
   239  120  241 1    
   240  121  122 am   BACKBONE|DICT|INTERRES
   241  121  123 2    
   242  122  242 1    
   243  122  243 1    
   244  124  125 1    
   245  124  244 1    
   246  124  245 1    
   247  125  126 1    
   248  126  246 1    
   249  126  247 1    
@<TRIPOS>SUBSTRUCTURE
     1 UNK         1 GROUP             0       ****    0 ROOT    
