@<TRIPOS>MOLECULE
3R540
247   249    1
SMALL
USER_CHARGES


@<TRIPOS>ATOM
      1 CA          3.0697   -9.4212  -47.3994 C.3       0 UNK        -0.1800 
      2 C           3.4756  -10.7800  -47.9518 C.2       0 UNK         0.5000 
      3 O           4.6003  -10.9376  -48.4269 O.2       0 UNK        -0.5000 
      4 N           2.5652  -11.7603  -47.8911 N.am      1 UNK        -0.5000 
      5 CA          2.7741  -13.1360  -48.3662 C.3       1 UNK         0.1400 
      6 C6          1.4405  -13.9081  -48.5020 C.3       23 UNK        -0.0398 
      7 S7          0.3424  -13.1586  -49.7504 S.3       23 UNK        -0.2404 
      8 C8          0.6851  -14.2039  -51.2023 C.3       23 UNK        -0.0205 
      9 C9          0.0723  -15.5892  -51.0609 C.ar      23 UNK        -0.0193 
     10 C10        -1.3091  -15.7532  -51.1878 C.ar      23 UNK        -0.1150 
     11 C11        -1.8908  -17.0163  -51.0579 C.ar      23 UNK        -0.0193 
     12 C12        -1.0771  -18.1223  -50.7953 C.ar      23 UNK        -0.1150 
     13 C13         0.3100  -17.9763  -50.6819 C.ar      23 UNK        -0.0193 
     14 C14         0.8784  -16.7059  -50.8184 C.ar      23 UNK        -0.1150 
     15 C15         1.1952  -19.1989  -50.4701 C.3       23 UNK        -0.0205 
     16 S16         2.2093  -19.1330  -48.9529 S.3       23 UNK        -0.2404 
     17 C17         0.9799  -18.9894  -47.6132 C.3       23 UNK        -0.0398 
     18 CA          0.3091  -20.3389  -47.2337 C.3       11 UNK         0.1400 
     19 N           0.1215  -20.4941  -45.7865 N.am      11 UNK        -0.5000 
     20 C          -0.3595  -21.5918  -45.1819 C.2       10 UNK         0.5000 
     21 O          -0.6077  -22.6438  -45.7704 O.2       10 UNK        -0.5000 
     22 CA         -0.6820  -21.4779  -43.6793 C.3       10 UNK         0.1400 
     23 CB          0.5614  -21.7553  -42.8222 C.3       10 UNK        -0.1800 
     24 N          -1.2579  -20.1775  -43.3282 N.am      10 UNK        -0.5000 
     25 C          -2.4420  -19.7351  -43.7773 C.2       9 UNK         0.5000 
     26 O          -3.2036  -20.4151  -44.4637 O.2       9 UNK        -0.5000 
     27 CA         -2.8179  -18.2765  -43.4588 C.3       9 UNK         0.1400 
     28 CB         -3.4491  -18.1651  -42.0635 C.3       9 UNK        -0.1800 
     29 N          -1.6776  -17.3648  -43.5649 N.am      9 UNK        -0.5000 
     30 C          -1.0133  -17.1045  -44.7003 C.2       8 UNK         0.5000 
     31 O          -1.3380  -17.5591  -45.7973 O.2       8 UNK        -0.5000 
     32 CA          0.2649  -16.2513  -44.5801 C.3       8 UNK         0.1400 
     33 CB         -0.0616  -14.7516  -44.5510 C.3       8 UNK        -0.1800 
     34 N           1.0581  -16.6097  -43.4026 N.am      8 UNK        -0.5000 
     35 C           1.6695  -17.7920  -43.2412 C.2       7 UNK         0.5000 
     36 O           1.6812  -18.6705  -44.1021 O.2       7 UNK        -0.5000 
     37 CA          2.3241  -18.0642  -41.8748 C.3       7 UNK         0.1400 
     38 CB          3.7585  -17.5214  -41.8111 C.3       7 UNK        -0.1800 
     39 N           1.5400  -17.5074  -40.7744 N.am      7 UNK        -0.5000 
     40 C           0.3738  -18.0145  -40.3524 C.2       6 UNK         0.5000 
     41 O          -0.1380  -19.0298  -40.8230 O.2       6 UNK        -0.5000 
     42 CA         -0.3607  -17.2301  -39.2497 C.3       6 UNK         0.1400 
     43 CB          0.1615  -17.6304  -37.8620 C.3       6 UNK        -0.1800 
     44 N          -0.2362  -15.7806  -39.4151 N.am      6 UNK        -0.5000 
     45 C          -0.7677  -15.0866  -40.4316 C.2       5 UNK         0.5000 
     46 O          -1.4571  -15.5927  -41.3152 O.2       5 UNK        -0.5000 
     47 CA         -0.4285  -13.5867  -40.5019 C.3       5 UNK         0.1400 
     48 CB         -1.4413  -12.7658  -39.6903 C.3       5 UNK        -0.1800 
     49 N           0.9284  -13.2809  -40.0405 N.am      5 UNK        -0.5000 
     50 C           2.0487  -13.7192  -40.6284 C.2       4 UNK         0.5000 
     51 O           2.0638  -14.4500  -41.6230 O.2       4 UNK        -0.5000 
     52 CA          3.3667  -13.3203  -39.9563 C.3       4 UNK         0.1400 
     53 CB          3.7281  -14.3163  -38.8413 C.3       4 UNK        -0.1800 
     54 N           4.4293  -13.3066  -40.9547 N.am      4 UNK        -0.5000 
     55 C           5.4554  -12.4483  -40.9798 C.2       3 UNK         0.5000 
     56 O           5.6302  -11.5757  -40.1276 O.2       3 UNK        -0.5000 
     57 CA          6.4730  -12.5804  -42.1330 C.3       3 UNK         0.1400 
     58 CB          7.8066  -13.1360  -41.6075 C.3       3 UNK        -0.1800 
     59 N           6.0244  -13.4239  -43.2445 N.am      3 UNK        -0.5000 
     60 C           5.0902  -13.0831  -44.1398 C.2       2 UNK         0.5000 
     61 O           4.4712  -12.0153  -44.1170 O.2       2 UNK        -0.5000 
     62 CA          4.7974  -14.1216  -45.2324 C.3       2 UNK         0.1400 
     63 CB          4.1580  -15.3899  -44.6427 C.3       2 UNK        -0.1800 
     64 N           3.9020  -13.5298  -46.2161 N.am      2 UNK        -0.5000 
     65 C           3.7557  -13.9337  -47.4820 C.2       1 UNK         0.5000 
     66 O           4.3556  -14.8953  -47.9641 O.2       1 UNK        -0.5000 
     67 C          -1.0233  -20.5200  -47.9860 C.2       11 UNK         0.5000 
     68 O          -1.0920  -21.3176  -48.9195 O.2       11 UNK        -0.5000 
     69 N          -2.0671  -19.8079  -47.5383 N.am      12 UNK        -0.5000 
     70 CA         -3.4176  -19.8856  -48.0930 C.3       12 UNK         0.1400 
     71 CB         -4.3047  -18.8054  -47.4589 C.3       12 UNK        -0.1800 
     72 C          -4.0487  -21.2828  -47.9622 C.2       12 UNK         0.5000 
     73 O          -4.6678  -21.7514  -48.9159 O.2       12 UNK        -0.5000 
     74 N          -3.8419  -21.9439  -46.8155 N.am      13 UNK        -0.5000 
     75 CA         -4.2611  -23.3244  -46.5710 C.3       13 UNK         0.1400 
     76 CB         -4.0327  -23.6831  -45.0952 C.3       13 UNK        -0.1800 
     77 C          -3.5556  -24.3300  -47.4998 C.2       13 UNK         0.5000 
     78 O          -4.2207  -25.1939  -48.0713 O.2       13 UNK        -0.5000 
     79 N          -2.2341  -24.1778  -47.6686 N.am      14 UNK        -0.5000 
     80 CA         -1.4196  -24.9781  -48.5853 C.3       14 UNK         0.1400 
     81 CB          0.0683  -24.6739  -48.3549 C.3       14 UNK        -0.1800 
     82 C          -1.8022  -24.7630  -50.0613 C.2       14 UNK         0.5000 
     83 O          -1.8638  -25.7304  -50.8193 O.2       14 UNK        -0.5000 
     84 N          -2.0866  -23.5077  -50.4318 N.am      15 UNK        -0.5000 
     85 CA         -2.5766  -23.1140  -51.7509 C.3       15 UNK         0.1400 
     86 CB         -2.5698  -21.5828  -51.8604 C.3       15 UNK        -0.1800 
     87 C          -3.9687  -23.6947  -52.0550 C.2       15 UNK         0.5000 
     88 O          -4.1702  -24.2395  -53.1383 O.2       15 UNK        -0.5000 
     89 N          -4.8893  -23.6197  -51.0829 N.am      16 UNK        -0.5000 
     90 CA         -6.2378  -24.1886  -51.1621 C.3       16 UNK         0.1400 
     91 CB         -7.0700  -23.7027  -49.9669 C.3       16 UNK        -0.1800 
     92 C          -6.2569  -25.7263  -51.2523 C.2       16 UNK         0.5000 
     93 O          -7.1515  -26.2826  -51.8894 O.2       16 UNK        -0.5000 
     94 N          -5.2647  -26.3838  -50.6380 N.am      17 UNK        -0.5000 
     95 CA         -5.0458  -27.8297  -50.7172 C.3       17 UNK         0.1400 
     96 CB         -4.1373  -28.2597  -49.5544 C.3       17 UNK        -0.1800 
     97 C          -4.4579  -28.2920  -52.0685 C.2       17 UNK         0.5000 
     98 O          -4.4811  -29.4912  -52.3506 O.2       17 UNK        -0.5000 
     99 N          -3.9429  -27.3528  -52.8703 N.am      18 UNK        -0.5000 
    100 CA        -3.3826  -27.5689  -54.1996 C.3       18 UNK         0.1400 
    101 CB        -1.8707  -27.2662  -54.1492 C.3       18 UNK        -0.1800 
    102 C         -4.1698  -26.7025  -55.2016 C.2       18 UNK         0.5000 
    103 O         -5.4017  -26.7563  -55.2070 O.2       18 UNK        -0.5000 
    104 N         -3.4659  -25.9166  -56.0225 N.am      19 UNK        -0.5000 
    105 CA        -4.0179  -24.9084  -56.9191 C.3       19 UNK         0.1400 
    106 CB        -4.5307  -25.5715  -58.2107 C.3       19 UNK        -0.1800 
    107 C         -2.9068  -23.8842  -57.2278 C.2       19 UNK         0.5000 
    108 O         -1.7353  -24.2685  -57.2220 O.2       19 UNK        -0.5000 
    109 N         -3.2194  -22.6168  -57.5356 N.am      20 UNK        -0.5000 
    110 CA        -4.5257  -21.9649  -57.4137 C.3       20 UNK         0.1400 
    111 CB        -4.5064  -20.6615  -58.2265 C.3       20 UNK        -0.1800 
    112 C         -4.8514  -21.6676  -55.9385 C.2       20 UNK         0.5000 
    113 O         -3.9400  -21.4137  -55.1521 O.2       20 UNK        -0.5000 
    114 N         -6.1435  -21.6977  -55.5961 N.am      21 UNK        -0.5000 
    115 CA        -6.6459  -21.5923  -54.2221 C.3       21 UNK         0.1400 
    116 CB        -8.0085  -22.3037  -54.1529 C.3       21 UNK        -0.1800 
    117 C         -6.7428  -20.1529  -53.6722 C.2       21 UNK         0.5000 
    118 O         -7.2351  -19.9765  -52.5576 O.2       21 UNK        -0.5000 
    119 N         -6.3087  -19.1562  -54.4561 N.am      22 UNK        -0.5000 
    120 CA        -6.3848  -17.7110  -54.1600 C.3       22 UNK         0.1400 
    121 C         -7.8277  -17.1167  -54.2187 C.2       22 UNK         0.5000 
    122 N         -8.8109  -17.8110  -54.7792 N.am      22 UNK        -0.7600 
    123 O         -8.0601  -15.9925  -53.7818 O.2       22 UNK        -0.5000 
    124 C124       -5.6293  -17.2910  -52.8639 C.3       23 UNK        -0.0398 
    125 S125       -3.8525  -17.7006  -52.8872 S.3       23 UNK        -0.2404 
    126 C126       -3.3961  -17.1745  -51.2060 C.3       23 UNK        -0.0205 
    127 H127        3.1563   -8.6595  -48.1742 H         1 UNK         0.0600 
    128 H128        3.7223   -9.1437  -46.5715 H         1 UNK         0.0600 
    129 H129        2.0416   -9.4214  -47.0364 H         1 UNK         0.0600 
    130 H130        1.6495  -11.5628  -47.5133 H         1 UNK         0.3000 
    131 H131        3.2297  -13.0784  -49.3573 H         1 UNK         0.0600 
    132 H132        1.6190  -14.9521  -48.7625 H         1 UNK         0.0800 
    133 H133        0.9109  -13.9276  -47.5482 H         1 UNK         0.0800 
    134 H134        1.7626  -14.2670  -51.3623 H         1 UNK         0.0800 
    135 H135        0.2734  -13.7202  -52.0892 H         1 UNK         0.0800 
    136 H136       -1.9316  -14.8920  -51.3868 H         1 UNK         0.1150 
    137 H137       -1.5256  -19.0998  -50.7011 H         1 UNK         0.1150 
    138 H138        1.9502  -16.5904  -50.7366 H         1 UNK         0.1150 
    139 H139        0.6053  -20.1151  -50.4711 H         1 UNK         0.0800 
    140 H140        1.8679  -19.2842  -51.3244 H         1 UNK         0.0800 
    141 H141        0.2565  -18.2098  -47.8593 H         1 UNK         0.0800 
    142 H142        1.5312  -18.5988  -46.7578 H         1 UNK         0.0800 
    143 H143        0.9677  -21.1556  -47.5371 H         1 UNK         0.0600 
    144 H144        0.3624  -19.6957  -45.2086 H         1 UNK         0.3000 
    145 H145       -1.4258  -22.2413  -43.4427 H         1 UNK         0.0600 
    146 H146        1.3597  -21.0414  -43.0199 H         1 UNK         0.0600 
    147 H147        0.3261  -21.7094  -41.7588 H         1 UNK         0.0600 
    148 H148        0.9574  -22.7510  -43.0254 H         1 UNK         0.0600 
    149 H149       -0.7168  -19.5878  -42.7053 H         1 UNK         0.3000 
    150 H150       -3.5631  -17.9602  -44.1914 H         1 UNK         0.0600 
    151 H151       -4.3198  -18.8161  -41.9765 H         1 UNK         0.0600 
    152 H152       -3.7827  -17.1470  -41.8624 H         1 UNK         0.0600 
    153 H153       -2.7480  -18.4482  -41.2788 H         1 UNK         0.0600 
    154 H154       -1.3934  -16.8914  -42.7118 H         1 UNK         0.3000 
    155 H155        0.8756  -16.4419  -45.4651 H         1 UNK         0.0600 
    156 H156        0.8473  -14.1508  -44.5082 H         1 UNK         0.0600 
    157 H157       -0.6076  -14.4554  -45.4474 H         1 UNK         0.0600 
    158 H158       -0.6777  -14.4893  -43.6915 H         1 UNK         0.0600 
    159 H159        1.1420  -15.9125  -42.6704 H         1 UNK         0.3000 
    160 H160        2.3747  -19.1473  -41.7456 H         1 UNK         0.0600 
    161 H161        4.3613  -17.9183  -42.6288 H         1 UNK         0.0600 
    162 H162        4.2455  -17.8116  -40.8801 H         1 UNK         0.0600 
    163 H163        3.7859  -16.4345  -41.8736 H         1 UNK         0.0600 
    164 H164        1.8676  -16.6413  -40.3743 H         1 UNK         0.3000 
    165 H165       -1.4200  -17.4894  -39.3049 H         1 UNK         0.0600 
    166 H166       -0.4029  -17.1363  -37.0709 H         1 UNK         0.0600 
    167 H167        0.0658  -18.7056  -37.7049 H         1 UNK         0.0600 
    168 H168        1.2137  -17.3722  -37.7359 H         1 UNK         0.0600 
    169 H169        0.3131  -15.2858  -38.7283 H         1 UNK         0.3000 
    170 H170       -0.5020  -13.2804  -41.5473 H         1 UNK         0.0600 
    171 H171       -2.4604  -12.9596  -40.0281 H         1 UNK         0.0600 
    172 H172       -1.3966  -13.0058  -38.6272 H         1 UNK         0.0600 
    173 H173       -1.2619  -11.6963  -39.8016 H         1 UNK         0.0600 
    174 H174        1.0015  -12.6940  -39.2217 H         1 UNK         0.3000 
    175 H175        3.2418  -12.3230  -39.5290 H         1 UNK         0.0600 
    176 H176        3.8601  -15.3264  -39.2313 H         1 UNK         0.0600 
    177 H177        4.6539  -14.0285  -38.3429 H         1 UNK         0.0600 
    178 H178        2.9493  -14.3554  -38.0788 H         1 UNK         0.0600 
    179 H179        4.3020  -13.9522  -41.7218 H         1 UNK         0.3000 
    180 H180        6.6529  -11.5750  -42.5195 H         1 UNK         0.0600 
    181 H181        7.6935  -14.1470  -41.2139 H         1 UNK         0.0600 
    182 H182        8.2019  -12.5137  -40.8035 H         1 UNK         0.0600 
    183 H183        8.5611  -13.1630  -42.3940 H         1 UNK         0.0600 
    184 H184        6.4810  -14.3204  -43.3320 H         1 UNK         0.3000 
    185 H185        5.7417  -14.3770  -45.7178 H         1 UNK         0.0600 
    186 H186        3.8610  -16.0949  -45.4192 H         1 UNK         0.0600 
    187 H187        4.8592  -15.9101  -43.9913 H         1 UNK         0.0600 
    188 H188        3.2729  -15.1455  -44.0564 H         1 UNK         0.0600 
    189 H189        3.4356  -12.6883  -45.9003 H         1 UNK         0.3000 
    190 H190       -1.9178  -19.1465  -46.7814 H         1 UNK         0.3000 
    191 H191       -3.3386  -19.6737  -49.1588 H         1 UNK         0.0600 
    192 H192       -4.4229  -18.9580  -46.3864 H         1 UNK         0.0600 
    193 H193       -5.3008  -18.8102  -47.9032 H         1 UNK         0.0600 
    194 H194       -3.8840  -17.8112  -47.6114 H         1 UNK         0.0600 
    195 H195       -3.3775  -21.4611  -46.0510 H         1 UNK         0.3000 
    196 H196       -5.3329  -23.3848  -46.7706 H         1 UNK         0.0600 
    197 H197       -2.9778  -23.6340  -44.8261 H         1 UNK         0.0600 
    198 H198       -4.3789  -24.6952  -44.8824 H         1 UNK         0.0600 
    199 H199       -4.5774  -23.0067  -44.4363 H         1 UNK         0.0600 
    200 H200       -1.7482  -23.4619  -47.1356 H         1 UNK         0.3000 
    201 H201       -1.5902  -26.0306  -48.3498 H         1 UNK         0.0600 
    202 H202        0.3617  -24.9005  -47.3298 H         1 UNK         0.0600 
    203 H203        0.3004  -23.6255  -48.5437 H         1 UNK         0.0600 
    204 H204        0.6964  -25.2741  -49.0142 H         1 UNK         0.0600 
    205 H205       -1.9372  -22.7582  -49.7602 H         1 UNK         0.3000 
    206 H206       -1.8835  -23.5086  -52.4968 H         1 UNK         0.0600 
    207 H207       -1.5611  -21.1904  -51.7351 H         1 UNK         0.0600 
    208 H208       -2.9228  -21.2532  -52.8357 H         1 UNK         0.0600 
    209 H209       -3.2096  -21.1183  -51.1112 H         1 UNK         0.0600 
    210 H210       -4.6650  -23.1091  -50.2320 H         1 UNK         0.3000 
    211 H211       -6.7049  -23.8120  -52.0719 H         1 UNK         0.0600 
    212 H212       -6.6286  -24.0117  -49.0188 H         1 UNK         0.0600 
    213 H213       -8.0837  -24.1034  -50.0056 H         1 UNK         0.0600 
    214 H214       -7.1507  -22.6154  -49.9610 H         1 UNK         0.0600 
    215 H215       -4.6103  -25.8558  -50.0718 H         1 UNK         0.3000 
    216 H216       -6.0086  -28.3299  -50.5945 H         1 UNK         0.0600 
    217 H217       -3.9872  -29.3400  -49.5527 H         1 UNK         0.0600 
    218 H218       -4.5742  -27.9915  -48.5924 H         1 UNK         0.0600 
    219 H219       -3.1546  -27.7923  -49.6175 H         1 UNK         0.0600 
    220 H220       -4.0138  -26.3833  -52.5857 H         1 UNK         0.3000 
    221 H221       -3.5151  -28.6064  -54.5118 H         1 UNK         0.0600 
    222 H222       -1.6749  -26.2282  -53.8753 H         1 UNK         0.0600 
    223 H223       -1.3744  -27.8966  -53.4110 H         1 UNK         0.0600 
    224 H224       -1.3911  -27.4621  -55.1089 H         1 UNK         0.0600 
    225 H225       -2.4555  -25.8975  -55.9586 H         1 UNK         0.3000 
    226 H226       -4.8464  -24.4233  -56.4034 H         1 UNK         0.0600 
    227 H227       -5.3333  -26.2792  -58.0034 H         1 UNK         0.0600 
    228 H228       -4.9263  -24.8288  -58.9042 H         1 UNK         0.0600 
    229 H229       -3.7349  -26.1103  -58.7264 H         1 UNK         0.0600 
    230 H230       -2.4543  -21.9877  -57.7265 H         1 UNK         0.3000 
    231 H231       -5.2962  -22.6144  -57.8324 H         1 UNK         0.0600 
    232 H232       -5.4737  -20.1591  -58.1860 H         1 UNK         0.0600 
    233 H233       -4.2869  -20.8552  -59.2767 H         1 UNK         0.0600 
    234 H234       -3.7575  -19.9625  -57.8512 H         1 UNK         0.0600 
    235 H235       -6.8379  -21.8746  -56.3083 H         1 UNK         0.3000 
    236 H236       -5.9570  -22.1226  -53.5643 H         1 UNK         0.0600 
    237 H237       -8.4091  -22.2982  -53.1383 H         1 UNK         0.0600 
    238 H238       -7.9227  -23.3474  -54.4565 H         1 UNK         0.0600 
    239 H239       -8.7455  -21.8243  -54.7980 H         1 UNK         0.0600 
    240 H240       -5.9115  -19.4002  -55.3506 H         1 UNK         0.3000 
    241 H241       -5.8698  -17.2281  -54.9910 H         1 UNK         0.0600 
    242 H242       -9.7361  -17.4128  -54.8226 H         1 UNK         0.3800 
    243 H243       -8.6419  -18.7284  -55.1580 H         1 UNK         0.3800 
    244 H244       -6.0882  -17.7389  -51.9820 H         1 UNK         0.0800 
    245 H245       -5.6997  -16.2114  -52.7212 H         1 UNK         0.0800 
    246 H246       -3.7760  -17.8985  -50.4868 H         1 UNK         0.0800 
    247 H247       -3.8891  -16.2292  -50.9732 H         1 UNK         0.0800 
@<TRIPOS>BOND
     1    1    2 1    
     2    1  127 1    
     3    1  128 1    
     4    1  129 1    
     5    2    3 2    
     6    2    4 am   BACKBONE|DICT|INTERRES
     7    4    5 1    
     8    4  130 1    
     9    5    6 1    
    10    5   65 1    
    11    5  131 1    
    12    6    7 1    
    13    6  132 1    
    14    6  133 1    
    15    7    8 1    
    16    8    9 1    
    17    8  134 1    
    18    8  135 1    
    19    9   10 ar   
    20    9   14 ar   
    21   10   11 ar   
    22   10  136 1    
    23   11   12 ar   
    24   11  126 1    
    25   12   13 ar   
    26   12  137 1    
    27   13   14 ar   
    28   13   15 1    
    29   14  138 1    
    30   15   16 1    
    31   15  139 1    
    32   15  140 1    
    33   16   17 1    
    34   17   18 1    
    35   17  141 1    
    36   17  142 1    
    37   18   19 1    
    38   18   67 1    
    39   18  143 1    
    40   19   20 am   BACKBONE|DICT|INTERRES
    41   19  144 1    
    42   20   21 2    
    43   20   22 1    
    44   22   23 1    
    45   22   24 1    
    46   22  145 1    
    47   23  146 1    
    48   23  147 1    
    49   23  148 1    
    50   24   25 am   BACKBONE|DICT|INTERRES
    51   24  149 1    
    52   25   26 2    
    53   25   27 1    
    54   27   28 1    
    55   27   29 1    
    56   27  150 1    
    57   28  151 1    
    58   28  152 1    
    59   28  153 1    
    60   29   30 am   BACKBONE|DICT|INTERRES
    61   29  154 1    
    62   30   31 2    
    63   30   32 1    
    64   32   33 1    
    65   32   34 1    
    66   32  155 1    
    67   33  156 1    
    68   33  157 1    
    69   33  158 1    
    70   34   35 am   BACKBONE|DICT|INTERRES
    71   34  159 1    
    72   35   36 2    
    73   35   37 1    
    74   37   38 1    
    75   37   39 1    
    76   37  160 1    
    77   38  161 1    
    78   38  162 1    
    79   38  163 1    
    80   39   40 am   BACKBONE|DICT|INTERRES
    81   39  164 1    
    82   40   41 2    
    83   40   42 1    
    84   42   43 1    
    85   42   44 1    
    86   42  165 1    
    87   43  166 1    
    88   43  167 1    
    89   43  168 1    
    90   44   45 am   BACKBONE|DICT|INTERRES
    91   44  169 1    
    92   45   46 2    
    93   45   47 1    
    94   47   48 1    
    95   47   49 1    
    96   47  170 1    
    97   48  171 1    
    98   48  172 1    
    99   48  173 1    
   100   49   50 am   BACKBONE|DICT|INTERRES
   101   49  174 1    
   102   50   51 2    
   103   50   52 1    
   104   52   53 1    
   105   52   54 1    
   106   52  175 1    
   107   53  176 1    
   108   53  177 1    
   109   53  178 1    
   110   54   55 am   BACKBONE|DICT|INTERRES
   111   54  179 1    
   112   55   56 2    
   113   55   57 1    
   114   57   58 1    
   115   57   59 1    
   116   57  180 1    
   117   58  181 1    
   118   58  182 1    
   119   58  183 1    
   120   59   60 am   BACKBONE|DICT|INTERRES
   121   59  184 1    
   122   60   61 2    
   123   60   62 1    
   124   62   63 1    
   125   62   64 1    
   126   62  185 1    
   127   63  186 1    
   128   63  187 1    
   129   63  188 1    
   130   64   65 am   BACKBONE|DICT|INTERRES
   131   64  189 1    
   132   65   66 2    
   133   67   68 2    
   134   67   69 am   BACKBONE|DICT|INTERRES
   135   69   70 1    
   136   69  190 1    
   137   70   71 1    
   138   70   72 1    
   139   70  191 1    
   140   71  192 1    
   141   71  193 1    
   142   71  194 1    
   143   72   73 2    
   144   72   74 am   BACKBONE|DICT|INTERRES
   145   74   75 1    
   146   74  195 1    
   147   75   76 1    
   148   75   77 1    
   149   75  196 1    
   150   76  197 1    
   151   76  198 1    
   152   76  199 1    
   153   77   78 2    
   154   77   79 am   BACKBONE|DICT|INTERRES
   155   79   80 1    
   156   79  200 1    
   157   80   81 1    
   158   80   82 1    
   159   80  201 1    
   160   81  202 1    
   161   81  203 1    
   162   81  204 1    
   163   82   83 2    
   164   82   84 am   BACKBONE|DICT|INTERRES
   165   84   85 1    
   166   84  205 1    
   167   85   86 1    
   168   85   87 1    
   169   85  206 1    
   170   86  207 1    
   171   86  208 1    
   172   86  209 1    
   173   87   88 2    
   174   87   89 am   BACKBONE|DICT|INTERRES
   175   89   90 1    
   176   89  210 1    
   177   90   91 1    
   178   90   92 1    
   179   90  211 1    
   180   91  212 1    
   181   91  213 1    
   182   91  214 1    
   183   92   93 2    
   184   92   94 am   BACKBONE|DICT|INTERRES
   185   94   95 1    
   186   94  215 1    
   187   95   96 1    
   188   95   97 1    
   189   95  216 1    
   190   96  217 1    
   191   96  218 1    
   192   96  219 1    
   193   97   98 2    
   194   97   99 am   BACKBONE|DICT|INTERRES
   195   99  100 1    
   196   99  220 1    
   197  100  101 1    
   198  100  102 1    
   199  100  221 1    
   200  101  222 1    
   201  101  223 1    
   202  101  224 1    
   203  102  103 2    
   204  102  104 am   BACKBONE|DICT|INTERRES
   205  104  105 1    
   206  104  225 1    
   207  105  106 1    
   208  105  107 1    
   209  105  226 1    
   210  106  227 1    
   211  106  228 1    
   212  106  229 1    
   213  107  108 2    
   214  107  109 am   BACKBONE|DICT|INTERRES
   215  109  110 1    
   216  109  230 1    
   217  110  111 1    
   218  110  112 1    
   219  110  231 1    
   220  111  232 1    
   221  111  233 1    
   222  111  234 1    
   223  112  113 2    
   224  112  114 am   BACKBONE|DICT|INTERRES
   225  114  115 1    
   226  114  235 1    
   227  115  116 1    
   228  115  117 1    
   229  115  236 1    
   230  116  237 1    
   231  116  238 1    
   232  116  239 1    
   233  117  118 2    
   234  117  119 am   BACKBONE|DICT|INTERRES
   235  119  120 1    
   236  119  240 1    
   237  120  121 1    
   238  120  124 1    
   239  120  241 1    
   240  121  122 am   BACKBONE|DICT|INTERRES
   241  121  123 2    
   242  122  242 1    
   243  122  243 1    
   244  124  125 1    
   245  124  244 1    
   246  124  245 1    
   247  125  126 1    
   248  126  246 1    
   249  126  247 1    
@<TRIPOS>SUBSTRUCTURE
     1 UNK         1 GROUP             0       ****    0 ROOT    
