@<TRIPOS>MOLECULE
3R540
247   249    1
SMALL
USER_CHARGES


@<TRIPOS>ATOM
      1 CA         -1.4287  -18.2704  -49.1175 C.3       0 UNK        -0.1800 
      2 C          -1.3380  -17.0728  -48.1891 C.2       0 UNK         0.5000 
      3 O          -2.1402  -16.9479  -47.2633 O.2       0 UNK        -0.5000 
      4 N          -0.3350  -16.2085  -48.3982 N.am      1 UNK        -0.5000 
      5 CA         -0.0874  -14.9945  -47.6075 C.3       1 UNK         0.1400 
      6 C6          0.7219  -13.9088  -48.3640 C.3       23 UNK        -0.0398 
      7 S7          2.4289  -14.2081  -48.9712 S.3       23 UNK        -0.2404 
      8 C8          2.9360  -15.9013  -48.5129 C.3       23 UNK        -0.0205 
      9 C9          2.5260  -17.0265  -49.4657 C.ar      23 UNK        -0.0193 
     10 C10         1.8987  -16.8003  -50.6985 C.ar      23 UNK        -0.1150 
     11 C11         1.5743  -17.8692  -51.5378 C.ar      23 UNK        -0.0193 
     12 C12         1.8736  -19.1747  -51.1419 C.ar      23 UNK        -0.1150 
     13 C13         2.4987  -19.4233  -49.9181 C.ar      23 UNK        -0.0193 
     14 C14         2.8260  -18.3406  -49.0932 C.ar      23 UNK        -0.1150 
     15 C15         2.8442  -20.8632  -49.5374 C.3       23 UNK        -0.0205 
     16 S16         2.7706  -21.2190  -47.7484 S.3       23 UNK        -0.2404 
     17 C17         1.0015  -20.9548  -47.3948 C.3       23 UNK        -0.0398 
     18 CA          0.2861  -22.2309  -46.8960 C.3       11 UNK         0.1400 
     19 N           0.9368  -22.8239  -45.7188 N.am      11 UNK        -0.5000 
     20 C           0.6831  -24.0615  -45.2684 C.2       10 UNK         0.5000 
     21 O          -0.1375  -24.8160  -45.7872 O.2       10 UNK        -0.5000 
     22 CA          1.4262  -24.5233  -43.9992 C.3       10 UNK         0.1400 
     23 CB          2.8014  -25.1009  -44.3645 C.3       10 UNK        -0.1800 
     24 N           1.5996  -23.4716  -42.9966 N.am      10 UNK        -0.5000 
     25 C           0.6221  -22.7233  -42.4686 C.2       9 UNK         0.5000 
     26 O          -0.5682  -22.8743  -42.7419 O.2       9 UNK        -0.5000 
     27 CA          1.0243  -21.5943  -41.4989 C.3       9 UNK         0.1400 
     28 CB          0.6351  -21.9695  -40.0609 C.3       9 UNK        -0.1800 
     29 N           2.4371  -21.1925  -41.5150 N.am      9 UNK        -0.5000 
     30 C           3.1365  -20.7640  -42.5747 C.2       8 UNK         0.5000 
     31 O           2.7281  -20.8093  -43.7375 O.2       8 UNK        -0.5000 
     32 CA          4.5524  -20.2364  -42.2791 C.3       8 UNK         0.1400 
     33 CB          5.5786  -21.3734  -42.3994 C.3       8 UNK        -0.1800 
     34 N           4.9351  -19.1542  -43.1859 N.am      8 UNK        -0.5000 
     35 C           4.3499  -17.9510  -43.2390 C.2       7 UNK         0.5000 
     36 O           3.4653  -17.5756  -42.4633 O.2       7 UNK        -0.5000 
     37 CA          4.8369  -17.0151  -44.3550 C.3       7 UNK         0.1400 
     38 CB          4.5132  -17.5868  -45.7466 C.3       7 UNK        -0.1800 
     39 N           4.2050  -15.7093  -44.1965 N.am      7 UNK        -0.5000 
     40 C           4.6774  -14.5424  -44.6483 C.2       6 UNK         0.5000 
     41 O           5.7202  -14.4413  -45.2960 O.2       6 UNK        -0.5000 
     42 CA          3.8606  -13.2709  -44.3322 C.3       6 UNK         0.1400 
     43 CB          3.3823  -12.5905  -45.6232 C.3       6 UNK        -0.1800 
     44 N           2.6988  -13.5253  -43.4741 N.am      6 UNK        -0.5000 
     45 C           2.7413  -13.5475  -42.1340 C.2       5 UNK         0.5000 
     46 O           3.7787  -13.3699  -41.4932 O.2       5 UNK        -0.5000 
     47 CA          1.4242  -13.8426  -41.3828 C.3       5 UNK         0.1400 
     48 CB          1.3732  -13.1908  -39.9849 C.3       5 UNK        -0.1800 
     49 N           0.2101  -13.5366  -42.1482 N.am      5 UNK        -0.5000 
     50 C          -0.2232  -12.3374  -42.5717 C.2       4 UNK         0.5000 
     51 O           0.3708  -11.2820  -42.3487 O.2       4 UNK        -0.5000 
     52 CA         -1.5330  -12.3077  -43.3915 C.3       4 UNK         0.1400 
     53 CB         -1.3750  -11.4563  -44.6640 C.3       4 UNK        -0.1800 
     54 N          -1.9557  -13.6529  -43.7849 N.am      4 UNK        -0.5000 
     55 C          -2.9458  -14.3637  -43.2261 C.2       3 UNK         0.5000 
     56 O          -3.6969  -13.9225  -42.3562 O.2       3 UNK        -0.5000 
     57 CA         -3.1064  -15.8289  -43.6930 C.3       3 UNK         0.1400 
     58 CB         -4.2259  -15.9433  -44.7382 C.3       3 UNK        -0.1800 
     59 N          -1.8786  -16.4022  -44.2523 N.am      3 UNK        -0.5000 
     60 C          -0.7405  -16.5912  -43.5654 C.2       2 UNK         0.5000 
     61 O          -0.6380  -16.3920  -42.3563 O.2       2 UNK        -0.5000 
     62 CA          0.5135  -16.9852  -44.3699 C.3       2 UNK         0.1400 
     63 CB          0.6777  -18.5055  -44.3621 C.3       2 UNK        -0.1800 
     64 N           0.4757  -16.5224  -45.7570 N.am      2 UNK        -0.5000 
     65 C           0.3641  -15.2457  -46.1486 C.2       1 UNK         0.5000 
     66 O           0.5026  -14.2989  -45.3739 O.2       1 UNK        -0.5000 
     67 C          -1.2057  -21.9292  -46.6399 C.2       11 UNK         0.5000 
     68 O          -2.0238  -22.0724  -47.5509 O.2       11 UNK        -0.5000 
     69 N          -1.5313  -21.5312  -45.4015 N.am      12 UNK        -0.5000 
     70 CA         -2.8979  -21.2783  -44.9486 C.3       12 UNK         0.1400 
     71 CB         -2.8761  -20.3855  -43.6980 C.3       12 UNK        -0.1800 
     72 C          -3.6553  -22.5914  -44.6874 C.2       12 UNK         0.5000 
     73 O          -4.8290  -22.6886  -45.0419 O.2       12 UNK        -0.5000 
     74 N          -2.9622  -23.5926  -44.1253 N.am      13 UNK        -0.5000 
     75 CA         -3.4718  -24.9482  -43.9025 C.3       13 UNK         0.1400 
     76 CB         -2.4705  -25.7371  -43.0459 C.3       13 UNK        -0.1800 
     77 C          -3.7744  -25.6929  -45.2173 C.2       13 UNK         0.5000 
     78 O          -4.7934  -26.3780  -45.3080 O.2       13 UNK        -0.5000 
     79 N          -2.9105  -25.5064  -46.2257 N.am      14 UNK        -0.5000 
     80 CA         -3.1050  -25.9793  -47.5995 C.3       14 UNK         0.1400 
     81 CB         -1.7626  -25.9100  -48.3446 C.3       14 UNK        -0.1800 
     82 C          -4.1795  -25.1864  -48.3723 C.2       14 UNK         0.5000 
     83 O          -4.6286  -25.6512  -49.4206 O.2       14 UNK        -0.5000 
     84 N          -4.5588  -24.0120  -47.8467 N.am      15 UNK        -0.5000 
     85 CA         -5.5287  -23.0553  -48.3802 C.3       15 UNK         0.1400 
     86 CB         -6.9513  -23.6512  -48.3687 C.3       15 UNK        -0.1800 
     87 C          -5.1121  -22.4957  -49.7533 C.2       15 UNK         0.5000 
     88 O          -5.9513  -22.3520  -50.6437 O.2       15 UNK        -0.5000 
     89 N          -3.8207  -22.1600  -49.8979 N.am      16 UNK        -0.5000 
     90 CA         -3.2310  -21.6355  -51.1352 C.3       16 UNK         0.1400 
     91 CB         -1.7072  -21.5233  -50.9692 C.3       16 UNK        -0.1800 
     92 C          -3.8434  -20.2969  -51.5962 C.2       16 UNK         0.5000 
     93 O          -3.8922  -20.0342  -52.7961 O.2       16 UNK        -0.5000 
     94 N          -4.3559  -19.5052  -50.6440 N.am      17 UNK        -0.5000 
     95 CA         -5.0858  -18.2617  -50.8960 C.3       17 UNK         0.1400 
     96 CB         -5.2295  -17.4945  -49.5718 C.3       17 UNK        -0.1800 
     97 C          -6.4740  -18.4772  -51.5359 C.2       17 UNK         0.5000 
     98 O          -6.9888  -17.5560  -52.1705 O.2       17 UNK        -0.5000 
     99 N          -7.0611  -19.6685  -51.3509 N.am      18 UNK        -0.5000 
    100 CA        -8.3792  -20.0413  -51.8701 C.3       18 UNK         0.1400 
    101 CB        -9.1060  -20.8824  -50.8077 C.3       18 UNK        -0.1800 
    102 C         -8.2947  -20.8109  -53.2028 C.2       18 UNK         0.5000 
    103 O         -9.3323  -21.0525  -53.8223 O.2       18 UNK        -0.5000 
    104 N         -7.0810  -21.1961  -53.6194 N.am      19 UNK        -0.5000 
    105 CA        -6.8062  -21.8870  -54.8781 C.3       19 UNK         0.1400 
    106 CB        -5.3822  -22.4618  -54.8176 C.3       19 UNK        -0.1800 
    107 C         -6.9709  -20.9603  -56.0993 C.2       19 UNK         0.5000 
    108 O         -6.9591  -19.7345  -55.9583 O.2       19 UNK        -0.5000 
    109 N         -7.0914  -21.5691  -57.2880 N.am      20 UNK        -0.5000 
    110 CA        -7.2206  -20.8781  -58.5778 C.3       20 UNK         0.1400 
    111 CB        -7.5207  -21.9119  -59.6741 C.3       20 UNK        -0.1800 
    112 C         -5.9857  -20.0334  -58.9544 C.2       20 UNK         0.5000 
    113 O         -6.1246  -19.0246  -59.6475 O.2       20 UNK        -0.5000 
    114 N         -4.8130  -20.4451  -58.4642 N.am      21 UNK        -0.5000 
    115 CA        -3.5669  -19.6948  -58.4835 C.3       21 UNK         0.1400 
    116 CB        -2.7445  -20.0660  -59.7285 C.3       21 UNK        -0.1800 
    117 C         -2.8205  -20.0426  -57.1902 C.2       21 UNK         0.5000 
    118 O         -2.8074  -21.2127  -56.7990 O.2       21 UNK        -0.5000 
    119 N         -2.2301  -19.0311  -56.5470 N.am      22 UNK        -0.5000 
    120 CA        -1.4382  -19.1822  -55.3196 C.3       22 UNK         0.1400 
    121 C         -0.0678  -19.8570  -55.6077 C.2       22 UNK         0.5000 
    122 N          0.2978  -20.8927  -54.8647 N.am      22 UNK        -0.7600 
    123 O          0.6796  -19.4244  -56.4822 O.2       22 UNK        -0.5000 
    124 C124       -1.2751  -17.8155  -54.6059 C.3       23 UNK        -0.0398 
    125 S125       -0.8567  -17.9811  -52.8385 S.3       23 UNK        -0.2404 
    126 C126        0.9236  -17.6194  -52.8867 C.3       23 UNK        -0.0205 
    127 H127       -0.4428  -18.5806  -49.4603 H         1 UNK         0.0600 
    128 H128       -2.0315  -18.0218  -49.9897 H         1 UNK         0.0600 
    129 H129       -1.8922  -19.1124  -48.6034 H         1 UNK         0.0600 
    130 H130        0.3135  -16.3761  -49.1566 H         1 UNK         0.3000 
    131 H131       -1.0739  -14.5441  -47.4745 H         1 UNK         0.0600 
    132 H132        0.1448  -13.6185  -49.2429 H         1 UNK         0.0800 
    133 H133        0.7588  -13.0021  -47.7574 H         1 UNK         0.0800 
    134 H134        4.0260  -15.8963  -48.4795 H         1 UNK         0.0800 
    135 H135        2.6143  -16.1258  -47.4993 H         1 UNK         0.0800 
    136 H136        1.6715  -15.7966  -51.0265 H         1 UNK         0.1150 
    137 H137        1.6245  -19.9978  -51.7974 H         1 UNK         0.1150 
    138 H138        3.3323  -18.5198  -48.1566 H         1 UNK         0.1150 
    139 H139        2.1818  -21.5605  -50.0531 H         1 UNK         0.0800 
    140 H140        3.8533  -21.0774  -49.8910 H         1 UNK         0.0800 
    141 H141        0.5083  -20.5783  -48.2922 H         1 UNK         0.0800 
    142 H142        0.9311  -20.1579  -46.6568 H         1 UNK         0.0800 
    143 H143        0.3276  -22.9677  -47.7013 H         1 UNK         0.0600 
    144 H144        1.6232  -22.2543  -45.2379 H         1 UNK         0.3000 
    145 H145        0.8341  -25.3166  -43.5400 H         1 UNK         0.0600 
    146 H146        3.2988  -25.5207  -43.4900 H         1 UNK         0.0600 
    147 H147        2.7062  -25.9022  -45.0986 H         1 UNK         0.0600 
    148 H148        3.4563  -24.3399  -44.7913 H         1 UNK         0.0600 
    149 H149        2.5484  -23.2530  -42.7326 H         1 UNK         0.3000 
    150 H150        0.4398  -20.7186  -41.7862 H         1 UNK         0.0600 
    151 H151        1.2153  -22.8184  -39.6971 H         1 UNK         0.0600 
    152 H152       -0.4196  -22.2414  -39.9969 H         1 UNK         0.0600 
    153 H153        0.7933  -21.1351  -39.3774 H         1 UNK         0.0600 
    154 H154        2.8816  -21.1519  -40.6092 H         1 UNK         0.3000 
    155 H155        4.5777  -19.8459  -41.2596 H         1 UNK         0.0600 
    156 H156        5.5995  -21.7913  -43.4070 H         1 UNK         0.0600 
    157 H157        5.3451  -22.1873  -41.7117 H         1 UNK         0.0600 
    158 H158        6.5835  -21.0258  -42.1588 H         1 UNK         0.0600 
    159 H159        5.6288  -19.3868  -43.8809 H         1 UNK         0.3000 
    160 H160        5.9181  -16.9069  -44.2469 H         1 UNK         0.0600 
    161 H161        3.4378  -17.6797  -45.8952 H         1 UNK         0.0600 
    162 H162        4.9493  -18.5760  -45.8889 H         1 UNK         0.0600 
    163 H163        4.9130  -16.9488  -46.5335 H         1 UNK         0.0600 
    164 H164        3.3898  -15.7121  -43.5987 H         1 UNK         0.3000 
    165 H165        4.5334  -12.5757  -43.8258 H         1 UNK         0.0600 
    166 H166        2.8019  -11.6931  -45.4084 H         1 UNK         0.0600 
    167 H167        4.2260  -12.2923  -46.2467 H         1 UNK         0.0600 
    168 H168        2.7612  -13.2583  -46.2159 H         1 UNK         0.0600 
    169 H169        1.8169  -13.6883  -43.9497 H         1 UNK         0.3000 
    170 H170        1.4136  -14.9229  -41.2327 H         1 UNK         0.0600 
    171 H171        2.1850  -13.5534  -39.3533 H         1 UNK         0.0600 
    172 H172        1.4631  -12.1057  -40.0390 H         1 UNK         0.0600 
    173 H173        0.4393  -13.4259  -39.4743 H         1 UNK         0.0600 
    174 H174       -0.3590  -14.3462  -42.3650 H         1 UNK         0.3000 
    175 H175       -2.2938  -11.8407  -42.7632 H         1 UNK         0.0600 
    176 H176       -1.1381  -10.4207  -44.4171 H         1 UNK         0.0600 
    177 H177       -0.5760  -11.8307  -45.3047 H         1 UNK         0.0600 
    178 H178       -2.2956  -11.4457  -45.2476 H         1 UNK         0.0600 
    179 H179       -1.3624  -14.1004  -44.4726 H         1 UNK         0.3000 
    180 H180       -3.3877  -16.4233  -42.8213 H         1 UNK         0.0600 
    181 H181       -3.9903  -15.3795  -45.6418 H         1 UNK         0.0600 
    182 H182       -5.1690  -15.5598  -44.3466 H         1 UNK         0.0600 
    183 H183       -4.3913  -16.9816  -45.0267 H         1 UNK         0.0600 
    184 H184       -1.8936  -16.6017  -45.2478 H         1 UNK         0.3000 
    185 H185        1.3785  -16.5322  -43.8841 H         1 UNK         0.0600 
    186 H186        0.7464  -18.8813  -43.3412 H         1 UNK         0.0600 
    187 H187       -0.1619  -19.0057  -44.8443 H         1 UNK         0.0600 
    188 H188        1.5912  -18.7968  -44.8775 H         1 UNK         0.0600 
    189 H189        0.3178  -17.2299  -46.4584 H         1 UNK         0.3000 
    190 H190       -0.8107  -21.5138  -44.6942 H         1 UNK         0.3000 
    191 H191       -3.4300  -20.7377  -45.7348 H         1 UNK         0.0600 
    192 H192       -2.4152  -19.4211  -43.9101 H         1 UNK         0.0600 
    193 H193       -3.8889  -20.1866  -43.3453 H         1 UNK         0.0600 
    194 H194       -2.3285  -20.8469  -42.8761 H         1 UNK         0.0600 
    195 H195       -2.0181  -23.4034  -43.7980 H         1 UNK         0.3000 
    196 H196       -4.4061  -24.8647  -43.3436 H         1 UNK         0.0600 
    197 H197       -2.8544  -26.7312  -42.8139 H         1 UNK         0.0600 
    198 H198       -2.2765  -25.2326  -42.0992 H         1 UNK         0.0600 
    199 H199       -1.5174  -25.8654  -43.5584 H         1 UNK         0.0600 
    200 H200       -2.0451  -25.0060  -46.0426 H         1 UNK         0.3000 
    201 H201       -3.4257  -27.0223  -47.5643 H         1 UNK         0.0600 
    202 H202       -1.8592  -26.2826  -49.3651 H         1 UNK         0.0600 
    203 H203       -1.0044  -26.5164  -47.8489 H         1 UNK         0.0600 
    204 H204       -1.3892  -24.8867  -48.4024 H         1 UNK         0.0600 
    205 H205       -4.1220  -23.7344  -46.9787 H         1 UNK         0.3000 
    206 H206       -5.5250  -22.2060  -47.6960 H         1 UNK         0.0600 
    207 H207       -7.2048  -24.0431  -47.3836 H         1 UNK         0.0600 
    208 H208       -7.6939  -22.8919  -48.6147 H         1 UNK         0.0600 
    209 H209       -7.0591  -24.4610  -49.0908 H         1 UNK         0.0600 
    210 H210       -3.1939  -22.2739  -49.1052 H         1 UNK         0.3000 
    211 H211       -3.4296  -22.3624  -51.9255 H         1 UNK         0.0600 
    212 H212       -1.4380  -20.8926  -50.1239 H         1 UNK         0.0600 
    213 H213       -1.2433  -21.0950  -51.8585 H         1 UNK         0.0600 
    214 H214       -1.2576  -22.5028  -50.8059 H         1 UNK         0.0600 
    215 H215       -4.2803  -19.8030  -49.6831 H         1 UNK         0.3000 
    216 H216       -4.4949  -17.6532  -51.5843 H         1 UNK         0.0600 
    217 H217       -5.7564  -16.5513  -49.7214 H         1 UNK         0.0600 
    218 H218       -4.2580  -17.2532  -49.1429 H         1 UNK         0.0600 
    219 H219       -5.7891  -18.0686  -48.8323 H         1 UNK         0.0600 
    220 H220       -6.5558  -20.4033  -50.8687 H         1 UNK         0.3000 
    221 H221       -8.9746  -19.1440  -52.0501 H         1 UNK         0.0600 
    222 H222       -8.6041  -21.8347  -50.6359 H         1 UNK         0.0600 
    223 H223       -9.1638  -20.3549  -49.8555 H         1 UNK         0.0600 
    224 H224      -10.1277  -21.1046  -51.1180 H         1 UNK         0.0600 
    225 H225       -6.2783  -20.9224  -53.0712 H         1 UNK         0.3000 
    226 H226       -7.5125  -22.7141  -54.9754 H         1 UNK         0.0600 
    227 H227       -5.1578  -23.0586  -55.7023 H         1 UNK         0.0600 
    228 H228       -4.6335  -21.6713  -54.7609 H         1 UNK         0.0600 
    229 H229       -5.2525  -23.1080  -53.9490 H         1 UNK         0.0600 
    230 H230       -7.0896  -22.5785  -57.3218 H         1 UNK         0.3000 
    231 H231       -8.0720  -20.1979  -58.5071 H         1 UNK         0.0600 
    232 H232       -6.7131  -22.6381  -59.7745 H         1 UNK         0.0600 
    233 H233       -7.6485  -21.4274  -60.6431 H         1 UNK         0.0600 
    234 H234       -8.4404  -22.4575  -59.4620 H         1 UNK         0.0600 
    235 H235       -4.7887  -21.2703  -57.8791 H         1 UNK         0.3000 
    236 H236       -3.7805  -18.6237  -58.4941 H         1 UNK         0.0600 
    237 H237       -3.2820  -19.8183  -60.6439 H         1 UNK         0.0600 
    238 H238       -1.7994  -19.5222  -59.7469 H         1 UNK         0.0600 
    239 H239       -2.5127  -21.1315  -59.7537 H         1 UNK         0.0600 
    240 H240       -2.2571  -18.1063  -56.9504 H         1 UNK         0.3000 
    241 H241       -2.0080  -19.8366  -54.6572 H         1 UNK         0.0600 
    242 H242       -0.3075  -21.2663  -54.1518 H         1 UNK         0.3800 
    243 H243        1.1875  -21.3319  -55.0413 H         1 UNK         0.3800 
    244 H244       -0.5473  -17.1820  -55.1163 H         1 UNK         0.0800 
    245 H245       -2.2191  -17.2698  -54.6417 H         1 UNK         0.0800 
    246 H246        1.4091  -18.2432  -53.6382 H         1 UNK         0.0800 
    247 H247        1.0736  -16.5853  -53.2007 H         1 UNK         0.0800 
@<TRIPOS>BOND
     1    1    2 1    
     2    1  127 1    
     3    1  128 1    
     4    1  129 1    
     5    2    3 2    
     6    2    4 am   BACKBONE|DICT|INTERRES
     7    4    5 1    
     8    4  130 1    
     9    5    6 1    
    10    5   65 1    
    11    5  131 1    
    12    6    7 1    
    13    6  132 1    
    14    6  133 1    
    15    7    8 1    
    16    8    9 1    
    17    8  134 1    
    18    8  135 1    
    19    9   10 ar   
    20    9   14 ar   
    21   10   11 ar   
    22   10  136 1    
    23   11   12 ar   
    24   11  126 1    
    25   12   13 ar   
    26   12  137 1    
    27   13   14 ar   
    28   13   15 1    
    29   14  138 1    
    30   15   16 1    
    31   15  139 1    
    32   15  140 1    
    33   16   17 1    
    34   17   18 1    
    35   17  141 1    
    36   17  142 1    
    37   18   19 1    
    38   18   67 1    
    39   18  143 1    
    40   19   20 am   BACKBONE|DICT|INTERRES
    41   19  144 1    
    42   20   21 2    
    43   20   22 1    
    44   22   23 1    
    45   22   24 1    
    46   22  145 1    
    47   23  146 1    
    48   23  147 1    
    49   23  148 1    
    50   24   25 am   BACKBONE|DICT|INTERRES
    51   24  149 1    
    52   25   26 2    
    53   25   27 1    
    54   27   28 1    
    55   27   29 1    
    56   27  150 1    
    57   28  151 1    
    58   28  152 1    
    59   28  153 1    
    60   29   30 am   BACKBONE|DICT|INTERRES
    61   29  154 1    
    62   30   31 2    
    63   30   32 1    
    64   32   33 1    
    65   32   34 1    
    66   32  155 1    
    67   33  156 1    
    68   33  157 1    
    69   33  158 1    
    70   34   35 am   BACKBONE|DICT|INTERRES
    71   34  159 1    
    72   35   36 2    
    73   35   37 1    
    74   37   38 1    
    75   37   39 1    
    76   37  160 1    
    77   38  161 1    
    78   38  162 1    
    79   38  163 1    
    80   39   40 am   BACKBONE|DICT|INTERRES
    81   39  164 1    
    82   40   41 2    
    83   40   42 1    
    84   42   43 1    
    85   42   44 1    
    86   42  165 1    
    87   43  166 1    
    88   43  167 1    
    89   43  168 1    
    90   44   45 am   BACKBONE|DICT|INTERRES
    91   44  169 1    
    92   45   46 2    
    93   45   47 1    
    94   47   48 1    
    95   47   49 1    
    96   47  170 1    
    97   48  171 1    
    98   48  172 1    
    99   48  173 1    
   100   49   50 am   BACKBONE|DICT|INTERRES
   101   49  174 1    
   102   50   51 2    
   103   50   52 1    
   104   52   53 1    
   105   52   54 1    
   106   52  175 1    
   107   53  176 1    
   108   53  177 1    
   109   53  178 1    
   110   54   55 am   BACKBONE|DICT|INTERRES
   111   54  179 1    
   112   55   56 2    
   113   55   57 1    
   114   57   58 1    
   115   57   59 1    
   116   57  180 1    
   117   58  181 1    
   118   58  182 1    
   119   58  183 1    
   120   59   60 am   BACKBONE|DICT|INTERRES
   121   59  184 1    
   122   60   61 2    
   123   60   62 1    
   124   62   63 1    
   125   62   64 1    
   126   62  185 1    
   127   63  186 1    
   128   63  187 1    
   129   63  188 1    
   130   64   65 am   BACKBONE|DICT|INTERRES
   131   64  189 1    
   132   65   66 2    
   133   67   68 2    
   134   67   69 am   BACKBONE|DICT|INTERRES
   135   69   70 1    
   136   69  190 1    
   137   70   71 1    
   138   70   72 1    
   139   70  191 1    
   140   71  192 1    
   141   71  193 1    
   142   71  194 1    
   143   72   73 2    
   144   72   74 am   BACKBONE|DICT|INTERRES
   145   74   75 1    
   146   74  195 1    
   147   75   76 1    
   148   75   77 1    
   149   75  196 1    
   150   76  197 1    
   151   76  198 1    
   152   76  199 1    
   153   77   78 2    
   154   77   79 am   BACKBONE|DICT|INTERRES
   155   79   80 1    
   156   79  200 1    
   157   80   81 1    
   158   80   82 1    
   159   80  201 1    
   160   81  202 1    
   161   81  203 1    
   162   81  204 1    
   163   82   83 2    
   164   82   84 am   BACKBONE|DICT|INTERRES
   165   84   85 1    
   166   84  205 1    
   167   85   86 1    
   168   85   87 1    
   169   85  206 1    
   170   86  207 1    
   171   86  208 1    
   172   86  209 1    
   173   87   88 2    
   174   87   89 am   BACKBONE|DICT|INTERRES
   175   89   90 1    
   176   89  210 1    
   177   90   91 1    
   178   90   92 1    
   179   90  211 1    
   180   91  212 1    
   181   91  213 1    
   182   91  214 1    
   183   92   93 2    
   184   92   94 am   BACKBONE|DICT|INTERRES
   185   94   95 1    
   186   94  215 1    
   187   95   96 1    
   188   95   97 1    
   189   95  216 1    
   190   96  217 1    
   191   96  218 1    
   192   96  219 1    
   193   97   98 2    
   194   97   99 am   BACKBONE|DICT|INTERRES
   195   99  100 1    
   196   99  220 1    
   197  100  101 1    
   198  100  102 1    
   199  100  221 1    
   200  101  222 1    
   201  101  223 1    
   202  101  224 1    
   203  102  103 2    
   204  102  104 am   BACKBONE|DICT|INTERRES
   205  104  105 1    
   206  104  225 1    
   207  105  106 1    
   208  105  107 1    
   209  105  226 1    
   210  106  227 1    
   211  106  228 1    
   212  106  229 1    
   213  107  108 2    
   214  107  109 am   BACKBONE|DICT|INTERRES
   215  109  110 1    
   216  109  230 1    
   217  110  111 1    
   218  110  112 1    
   219  110  231 1    
   220  111  232 1    
   221  111  233 1    
   222  111  234 1    
   223  112  113 2    
   224  112  114 am   BACKBONE|DICT|INTERRES
   225  114  115 1    
   226  114  235 1    
   227  115  116 1    
   228  115  117 1    
   229  115  236 1    
   230  116  237 1    
   231  116  238 1    
   232  116  239 1    
   233  117  118 2    
   234  117  119 am   BACKBONE|DICT|INTERRES
   235  119  120 1    
   236  119  240 1    
   237  120  121 1    
   238  120  124 1    
   239  120  241 1    
   240  121  122 am   BACKBONE|DICT|INTERRES
   241  121  123 2    
   242  122  242 1    
   243  122  243 1    
   244  124  125 1    
   245  124  244 1    
   246  124  245 1    
   247  125  126 1    
   248  126  246 1    
   249  126  247 1    
@<TRIPOS>SUBSTRUCTURE
     1 UNK         1 GROUP             0       ****    0 ROOT    
