@<TRIPOS>MOLECULE
3R540
247   249    1
SMALL
USER_CHARGES


@<TRIPOS>ATOM
      1 CA          3.2142  -12.7418  -44.4700 C.3       0 UNK        -0.1800 
      2 C           2.0281  -12.3261  -45.3249 C.2       0 UNK         0.5000 
      3 O           1.0581  -11.7781  -44.8029 O.2       0 UNK        -0.5000 
      4 N           2.1023  -12.5624  -46.6419 N.am      1 UNK        -0.5000 
      5 CA          1.0423  -12.2620  -47.6179 C.3       1 UNK         0.1400 
      6 C6          1.3759  -12.8445  -49.0162 C.3       23 UNK        -0.0398 
      7 S7         -0.1001  -13.4790  -49.8806 S.3       23 UNK        -0.2404 
      8 C8         -0.2786  -15.1379  -49.1471 C.3       23 UNK        -0.0205 
      9 C9          0.8190  -16.0902  -49.5967 C.ar      23 UNK        -0.0193 
     10 C10         0.7190  -16.7425  -50.8280 C.ar      23 UNK        -0.1150 
     11 C11         1.7014  -17.6503  -51.2348 C.ar      23 UNK        -0.0193 
     12 C12         2.8053  -17.8826  -50.4089 C.ar      23 UNK        -0.1150 
     13 C13         2.9202  -17.2308  -49.1770 C.ar      23 UNK        -0.0193 
     14 C14         1.9217  -16.3388  -48.7747 C.ar      23 UNK        -0.1150 
     15 C15         4.1046  -17.5153  -48.2653 C.3       23 UNK        -0.0205 
     16 S16         3.9633  -19.1409  -47.4553 S.3       23 UNK        -0.2404 
     17 C17         2.4346  -18.9411  -46.4776 C.3       23 UNK        -0.0398 
     18 CA          1.1833  -19.4663  -47.2179 C.3       11 UNK         0.1400 
     19 N           1.2903  -20.8891  -47.5573 N.am      11 UNK        -0.5000 
     20 C           0.5031  -21.5117  -48.4441 C.2       10 UNK         0.5000 
     21 O          -0.3759  -20.9382  -49.0821 O.2       10 UNK        -0.5000 
     22 CA          0.6425  -23.0381  -48.5782 C.3       10 UNK         0.1400 
     23 CB          1.5428  -23.3961  -49.7685 C.3       10 UNK        -0.1800 
     24 N           1.1447  -23.6974  -47.3707 N.am      10 UNK        -0.5000 
     25 C           0.5952  -23.6323  -46.1489 C.2       9 UNK         0.5000 
     26 O          -0.4481  -23.0241  -45.9019 O.2       9 UNK        -0.5000 
     27 CA          1.3508  -24.3379  -45.0062 C.3       9 UNK         0.1400 
     28 CB          2.1841  -25.5459  -45.4853 C.3       9 UNK        -0.1800 
     29 N           2.1953  -23.4294  -44.2219 N.am      9 UNK        -0.5000 
     30 C           3.1300  -22.5711  -44.6552 C.2       8 UNK         0.5000 
     31 O           3.3343  -22.3204  -45.8441 O.2       8 UNK        -0.5000 
     32 CA          3.9874  -21.8904  -43.5637 C.3       8 UNK         0.1400 
     33 CB          5.1797  -21.1108  -44.1471 C.3       8 UNK        -0.1800 
     34 N           3.2217  -20.9859  -42.7065 N.am      8 UNK        -0.5000 
     35 C           2.3290  -21.3372  -41.7723 C.2       7 UNK         0.5000 
     36 O           2.0396  -22.5090  -41.5229 O.2       7 UNK        -0.5000 
     37 CA          1.6565  -20.2063  -40.9619 C.3       7 UNK         0.1400 
     38 CB          2.0450  -20.3038  -39.4775 C.3       7 UNK        -0.1800 
     39 N           1.9408  -18.8420  -41.4268 N.am      7 UNK        -0.5000 
     40 C           1.4992  -18.3157  -42.5746 C.2       6 UNK         0.5000 
     41 O           0.8981  -18.9633  -43.4303 O.2       6 UNK        -0.5000 
     42 CA          1.8011  -16.8318  -42.8205 C.3       6 UNK         0.1400 
     43 CB          3.2195  -16.6456  -43.3842 C.3       6 UNK        -0.1800 
     44 N           0.8185  -16.3146  -43.7710 N.am      6 UNK        -0.5000 
     45 C           0.1144  -15.1912  -43.6102 C.2       5 UNK         0.5000 
     46 O           0.3009  -14.3835  -42.6958 O.2       5 UNK        -0.5000 
     47 CA         -1.0158  -14.9517  -44.6213 C.3       5 UNK         0.1400 
     48 CB         -2.1911  -15.9150  -44.3565 C.3       5 UNK        -0.1800 
     49 N          -1.4775  -13.5729  -44.5022 N.am      5 UNK        -0.5000 
     50 C          -2.2480  -12.9236  -45.3808 C.2       4 UNK         0.5000 
     51 O          -2.5873  -13.3855  -46.4701 O.2       4 UNK        -0.5000 
     52 CA         -2.7342  -11.5309  -44.9588 C.3       4 UNK         0.1400 
     53 CB         -3.8097  -11.6669  -43.8584 C.3       4 UNK        -0.1800 
     54 N          -1.6092  -10.7005  -44.5257 N.am      4 UNK        -0.5000 
     55 C          -1.6782   -9.4043  -44.1908 C.2       3 UNK         0.5000 
     56 O          -2.7211   -8.7500  -44.1608 O.2       3 UNK        -0.5000 
     57 CA         -0.3454   -8.7046  -43.8826 C.3       3 UNK         0.1400 
     58 CB          0.3047   -9.2566  -42.6025 C.3       3 UNK        -0.1800 
     59 N           0.5657   -8.8558  -45.0140 N.am      3 UNK        -0.5000 
     60 C           0.5972   -8.0327  -46.0725 C.2       2 UNK         0.5000 
     61 O          -0.0489   -6.9866  -46.1449 O.2       2 UNK        -0.5000 
     62 CA          1.4907   -8.4451  -47.2602 C.3       2 UNK         0.1400 
     63 CB          2.8745   -7.7876  -47.1464 C.3       2 UNK        -0.1800 
     64 N           1.6605   -9.8937  -47.3784 N.am      2 UNK        -0.5000 
     65 C           0.6871  -10.7589  -47.7002 C.2       1 UNK         0.5000 
     66 O          -0.4527  -10.4155  -48.0139 O.2       1 UNK        -0.5000 
     67 C          -0.1126  -19.1043  -46.4535 C.2       11 UNK         0.5000 
     68 O          -0.4322  -17.9188  -46.3572 O.2       11 UNK        -0.5000 
     69 N          -0.8402  -20.1131  -45.9532 N.am      12 UNK        -0.5000 
     70 CA         -2.1919  -20.0167  -45.4006 C.3       12 UNK         0.1400 
     71 CB         -2.1790  -20.5331  -43.9505 C.3       12 UNK        -0.1800 
     72 C          -3.1877  -20.8024  -46.2816 C.2       12 UNK         0.5000 
     73 O          -4.2213  -21.2570  -45.7892 O.2       12 UNK        -0.5000 
     74 N          -2.8395  -20.9849  -47.5652 N.am      13 UNK        -0.5000 
     75 CA         -3.5485  -21.7326  -48.6083 C.3       13 UNK         0.1400 
     76 CB         -4.9294  -21.1125  -48.9034 C.3       13 UNK        -0.1800 
     77 C          -3.6352  -23.2513  -48.3582 C.2       13 UNK         0.5000 
     78 O          -4.3760  -23.9224  -49.0749 O.2       13 UNK        -0.5000 
     79 N          -2.8842  -23.7800  -47.3782 N.am      14 UNK        -0.5000 
     80 CA         -2.8143  -25.1903  -46.9733 C.3       14 UNK         0.1400 
     81 CB         -2.0448  -26.0129  -48.0277 C.3       14 UNK        -0.1800 
     82 C          -4.1962  -25.7903  -46.6384 C.2       14 UNK         0.5000 
     83 O          -4.5261  -26.8797  -47.1060 O.2       14 UNK        -0.5000 
     84 N          -5.0060  -25.0334  -45.8813 N.am      15 UNK        -0.5000 
     85 CA         -6.4101  -25.3256  -45.5530 C.3       15 UNK         0.1400 
     86 CB         -6.5208  -26.5603  -44.6337 C.3       15 UNK        -0.1800 
     87 C          -7.2995  -25.4219  -46.8144 C.2       15 UNK         0.5000 
     88 O          -8.1732  -26.2853  -46.9043 O.2       15 UNK        -0.5000 
     89 N          -7.0230  -24.5231  -47.7686 N.am      16 UNK        -0.5000 
     90 CA         -7.6224  -24.3617  -49.0955 C.3       16 UNK         0.1400 
     91 CB         -9.1560  -24.2132  -49.0262 C.3       16 UNK        -0.1800 
     92 C          -7.1733  -25.4023  -50.1433 C.2       16 UNK         0.5000 
     93 O          -7.6678  -25.3580  -51.2704 O.2       16 UNK        -0.5000 
     94 N          -6.2197  -26.2837  -49.8065 N.am      17 UNK        -0.5000 
     95 CA         -5.6394  -27.2534  -50.7414 C.3       17 UNK         0.1400 
     96 CB         -4.9159  -28.3583  -49.9584 C.3       17 UNK        -0.1800 
     97 C          -4.6854  -26.6129  -51.7707 C.2       17 UNK         0.5000 
     98 O          -4.5265  -27.1618  -52.8614 O.2       17 UNK        -0.5000 
     99 N          -4.0804  -25.4698  -51.4194 N.am      18 UNK        -0.5000 
    100 CA        -3.1626  -24.6985  -52.2614 C.3       18 UNK         0.1400 
    101 CB        -1.8358  -24.4866  -51.5098 C.3       18 UNK        -0.1800 
    102 C         -3.7813  -23.3565  -52.6967 C.2       18 UNK         0.5000 
    103 O         -3.0546  -22.4820  -53.1717 O.2       18 UNK        -0.5000 
    104 N         -5.1081  -23.2055  -52.5575 N.am      19 UNK        -0.5000 
    105 CA        -5.8629  -21.9964  -52.9102 C.3       19 UNK         0.1400 
    106 CB        -7.3343  -22.1731  -52.5097 C.3       19 UNK        -0.1800 
    107 C         -5.7588  -21.5949  -54.3951 C.2       19 UNK         0.5000 
    108 O         -5.8460  -20.4081  -54.7087 O.2       19 UNK        -0.5000 
    109 N         -5.5278  -22.5767  -55.2766 N.am      20 UNK        -0.5000 
    110 CA        -5.2800  -22.3703  -56.7044 C.3       20 UNK         0.1400 
    111 CB        -5.3259  -23.7311  -57.4163 C.3       20 UNK        -0.1800 
    112 C         -3.9472  -21.6513  -57.0037 C.2       20 UNK         0.5000 
    113 O         -3.8294  -21.0279  -58.0595 O.2       20 UNK        -0.5000 
    114 N         -2.9754  -21.7535  -56.0864 N.am      21 UNK        -0.5000 
    115 CA        -1.6540  -21.1393  -56.2003 C.3       21 UNK         0.1400 
    116 CB        -0.5857  -22.1779  -55.8196 C.3       21 UNK        -0.1800 
    117 C         -1.5277  -19.8953  -55.3065 C.2       21 UNK         0.5000 
    118 O         -0.9841  -18.8850  -55.7551 O.2       21 UNK        -0.5000 
    119 N         -2.0103  -19.9977  -54.0625 N.am      22 UNK        -0.5000 
    120 CA        -1.7905  -19.0158  -52.9880 C.3       22 UNK         0.1400 
    121 C         -3.0956  -18.4010  -52.4077 C.2       22 UNK         0.5000 
    122 N         -4.2689  -18.6443  -52.9747 N.am      22 UNK        -0.7600 
    123 O         -3.0457  -17.6553  -51.4340 O.2       22 UNK        -0.5000 
    124 C124       -0.8949  -19.6127  -51.8703 C.3       23 UNK        -0.0398 
    125 S125        0.8021  -20.0169  -52.4179 S.3       23 UNK        -0.2404 
    126 C126        1.5751  -18.3704  -52.5702 C.3       23 UNK        -0.0205 
    127 H127        3.7857  -11.8633  -44.1713 H         1 UNK         0.0600 
    128 H128        3.8785  -13.4221  -45.0031 H         1 UNK         0.0600 
    129 H129        2.8646  -13.2427  -43.5673 H         1 UNK         0.0600 
    130 H130        2.9378  -12.9900  -47.0150 H         1 UNK         0.3000 
    131 H131        0.1516  -12.7652  -47.2370 H         1 UNK         0.0600 
    132 H132        2.0994  -13.6542  -48.9400 H         1 UNK         0.0800 
    133 H133        1.8612  -12.1034  -49.6543 H         1 UNK         0.0800 
    134 H134       -1.2489  -15.5457  -49.4357 H         1 UNK         0.0800 
    135 H135       -0.2995  -15.0611  -48.0593 H         1 UNK         0.0800 
    136 H136       -0.1357  -16.5533  -51.4626 H         1 UNK         0.1150 
    137 H137        3.5669  -18.5859  -50.7155 H         1 UNK         0.1150 
    138 H138        1.9953  -15.8465  -47.8152 H         1 UNK         0.1150 
    139 H139        5.0245  -17.4912  -48.8511 H         1 UNK         0.0800 
    140 H140        4.2065  -16.7392  -47.5051 H         1 UNK         0.0800 
    141 H141        2.3162  -17.8863  -46.2277 H         1 UNK         0.0800 
    142 H142        2.5621  -19.4691  -45.5319 H         1 UNK         0.0800 
    143 H143        1.1056  -18.9339  -48.1656 H         1 UNK         0.0600 
    144 H144        1.9983  -21.4227  -47.0609 H         1 UNK         0.3000 
    145 H145       -0.3547  -23.4315  -48.7775 H         1 UNK         0.0600 
    146 H146        1.5645  -24.4728  -49.9376 H         1 UNK         0.0600 
    147 H147        1.1783  -22.9315  -50.6862 H         1 UNK         0.0600 
    148 H148        2.5675  -23.0563  -49.6129 H         1 UNK         0.0600 
    149 H149        2.0297  -24.1749  -47.4605 H         1 UNK         0.3000 
    150 H150        0.5863  -24.7154  -44.3256 H         1 UNK         0.0600 
    151 H151        1.5798  -26.2304  -46.0824 H         1 UNK         0.0600 
    152 H152        2.5654  -26.1134  -44.6364 H         1 UNK         0.0600 
    153 H153        3.0419  -25.2448  -46.0877 H         1 UNK         0.0600 
    154 H154        2.0564  -23.4647  -43.2157 H         1 UNK         0.3000 
    155 H155        4.3948  -22.6881  -42.9390 H         1 UNK         0.0600 
    156 H156        4.8529  -20.2593  -44.7440 H         1 UNK         0.0600 
    157 H157        5.7892  -21.7478  -44.7894 H         1 UNK         0.0600 
    158 H158        5.8292  -20.7346  -43.3565 H         1 UNK         0.0600 
    159 H159        3.3719  -19.9996  -42.8526 H         1 UNK         0.3000 
    160 H160        0.5790  -20.3658  -41.0401 H         1 UNK         0.0600 
    161 H161        3.1134  -20.1403  -39.3310 H         1 UNK         0.0600 
    162 H162        1.8049  -21.2870  -39.0705 H         1 UNK         0.0600 
    163 H163        1.5064  -19.5690  -38.8788 H         1 UNK         0.0600 
    164 H164        2.4549  -18.2544  -40.7858 H         1 UNK         0.3000 
    165 H165        1.7227  -16.3081  -41.8654 H         1 UNK         0.0600 
    166 H166        3.4246  -15.5975  -43.5962 H         1 UNK         0.0600 
    167 H167        3.9708  -16.9819  -42.6687 H         1 UNK         0.0600 
    168 H168        3.3736  -17.2071  -44.3043 H         1 UNK         0.0600 
    169 H169        0.5308  -16.9753  -44.4854 H         1 UNK         0.3000 
    170 H170       -0.6166  -15.1156  -45.6240 H         1 UNK         0.0600 
    171 H171       -2.6859  -15.6909  -43.4109 H         1 UNK         0.0600 
    172 H172       -2.9378  -15.8569  -45.1483 H         1 UNK         0.0600 
    173 H173       -1.8562  -16.9509  -44.3076 H         1 UNK         0.0600 
    174 H174       -1.1796  -13.1161  -43.6486 H         1 UNK         0.3000 
    175 H175       -3.1840  -11.0591  -45.8347 H         1 UNK         0.0600 
    176 H176       -3.3785  -11.9971  -42.9128 H         1 UNK         0.0600 
    177 H177       -4.3291  -10.7264  -43.6785 H         1 UNK         0.0600 
    178 H178       -4.5708  -12.3949  -44.1431 H         1 UNK         0.0600 
    179 H179       -0.6917  -11.1404  -44.5745 H         1 UNK         0.3000 
    180 H180       -0.5489   -7.6446  -43.7152 H         1 UNK         0.0600 
    181 H181        1.2311   -8.7291  -42.3754 H         1 UNK         0.0600 
    182 H182        0.5374  -10.3185  -42.6795 H         1 UNK         0.0600 
    183 H183       -0.3591   -9.1301  -41.7464 H         1 UNK         0.0600 
    184 H184        1.0767   -9.7291  -45.0583 H         1 UNK         0.3000 
    185 H185        1.0136   -8.0838  -48.1736 H         1 UNK         0.0600 
    186 H186        3.4913   -8.0121  -48.0168 H         1 UNK         0.0600 
    187 H187        2.7868   -6.7021  -47.0833 H         1 UNK         0.0600 
    188 H188        3.4093   -8.1258  -46.2580 H         1 UNK         0.0600 
    189 H189        2.5666  -10.2645  -47.1322 H         1 UNK         0.3000 
    190 H190       -0.4846  -21.0601  -46.0416 H         1 UNK         0.3000 
    191 H191       -2.5316  -18.9801  -45.3957 H         1 UNK         0.0600 
    192 H192       -3.1688  -20.4686  -43.4975 H         1 UNK         0.0600 
    193 H193       -1.5071  -19.9437  -43.3284 H         1 UNK         0.0600 
    194 H194       -1.8572  -21.5738  -43.8980 H         1 UNK         0.0600 
    195 H195       -1.9483  -20.6066  -47.8697 H         1 UNK         0.3000 
    196 H196       -2.9498  -21.6219  -49.5132 H         1 UNK         0.0600 
    197 H197       -5.6216  -21.2418  -48.0713 H         1 UNK         0.0600 
    198 H198       -4.8447  -20.0454  -49.1092 H         1 UNK         0.0600 
    199 H199       -5.3857  -21.5720  -49.7806 H         1 UNK         0.0600 
    200 H200       -2.2877  -23.1581  -46.8444 H         1 UNK         0.3000 
    201 H201       -2.2397  -25.2214  -46.0468 H         1 UNK         0.0600 
    202 H202       -2.5617  -26.0243  -48.9866 H         1 UNK         0.0600 
    203 H203       -1.9272  -27.0488  -47.7080 H         1 UNK         0.0600 
    204 H204       -1.0444  -25.6152  -48.1905 H         1 UNK         0.0600 
    205 H205       -4.6573  -24.1383  -45.5644 H         1 UNK         0.3000 
    206 H206       -6.7775  -24.4662  -44.9902 H         1 UNK         0.0600 
    207 H207       -5.8858  -26.4549  -43.7542 H         1 UNK         0.0600 
    208 H208       -7.5440  -26.6921  -44.2803 H         1 UNK         0.0600 
    209 H209       -6.2337  -27.4784  -45.1469 H         1 UNK         0.0600 
    210 H210       -6.2308  -23.9184  -47.6020 H         1 UNK         0.3000 
    211 H211       -7.2283  -23.4107  -49.4520 H         1 UNK         0.0600 
    212 H212       -9.5599  -23.8962  -49.9884 H         1 UNK         0.0600 
    213 H213       -9.4484  -23.4635  -48.2910 H         1 UNK         0.0600 
    214 H214       -9.6449  -25.1518  -48.7652 H         1 UNK         0.0600 
    215 H215       -5.8271  -26.2560  -48.8737 H         1 UNK         0.3000 
    216 H216       -6.4566  -27.7202  -51.2956 H         1 UNK         0.0600 
    217 H217       -4.0293  -27.9785  -49.4511 H         1 UNK         0.0600 
    218 H218       -4.5900  -29.1569  -50.6259 H         1 UNK         0.0600 
    219 H219       -5.5677  -28.8061  -49.2080 H         1 UNK         0.0600 
    220 H220       -4.2854  -25.0637  -50.5077 H         1 UNK         0.3000 
    221 H221       -2.9385  -25.2454  -53.1789 H         1 UNK         0.0600 
    222 H222       -1.4055  -25.4364  -51.1924 H         1 UNK         0.0600 
    223 H223       -1.9656  -23.8645  -50.6261 H         1 UNK         0.0600 
    224 H224       -1.0976  -23.9958  -52.1455 H         1 UNK         0.0600 
    225 H225       -5.6389  -23.9782  -52.1813 H         1 UNK         0.3000 
    226 H226       -5.4497  -21.1729  -52.3250 H         1 UNK         0.0600 
    227 H227       -7.7808  -23.0452  -52.9891 H         1 UNK         0.0600 
    228 H228       -7.4385  -22.2891  -51.4329 H         1 UNK         0.0600 
    229 H229       -7.9265  -21.3023  -52.7945 H         1 UNK         0.0600 
    230 H230       -5.4764  -23.5256  -54.9366 H         1 UNK         0.3000 
    231 H231       -6.0850  -21.7486  -57.1020 H         1 UNK         0.0600 
    232 H232       -4.5523  -24.4052  -57.0461 H         1 UNK         0.0600 
    233 H233       -5.1740  -23.6157  -58.4904 H         1 UNK         0.0600 
    234 H234       -6.2915  -24.2176  -57.2770 H         1 UNK         0.0600 
    235 H235       -3.1677  -22.2443  -55.2219 H         1 UNK         0.3000 
    236 H236       -1.4638  -20.8300  -57.2302 H         1 UNK         0.0600 
    237 H237       -0.6213  -23.0404  -56.4852 H         1 UNK         0.0600 
    238 H238        0.4158  -21.7516  -55.8915 H         1 UNK         0.0600 
    239 H239       -0.7151  -22.5378  -54.7979 H         1 UNK         0.0600 
    240 H240       -2.4294  -20.8763  -53.7672 H         1 UNK         0.3000 
    241 H241       -1.2691  -18.1493  -53.3946 H         1 UNK         0.0600 
    242 H242       -5.0911  -18.2099  -52.5881 H         1 UNK         0.3800 
    243 H243       -4.3613  -19.2257  -53.7969 H         1 UNK         0.3800 
    244 H244       -1.3497  -20.5320  -51.4983 H         1 UNK         0.0800 
    245 H245       -0.8283  -18.9537  -51.0048 H         1 UNK         0.0800 
    246 H246        2.5666  -18.4949  -53.0078 H         1 UNK         0.0800 
    247 H247        1.0140  -17.7622  -53.2804 H         1 UNK         0.0800 
@<TRIPOS>BOND
     1    1    2 1    
     2    1  127 1    
     3    1  128 1    
     4    1  129 1    
     5    2    3 2    
     6    2    4 am   BACKBONE|DICT|INTERRES
     7    4    5 1    
     8    4  130 1    
     9    5    6 1    
    10    5   65 1    
    11    5  131 1    
    12    6    7 1    
    13    6  132 1    
    14    6  133 1    
    15    7    8 1    
    16    8    9 1    
    17    8  134 1    
    18    8  135 1    
    19    9   10 ar   
    20    9   14 ar   
    21   10   11 ar   
    22   10  136 1    
    23   11   12 ar   
    24   11  126 1    
    25   12   13 ar   
    26   12  137 1    
    27   13   14 ar   
    28   13   15 1    
    29   14  138 1    
    30   15   16 1    
    31   15  139 1    
    32   15  140 1    
    33   16   17 1    
    34   17   18 1    
    35   17  141 1    
    36   17  142 1    
    37   18   19 1    
    38   18   67 1    
    39   18  143 1    
    40   19   20 am   BACKBONE|DICT|INTERRES
    41   19  144 1    
    42   20   21 2    
    43   20   22 1    
    44   22   23 1    
    45   22   24 1    
    46   22  145 1    
    47   23  146 1    
    48   23  147 1    
    49   23  148 1    
    50   24   25 am   BACKBONE|DICT|INTERRES
    51   24  149 1    
    52   25   26 2    
    53   25   27 1    
    54   27   28 1    
    55   27   29 1    
    56   27  150 1    
    57   28  151 1    
    58   28  152 1    
    59   28  153 1    
    60   29   30 am   BACKBONE|DICT|INTERRES
    61   29  154 1    
    62   30   31 2    
    63   30   32 1    
    64   32   33 1    
    65   32   34 1    
    66   32  155 1    
    67   33  156 1    
    68   33  157 1    
    69   33  158 1    
    70   34   35 am   BACKBONE|DICT|INTERRES
    71   34  159 1    
    72   35   36 2    
    73   35   37 1    
    74   37   38 1    
    75   37   39 1    
    76   37  160 1    
    77   38  161 1    
    78   38  162 1    
    79   38  163 1    
    80   39   40 am   BACKBONE|DICT|INTERRES
    81   39  164 1    
    82   40   41 2    
    83   40   42 1    
    84   42   43 1    
    85   42   44 1    
    86   42  165 1    
    87   43  166 1    
    88   43  167 1    
    89   43  168 1    
    90   44   45 am   BACKBONE|DICT|INTERRES
    91   44  169 1    
    92   45   46 2    
    93   45   47 1    
    94   47   48 1    
    95   47   49 1    
    96   47  170 1    
    97   48  171 1    
    98   48  172 1    
    99   48  173 1    
   100   49   50 am   BACKBONE|DICT|INTERRES
   101   49  174 1    
   102   50   51 2    
   103   50   52 1    
   104   52   53 1    
   105   52   54 1    
   106   52  175 1    
   107   53  176 1    
   108   53  177 1    
   109   53  178 1    
   110   54   55 am   BACKBONE|DICT|INTERRES
   111   54  179 1    
   112   55   56 2    
   113   55   57 1    
   114   57   58 1    
   115   57   59 1    
   116   57  180 1    
   117   58  181 1    
   118   58  182 1    
   119   58  183 1    
   120   59   60 am   BACKBONE|DICT|INTERRES
   121   59  184 1    
   122   60   61 2    
   123   60   62 1    
   124   62   63 1    
   125   62   64 1    
   126   62  185 1    
   127   63  186 1    
   128   63  187 1    
   129   63  188 1    
   130   64   65 am   BACKBONE|DICT|INTERRES
   131   64  189 1    
   132   65   66 2    
   133   67   68 2    
   134   67   69 am   BACKBONE|DICT|INTERRES
   135   69   70 1    
   136   69  190 1    
   137   70   71 1    
   138   70   72 1    
   139   70  191 1    
   140   71  192 1    
   141   71  193 1    
   142   71  194 1    
   143   72   73 2    
   144   72   74 am   BACKBONE|DICT|INTERRES
   145   74   75 1    
   146   74  195 1    
   147   75   76 1    
   148   75   77 1    
   149   75  196 1    
   150   76  197 1    
   151   76  198 1    
   152   76  199 1    
   153   77   78 2    
   154   77   79 am   BACKBONE|DICT|INTERRES
   155   79   80 1    
   156   79  200 1    
   157   80   81 1    
   158   80   82 1    
   159   80  201 1    
   160   81  202 1    
   161   81  203 1    
   162   81  204 1    
   163   82   83 2    
   164   82   84 am   BACKBONE|DICT|INTERRES
   165   84   85 1    
   166   84  205 1    
   167   85   86 1    
   168   85   87 1    
   169   85  206 1    
   170   86  207 1    
   171   86  208 1    
   172   86  209 1    
   173   87   88 2    
   174   87   89 am   BACKBONE|DICT|INTERRES
   175   89   90 1    
   176   89  210 1    
   177   90   91 1    
   178   90   92 1    
   179   90  211 1    
   180   91  212 1    
   181   91  213 1    
   182   91  214 1    
   183   92   93 2    
   184   92   94 am   BACKBONE|DICT|INTERRES
   185   94   95 1    
   186   94  215 1    
   187   95   96 1    
   188   95   97 1    
   189   95  216 1    
   190   96  217 1    
   191   96  218 1    
   192   96  219 1    
   193   97   98 2    
   194   97   99 am   BACKBONE|DICT|INTERRES
   195   99  100 1    
   196   99  220 1    
   197  100  101 1    
   198  100  102 1    
   199  100  221 1    
   200  101  222 1    
   201  101  223 1    
   202  101  224 1    
   203  102  103 2    
   204  102  104 am   BACKBONE|DICT|INTERRES
   205  104  105 1    
   206  104  225 1    
   207  105  106 1    
   208  105  107 1    
   209  105  226 1    
   210  106  227 1    
   211  106  228 1    
   212  106  229 1    
   213  107  108 2    
   214  107  109 am   BACKBONE|DICT|INTERRES
   215  109  110 1    
   216  109  230 1    
   217  110  111 1    
   218  110  112 1    
   219  110  231 1    
   220  111  232 1    
   221  111  233 1    
   222  111  234 1    
   223  112  113 2    
   224  112  114 am   BACKBONE|DICT|INTERRES
   225  114  115 1    
   226  114  235 1    
   227  115  116 1    
   228  115  117 1    
   229  115  236 1    
   230  116  237 1    
   231  116  238 1    
   232  116  239 1    
   233  117  118 2    
   234  117  119 am   BACKBONE|DICT|INTERRES
   235  119  120 1    
   236  119  240 1    
   237  120  121 1    
   238  120  124 1    
   239  120  241 1    
   240  121  122 am   BACKBONE|DICT|INTERRES
   241  121  123 2    
   242  122  242 1    
   243  122  243 1    
   244  124  125 1    
   245  124  244 1    
   246  124  245 1    
   247  125  126 1    
   248  126  246 1    
   249  126  247 1    
@<TRIPOS>SUBSTRUCTURE
     1 UNK         1 GROUP             0       ****    0 ROOT    
