@<TRIPOS>MOLECULE
3R540
247   249    1
SMALL
USER_CHARGES


@<TRIPOS>ATOM
      1 CA          7.8312  -12.8166  -48.6044 C.3       0 UNK        -0.1800 
      2 C           6.4107  -12.3097  -48.4001 C.2       0 UNK         0.5000 
      3 O           6.1126  -11.1705  -48.7584 O.2       0 UNK        -0.5000 
      4 N           5.5429  -13.1499  -47.8171 N.am      1 UNK        -0.5000 
      5 CA          4.1177  -12.8879  -47.5475 C.3       1 UNK         0.1400 
      6 C6          3.2679  -12.6669  -48.8324 C.3       23 UNK        -0.0398 
      7 S7          3.4341  -14.0311  -50.0420 S.3       23 UNK        -0.2404 
      8 C8          1.8742  -14.9209  -49.7676 C.3       23 UNK        -0.0205 
      9 C9          1.8188  -16.2395  -50.5197 C.ar      23 UNK        -0.0193 
     10 C10         1.0913  -16.3470  -51.7075 C.ar      23 UNK        -0.1150 
     11 C11         1.0011  -17.5721  -52.3758 C.ar      23 UNK        -0.0193 
     12 C12         1.6516  -18.6926  -51.8496 C.ar      23 UNK        -0.1150 
     13 C13         2.3848  -18.5964  -50.6634 C.ar      23 UNK        -0.0193 
     14 C14         2.4653  -17.3663  -50.0043 C.ar      23 UNK        -0.1150 
     15 C15         3.1082  -19.8126  -50.1036 C.3       23 UNK        -0.0205 
     16 S16         2.3980  -20.3740  -48.5247 S.3       23 UNK        -0.2404 
     17 C17         0.7776  -21.0258  -49.0510 C.3       23 UNK        -0.0398 
     18 CA          0.2045  -22.0283  -48.0211 C.3       11 UNK         0.1400 
     19 N          -0.0493  -21.4184  -46.7116 N.am      11 UNK        -0.5000 
     20 C          -0.3936  -22.0940  -45.6061 C.2       10 UNK         0.5000 
     21 O          -0.4846  -23.3196  -45.5525 O.2       10 UNK        -0.5000 
     22 CA         -0.7551  -21.2598  -44.3668 C.3       10 UNK         0.1400 
     23 CB          0.5018  -20.8415  -43.5887 C.3       10 UNK        -0.1800 
     24 N          -1.5390  -20.0789  -44.7259 N.am      10 UNK        -0.5000 
     25 C          -2.8161  -20.1204  -45.1312 C.2       9 UNK         0.5000 
     26 O          -3.4765  -21.1571  -45.2010 O.2       9 UNK        -0.5000 
     27 CA         -3.4482  -18.7854  -45.5670 C.3       9 UNK         0.1400 
     28 CB         -3.9731  -18.0133  -44.3478 C.3       9 UNK        -0.1800 
     29 N          -2.5199  -17.9359  -46.3142 N.am      9 UNK        -0.5000 
     30 C          -2.0248  -18.2390  -47.5231 C.2       8 UNK         0.5000 
     31 O          -2.3210  -19.2554  -48.1483 O.2       8 UNK        -0.5000 
     32 CA         -0.9892  -17.2675  -48.1151 C.3       8 UNK         0.1400 
     33 CB         -1.7014  -16.1143  -48.8353 C.3       8 UNK        -0.1800 
     34 N          -0.0609  -16.7143  -47.1282 N.am      8 UNK        -0.5000 
     35 C           0.7052  -17.4054  -46.2753 C.2       7 UNK         0.5000 
     36 O           0.6892  -18.6319  -46.1935 O.2       7 UNK        -0.5000 
     37 CA          1.6058  -16.6060  -45.3125 C.3       7 UNK         0.1400 
     38 CB          2.9977  -16.3763  -45.9243 C.3       7 UNK        -0.1800 
     39 N           1.0128  -15.3555  -44.8147 N.am      7 UNK        -0.5000 
     40 C           0.6614  -14.2410  -45.4741 C.2       6 UNK         0.5000 
     41 O           0.8681  -14.0712  -46.6732 O.2       6 UNK        -0.5000 
     42 CA         -0.0679  -13.1419  -44.6748 C.3       6 UNK         0.1400 
     43 CB         -1.2918  -12.5939  -45.4369 C.3       6 UNK        -0.1800 
     44 N          -0.4287  -13.5362  -43.3054 N.am      6 UNK        -0.5000 
     45 C          -1.3082  -14.4707  -42.9069 C.2       5 UNK         0.5000 
     46 O          -1.9876  -15.1376  -43.6879 O.2       5 UNK        -0.5000 
     47 CA         -1.3941  -14.7652  -41.3922 C.3       5 UNK         0.1400 
     48 CB         -1.2515  -16.2732  -41.1201 C.3       5 UNK        -0.1800 
     49 N          -0.3639  -14.0611  -40.6226 N.am      5 UNK        -0.5000 
     50 C          -0.5003  -12.8476  -40.0715 C.2       4 UNK         0.5000 
     51 O          -1.5489  -12.2027  -40.0847 O.2       4 UNK        -0.5000 
     52 CA          0.7645  -12.2360  -39.4319 C.3       4 UNK         0.1400 
     53 CB          0.8244  -12.5714  -37.9339 C.3       4 UNK        -0.1800 
     54 N           2.0204  -12.6558  -40.0699 N.am      4 UNK        -0.5000 
     55 C           2.3519  -12.4059  -41.3442 C.2       3 UNK         0.5000 
     56 O           1.6063  -11.8234  -42.1339 O.2       3 UNK        -0.5000 
     57 CA          3.7107  -12.9550  -41.8252 C.3       3 UNK         0.1400 
     58 CB          3.6178  -14.4704  -42.0677 C.3       3 UNK        -0.1800 
     59 N           4.1784  -12.3192  -43.0598 N.am      3 UNK        -0.5000 
     60 C           4.5265  -11.0310  -43.1874 C.2       2 UNK         0.5000 
     61 O           4.5370  -10.2356  -42.2461 O.2       2 UNK        -0.5000 
     62 CA          4.9629  -10.5465  -44.5855 C.3       2 UNK         0.1400 
     63 CB          6.3995   -9.9978  -44.5452 C.3       2 UNK        -0.1800 
     64 N           4.9063  -11.5954  -45.6082 N.am      2 UNK        -0.5000 
     65 C           3.9043  -11.7846  -46.4791 C.2       1 UNK         0.5000 
     66 O           2.8562  -11.1383  -46.4530 O.2       1 UNK        -0.5000 
     67 C          -1.0523  -22.7348  -48.5677 C.2       11 UNK         0.5000 
     68 O          -0.9514  -23.8755  -49.0171 O.2       11 UNK        -0.5000 
     69 N          -2.2181  -22.0791  -48.4660 N.am      12 UNK        -0.5000 
     70 CA         -3.5227  -22.6407  -48.8162 C.3       12 UNK         0.1400 
     71 CB         -4.6061  -21.5594  -48.7069 C.3       12 UNK        -0.1800 
     72 C          -3.8895  -23.8714  -47.9713 C.2       12 UNK         0.5000 
     73 O          -4.3460  -24.8674  -48.5322 O.2       12 UNK        -0.5000 
     74 N          -3.6527  -23.7995  -46.6538 N.am      13 UNK        -0.5000 
     75 CA         -3.8638  -24.9042  -45.7176 C.3       13 UNK         0.1400 
     76 CB         -3.6855  -24.4082  -44.2749 C.3       13 UNK        -0.1800 
     77 C          -2.9491  -26.1084  -46.0063 C.2       13 UNK         0.5000 
     78 O          -3.4384  -27.2367  -46.0682 O.2       13 UNK        -0.5000 
     79 N          -1.6525  -25.8466  -46.2267 N.am      14 UNK        -0.5000 
     80 CA         -0.6417  -26.8487  -46.5777 C.3       14 UNK         0.1400 
     81 CB          0.7475  -26.1933  -46.5810 C.3       14 UNK        -0.1800 
     82 C          -0.9162  -27.5397  -47.9268 C.2       14 UNK         0.5000 
     83 O          -0.6784  -28.7407  -48.0573 O.2       14 UNK        -0.5000 
     84 N          -1.4466  -26.7763  -48.8900 N.am      15 UNK        -0.5000 
     85 CA         -1.8753  -27.2509  -50.2051 C.3       15 UNK         0.1400 
     86 CB         -1.8987  -26.0536  -51.1667 C.3       15 UNK        -0.1800 
     87 C          -3.2477  -27.9561  -50.1946 C.2       15 UNK         0.5000 
     88 O          -3.6854  -28.4085  -51.2518 O.2       15 UNK        -0.5000 
     89 N          -3.9226  -28.0122  -49.0356 N.am      16 UNK        -0.5000 
     90 CA         -5.2608  -28.5755  -48.8212 C.3       16 UNK         0.1400 
     91 CB         -5.2451  -30.1081  -48.9979 C.3       16 UNK        -0.1800 
     92 C          -6.3370  -27.8725  -49.6765 C.2       16 UNK         0.5000 
     93 O          -7.1627  -28.5308  -50.3108 O.2       16 UNK        -0.5000 
     94 N          -6.2729  -26.5340  -49.6874 N.am      17 UNK        -0.5000 
     95 CA         -7.1192  -25.5790  -50.4080 C.3       17 UNK         0.1400 
     96 CB         -8.6144  -25.7686  -50.0809 C.3       17 UNK        -0.1800 
     97 C          -6.8555  -25.4983  -51.9248 C.2       17 UNK         0.5000 
     98 O          -7.5207  -24.7120  -52.5988 O.2       17 UNK        -0.5000 
     99 N          -5.8641  -26.2352  -52.4500 N.am      18 UNK        -0.5000 
    100 CA        -5.4616  -26.1589  -53.8607 C.3       18 UNK         0.1400 
    101 CB        -4.5732  -27.3596  -54.2156 C.3       18 UNK        -0.1800 
    102 C         -4.7599  -24.8320  -54.2212 C.2       18 UNK         0.5000 
    103 O         -4.7702  -24.4429  -55.3891 O.2       18 UNK        -0.5000 
    104 N         -4.1934  -24.1531  -53.2133 N.am      19 UNK        -0.5000 
    105 CA        -3.5623  -22.8362  -53.3231 C.3       19 UNK         0.1400 
    106 CB        -2.1342  -22.8984  -52.7508 C.3       19 UNK        -0.1800 
    107 C         -4.4114  -21.7388  -52.6499 C.2       19 UNK         0.5000 
    108 O         -3.8794  -20.6807  -52.3181 O.2       19 UNK        -0.5000 
    109 N         -5.7244  -21.9710  -52.4792 N.am      20 UNK        -0.5000 
    110 CA        -6.6760  -20.9911  -51.9318 C.3       20 UNK         0.1400 
    111 CB        -8.0442  -21.6555  -51.7256 C.3       20 UNK        -0.1800 
    112 C         -6.8148  -19.7117  -52.7833 C.2       20 UNK         0.5000 
    113 O         -7.1813  -18.6631  -52.2505 O.2       20 UNK        -0.5000 
    114 N         -6.4558  -19.8039  -54.0725 N.am      21 UNK        -0.5000 
    115 CA        -6.3353  -18.6918  -55.0184 C.3       21 UNK         0.1400 
    116 CB        -5.9730  -19.2584  -56.3999 C.3       21 UNK        -0.1800 
    117 C         -5.3189  -17.6075  -54.5969 C.2       21 UNK         0.5000 
    118 O         -5.4201  -16.4773  -55.0764 O.2       21 UNK        -0.5000 
    119 N         -4.3827  -17.9491  -53.6993 N.am      22 UNK        -0.5000 
    120 CA        -3.4783  -16.9982  -53.0347 C.3       22 UNK         0.1400 
    121 C         -4.1874  -16.0367  -52.0332 C.2       22 UNK         0.5000 
    122 N         -5.4138  -16.3020  -51.5946 N.am      22 UNK        -0.7600 
    123 O         -3.6129  -15.0206  -51.6540 O.2       22 UNK        -0.5000 
    124 C124       -2.2942  -17.7156  -52.3384 C.3       23 UNK        -0.0398 
    125 S125       -1.2825  -18.7130  -53.4866 S.3       23 UNK        -0.2404 
    126 C126        0.2085  -17.6834  -53.6711 C.3       23 UNK        -0.0205 
    127 H127        7.9552  -13.8365  -48.2395 H         1 UNK         0.0600 
    128 H128        8.5376  -12.1775  -48.0747 H         1 UNK         0.0600 
    129 H129        8.0850  -12.8022  -49.6644 H         1 UNK         0.0600 
    130 H130        5.8626  -14.0737  -47.5614 H         1 UNK         0.3000 
    131 H131        3.7423  -13.7933  -47.0754 H         1 UNK         0.0600 
    132 H132        2.2131  -12.5514  -48.5772 H         1 UNK         0.0800 
    133 H133        3.5560  -11.7380  -49.3260 H         1 UNK         0.0800 
    134 H134        1.0370  -14.2795  -50.0469 H         1 UNK         0.0800 
    135 H135        1.7651  -15.1290  -48.7076 H         1 UNK         0.0800 
    136 H136        0.5875  -15.4777  -52.1064 H         1 UNK         0.1150 
    137 H137        1.5832  -19.6392  -52.3671 H         1 UNK         0.1150 
    138 H138        3.0267  -17.2888  -49.0837 H         1 UNK         0.1150 
    139 H139        3.1034  -20.6368  -50.8184 H         1 UNK         0.0800 
    140 H140        4.1560  -19.5553  -49.9432 H         1 UNK         0.0800 
    141 H141        0.0943  -20.1900  -49.2066 H         1 UNK         0.0800 
    142 H142        0.9008  -21.5093  -50.0220 H         1 UNK         0.0800 
    143 H143        0.9552  -22.8065  -47.8670 H         1 UNK         0.0600 
    144 H144        0.0671  -20.4107  -46.6484 H         1 UNK         0.3000 
    145 H145       -1.3625  -21.8846  -43.7085 H         1 UNK         0.0600 
    146 H146        0.2425  -20.2654  -42.7003 H         1 UNK         0.0600 
    147 H147        1.0590  -21.7181  -43.2564 H         1 UNK         0.0600 
    148 H148        1.1777  -20.2385  -44.1947 H         1 UNK         0.0600 
    149 H149       -1.0376  -19.2040  -44.7839 H         1 UNK         0.3000 
    150 H150       -4.2948  -19.0143  -46.2176 H         1 UNK         0.0600 
    151 H151       -4.6918  -18.6114  -43.7861 H         1 UNK         0.0600 
    152 H152       -4.4782  -17.0953  -44.6489 H         1 UNK         0.0600 
    153 H153       -3.1666  -17.7419  -43.6659 H         1 UNK         0.0600 
    154 H154       -2.2183  -17.0825  -45.8651 H         1 UNK         0.3000 
    155 H155       -0.3990  -17.8197  -48.8489 H         1 UNK         0.0600 
    156 H156       -1.0012  -15.5116  -49.4117 H         1 UNK         0.0600 
    157 H157       -2.2121  -15.4545  -48.1328 H         1 UNK         0.0600 
    158 H158       -2.4512  -16.4922  -49.5303 H         1 UNK         0.0600 
    159 H159        0.0514  -15.7047  -47.1225 H         1 UNK         0.3000 
    160 H160        1.7413  -17.2308  -44.4281 H         1 UNK         0.0600 
    161 H161        2.9369  -15.8744  -46.8872 H         1 UNK         0.0600 
    162 H162        3.5034  -17.3277  -46.0940 H         1 UNK         0.0600 
    163 H163        3.6311  -15.7819  -45.2661 H         1 UNK         0.0600 
    164 H164        0.7436  -15.3822  -43.8428 H         1 UNK         0.3000 
    165 H165        0.6476  -12.3244  -44.5782 H         1 UNK         0.0600 
    166 H166       -2.0155  -13.3769  -45.6648 H         1 UNK         0.0600 
    167 H167       -1.8011  -11.8211  -44.8613 H         1 UNK         0.0600 
    168 H168       -0.9917  -12.1450  -46.3846 H         1 UNK         0.0600 
    169 H169        0.0882  -13.0340  -42.5908 H         1 UNK         0.3000 
    170 H170       -2.3847  -14.4517  -41.0568 H         1 UNK         0.0600 
    171 H171       -2.0444  -16.8395  -41.6099 H         1 UNK         0.0600 
    172 H172       -0.2985  -16.6614  -41.4816 H         1 UNK         0.0600 
    173 H173       -1.3180  -16.4883  -40.0534 H         1 UNK         0.0600 
    174 H174        0.5344  -14.5158  -40.5499 H         1 UNK         0.3000 
    175 H175        0.6882  -11.1515  -39.5351 H         1 UNK         0.0600 
    176 H176        0.9328  -13.6435  -37.7651 H         1 UNK         0.0600 
    177 H177        1.6613  -12.0679  -37.4496 H         1 UNK         0.0600 
    178 H178       -0.0849  -12.2492  -37.4245 H         1 UNK         0.0600 
    179 H179        2.6764  -13.1498  -39.4815 H         1 UNK         0.3000 
    180 H180        4.4508  -12.7660  -41.0450 H         1 UNK         0.0600 
    181 H181        2.8945  -14.7088  -42.8470 H         1 UNK         0.0600 
    182 H182        3.3139  -15.0000  -41.1640 H         1 UNK         0.0600 
    183 H183        4.5814  -14.8810  -42.3704 H         1 UNK         0.0600 
    184 H184        4.1852  -12.8911  -43.8897 H         1 UNK         0.3000 
    185 H185        4.2976   -9.7260  -44.8619 H         1 UNK         0.0600 
    186 H186        6.7038   -9.6204  -45.5218 H         1 UNK         0.0600 
    187 H187        7.1150  -10.7638  -44.2437 H         1 UNK         0.0600 
    188 H188        6.4863   -9.1708  -43.8392 H         1 UNK         0.0600 
    189 H189        5.7311  -12.1703  -45.7044 H         1 UNK         0.3000 
    190 H190       -2.2162  -21.1151  -48.1403 H         1 UNK         0.3000 
    191 H191       -3.4796  -22.9634  -49.8563 H         1 UNK         0.0600 
    192 H192       -4.3972  -20.7278  -49.3804 H         1 UNK         0.0600 
    193 H193       -5.5853  -21.9595  -48.9728 H         1 UNK         0.0600 
    194 H194       -4.6773  -21.1592  -47.6955 H         1 UNK         0.0600 
    195 H195       -3.3173  -22.9265  -46.2608 H         1 UNK         0.3000 
    196 H196       -4.8967  -25.2401  -45.8312 H         1 UNK         0.0600 
    197 H197       -3.8635  -25.2130  -43.5607 H         1 UNK         0.0600 
    198 H198       -4.3885  -23.6076  -44.0445 H         1 UNK         0.0600 
    199 H199       -2.6790  -24.0293  -44.0981 H         1 UNK         0.0600 
    200 H200       -1.3215  -24.8894  -46.1249 H         1 UNK         0.3000 
    201 H201       -0.6542  -27.6185  -45.8035 H         1 UNK         0.0600 
    202 H202        0.9882  -25.7756  -45.6033 H         1 UNK         0.0600 
    203 H203        0.8087  -25.3870  -47.3128 H         1 UNK         0.0600 
    204 H204        1.5235  -26.9198  -46.8247 H         1 UNK         0.0600 
    205 H205       -1.5455  -25.7800  -48.7201 H         1 UNK         0.3000 
    206 H206       -1.1422  -27.9706  -50.5747 H         1 UNK         0.0600 
    207 H207       -0.9286  -25.5578  -51.2038 H         1 UNK         0.0600 
    208 H208       -2.1368  -26.3626  -52.1838 H         1 UNK         0.0600 
    209 H209       -2.6409  -25.3169  -50.8592 H         1 UNK         0.0600 
    210 H210       -3.4971  -27.5921  -48.2181 H         1 UNK         0.3000 
    211 H211       -5.5158  -28.3679  -47.7810 H         1 UNK         0.0600 
    212 H212       -5.0415  -30.3975  -50.0292 H         1 UNK         0.0600 
    213 H213       -6.2064  -30.5422  -48.7209 H         1 UNK         0.0600 
    214 H214       -4.4870  -30.5688  -48.3644 H         1 UNK         0.0600 
    215 H215       -5.5178  -26.0949  -49.1609 H         1 UNK         0.3000 
    216 H216       -6.8320  -24.6020  -50.0166 H         1 UNK         0.0600 
    217 H217       -8.7820  -25.8057  -49.0045 H         1 UNK         0.0600 
    218 H218       -9.0154  -26.6835  -50.5172 H         1 UNK         0.0600 
    219 H219       -9.2062  -24.9399  -50.4713 H         1 UNK         0.0600 
    220 H220       -5.3611  -26.8872  -51.8615 H         1 UNK         0.3000 
    221 H221       -6.3649  -26.2248  -54.4711 H         1 UNK         0.0600 
    222 H222       -3.6172  -27.3251  -53.6952 H         1 UNK         0.0600 
    223 H223       -5.0598  -28.3016  -53.9621 H         1 UNK         0.0600 
    224 H224       -4.3594  -27.3814  -55.2849 H         1 UNK         0.0600 
    225 H225       -4.2515  -24.5490  -52.2872 H         1 UNK         0.3000 
    226 H226       -3.4765  -22.5477  -54.3724 H         1 UNK         0.0600 
    227 H227       -1.5484  -23.6762  -53.2406 H         1 UNK         0.0600 
    228 H228       -1.6083  -21.9553  -52.9060 H         1 UNK         0.0600 
    229 H229       -2.1276  -23.0992  -51.6811 H         1 UNK         0.0600 
    230 H230       -6.1131  -22.8532  -52.7860 H         1 UNK         0.3000 
    231 H231       -6.3053  -20.6763  -50.9554 H         1 UNK         0.0600 
    232 H232       -8.7704  -20.9445  -51.3293 H         1 UNK         0.0600 
    233 H233       -7.9793  -22.4776  -51.0133 H         1 UNK         0.0600 
    234 H234       -8.4456  -22.0485  -52.6604 H         1 UNK         0.0600 
    235 H235       -6.1739  -20.7103  -54.4143 H         1 UNK         0.3000 
    236 H236       -7.3128  -18.2106  -55.0878 H         1 UNK         0.0600 
    237 H237       -6.7279  -19.9633  -56.7489 H         1 UNK         0.0600 
    238 H238       -5.9051  -18.4633  -57.1436 H         1 UNK         0.0600 
    239 H239       -5.0121  -19.7744  -56.3825 H         1 UNK         0.0600 
    240 H240       -4.3427  -18.9022  -53.3566 H         1 UNK         0.3000 
    241 H241       -3.0566  -16.3588  -53.8126 H         1 UNK         0.0600 
    242 H242       -5.8544  -15.6609  -50.9546 H         1 UNK         0.3800 
    243 H243       -5.9189  -17.1275  -51.8979 H         1 UNK         0.3800 
    244 H244       -1.6532  -16.9897  -51.8382 H         1 UNK         0.0800 
    245 H245       -2.6619  -18.3768  -51.5516 H         1 UNK         0.0800 
    246 H246       -0.0802  -16.6978  -54.0397 H         1 UNK         0.0800 
    247 H247        0.8458  -18.1223  -54.4399 H         1 UNK         0.0800 
@<TRIPOS>BOND
     1    1    2 1    
     2    1  127 1    
     3    1  128 1    
     4    1  129 1    
     5    2    3 2    
     6    2    4 am   BACKBONE|DICT|INTERRES
     7    4    5 1    
     8    4  130 1    
     9    5    6 1    
    10    5   65 1    
    11    5  131 1    
    12    6    7 1    
    13    6  132 1    
    14    6  133 1    
    15    7    8 1    
    16    8    9 1    
    17    8  134 1    
    18    8  135 1    
    19    9   10 ar   
    20    9   14 ar   
    21   10   11 ar   
    22   10  136 1    
    23   11   12 ar   
    24   11  126 1    
    25   12   13 ar   
    26   12  137 1    
    27   13   14 ar   
    28   13   15 1    
    29   14  138 1    
    30   15   16 1    
    31   15  139 1    
    32   15  140 1    
    33   16   17 1    
    34   17   18 1    
    35   17  141 1    
    36   17  142 1    
    37   18   19 1    
    38   18   67 1    
    39   18  143 1    
    40   19   20 am   BACKBONE|DICT|INTERRES
    41   19  144 1    
    42   20   21 2    
    43   20   22 1    
    44   22   23 1    
    45   22   24 1    
    46   22  145 1    
    47   23  146 1    
    48   23  147 1    
    49   23  148 1    
    50   24   25 am   BACKBONE|DICT|INTERRES
    51   24  149 1    
    52   25   26 2    
    53   25   27 1    
    54   27   28 1    
    55   27   29 1    
    56   27  150 1    
    57   28  151 1    
    58   28  152 1    
    59   28  153 1    
    60   29   30 am   BACKBONE|DICT|INTERRES
    61   29  154 1    
    62   30   31 2    
    63   30   32 1    
    64   32   33 1    
    65   32   34 1    
    66   32  155 1    
    67   33  156 1    
    68   33  157 1    
    69   33  158 1    
    70   34   35 am   BACKBONE|DICT|INTERRES
    71   34  159 1    
    72   35   36 2    
    73   35   37 1    
    74   37   38 1    
    75   37   39 1    
    76   37  160 1    
    77   38  161 1    
    78   38  162 1    
    79   38  163 1    
    80   39   40 am   BACKBONE|DICT|INTERRES
    81   39  164 1    
    82   40   41 2    
    83   40   42 1    
    84   42   43 1    
    85   42   44 1    
    86   42  165 1    
    87   43  166 1    
    88   43  167 1    
    89   43  168 1    
    90   44   45 am   BACKBONE|DICT|INTERRES
    91   44  169 1    
    92   45   46 2    
    93   45   47 1    
    94   47   48 1    
    95   47   49 1    
    96   47  170 1    
    97   48  171 1    
    98   48  172 1    
    99   48  173 1    
   100   49   50 am   BACKBONE|DICT|INTERRES
   101   49  174 1    
   102   50   51 2    
   103   50   52 1    
   104   52   53 1    
   105   52   54 1    
   106   52  175 1    
   107   53  176 1    
   108   53  177 1    
   109   53  178 1    
   110   54   55 am   BACKBONE|DICT|INTERRES
   111   54  179 1    
   112   55   56 2    
   113   55   57 1    
   114   57   58 1    
   115   57   59 1    
   116   57  180 1    
   117   58  181 1    
   118   58  182 1    
   119   58  183 1    
   120   59   60 am   BACKBONE|DICT|INTERRES
   121   59  184 1    
   122   60   61 2    
   123   60   62 1    
   124   62   63 1    
   125   62   64 1    
   126   62  185 1    
   127   63  186 1    
   128   63  187 1    
   129   63  188 1    
   130   64   65 am   BACKBONE|DICT|INTERRES
   131   64  189 1    
   132   65   66 2    
   133   67   68 2    
   134   67   69 am   BACKBONE|DICT|INTERRES
   135   69   70 1    
   136   69  190 1    
   137   70   71 1    
   138   70   72 1    
   139   70  191 1    
   140   71  192 1    
   141   71  193 1    
   142   71  194 1    
   143   72   73 2    
   144   72   74 am   BACKBONE|DICT|INTERRES
   145   74   75 1    
   146   74  195 1    
   147   75   76 1    
   148   75   77 1    
   149   75  196 1    
   150   76  197 1    
   151   76  198 1    
   152   76  199 1    
   153   77   78 2    
   154   77   79 am   BACKBONE|DICT|INTERRES
   155   79   80 1    
   156   79  200 1    
   157   80   81 1    
   158   80   82 1    
   159   80  201 1    
   160   81  202 1    
   161   81  203 1    
   162   81  204 1    
   163   82   83 2    
   164   82   84 am   BACKBONE|DICT|INTERRES
   165   84   85 1    
   166   84  205 1    
   167   85   86 1    
   168   85   87 1    
   169   85  206 1    
   170   86  207 1    
   171   86  208 1    
   172   86  209 1    
   173   87   88 2    
   174   87   89 am   BACKBONE|DICT|INTERRES
   175   89   90 1    
   176   89  210 1    
   177   90   91 1    
   178   90   92 1    
   179   90  211 1    
   180   91  212 1    
   181   91  213 1    
   182   91  214 1    
   183   92   93 2    
   184   92   94 am   BACKBONE|DICT|INTERRES
   185   94   95 1    
   186   94  215 1    
   187   95   96 1    
   188   95   97 1    
   189   95  216 1    
   190   96  217 1    
   191   96  218 1    
   192   96  219 1    
   193   97   98 2    
   194   97   99 am   BACKBONE|DICT|INTERRES
   195   99  100 1    
   196   99  220 1    
   197  100  101 1    
   198  100  102 1    
   199  100  221 1    
   200  101  222 1    
   201  101  223 1    
   202  101  224 1    
   203  102  103 2    
   204  102  104 am   BACKBONE|DICT|INTERRES
   205  104  105 1    
   206  104  225 1    
   207  105  106 1    
   208  105  107 1    
   209  105  226 1    
   210  106  227 1    
   211  106  228 1    
   212  106  229 1    
   213  107  108 2    
   214  107  109 am   BACKBONE|DICT|INTERRES
   215  109  110 1    
   216  109  230 1    
   217  110  111 1    
   218  110  112 1    
   219  110  231 1    
   220  111  232 1    
   221  111  233 1    
   222  111  234 1    
   223  112  113 2    
   224  112  114 am   BACKBONE|DICT|INTERRES
   225  114  115 1    
   226  114  235 1    
   227  115  116 1    
   228  115  117 1    
   229  115  236 1    
   230  116  237 1    
   231  116  238 1    
   232  116  239 1    
   233  117  118 2    
   234  117  119 am   BACKBONE|DICT|INTERRES
   235  119  120 1    
   236  119  240 1    
   237  120  121 1    
   238  120  124 1    
   239  120  241 1    
   240  121  122 am   BACKBONE|DICT|INTERRES
   241  121  123 2    
   242  122  242 1    
   243  122  243 1    
   244  124  125 1    
   245  124  244 1    
   246  124  245 1    
   247  125  126 1    
   248  126  246 1    
   249  126  247 1    
@<TRIPOS>SUBSTRUCTURE
     1 UNK         1 GROUP             0       ****    0 ROOT    
