@<TRIPOS>MOLECULE
3R540
247   249    1
SMALL
USER_CHARGES


@<TRIPOS>ATOM
      1 CA         -1.0062   -7.8866  -49.2951 C.3       0 UNK        -0.1800 
      2 C          -0.8941   -9.3972  -49.1448 C.2       0 UNK         0.5000 
      3 O          -1.9126  -10.0732  -49.0014 O.2       0 UNK        -0.5000 
      4 N           0.3388   -9.9229  -49.1781 N.am      1 UNK        -0.5000 
      5 CA          0.6795  -11.3458  -49.0372 C.3       1 UNK         0.1400 
      6 C6          0.1272  -12.2177  -50.1983 C.3       23 UNK        -0.0398 
      7 S7          1.1766  -13.6699  -50.5561 S.3       23 UNK        -0.2404 
      8 C8         -0.0593  -15.0077  -50.5029 C.3       23 UNK        -0.0205 
      9 C9          0.4689  -16.3116  -51.0877 C.ar      23 UNK        -0.0193 
     10 C10         0.9208  -16.3525  -52.4105 C.ar      23 UNK        -0.1150 
     11 C11         1.3609  -17.5506  -52.9833 C.ar      23 UNK        -0.0193 
     12 C12         1.3391  -18.7183  -52.2153 C.ar      23 UNK        -0.1150 
     13 C13         0.8990  -18.6939  -50.8882 C.ar      23 UNK        -0.0193 
     14 C14         0.4706  -17.4857  -50.3274 C.ar      23 UNK        -0.1150 
     15 C15         0.9025  -19.9721  -50.0615 C.3       23 UNK        -0.0205 
     16 S16        -0.7906  -20.5245  -49.6704 S.3       23 UNK        -0.2404 
     17 C17        -0.8419  -20.3970  -47.8502 C.3       23 UNK        -0.0398 
     18 CA         -1.0223  -21.7765  -47.1614 C.3       11 UNK         0.1400 
     19 N          -0.3529  -21.8320  -45.8557 N.am      11 UNK        -0.5000 
     20 C          -0.2548  -22.9206  -45.0775 C.2       10 UNK         0.5000 
     21 O          -0.6805  -24.0288  -45.3973 O.2       10 UNK        -0.5000 
     22 CA          0.3694  -22.7312  -43.6816 C.3       10 UNK         0.1400 
     23 CB          1.9024  -22.7645  -43.7555 C.3       10 UNK        -0.1800 
     24 N          -0.0785  -21.4989  -43.0295 N.am      10 UNK        -0.5000 
     25 C          -1.3513  -21.2511  -42.6851 C.2       9 UNK         0.5000 
     26 O          -2.2624  -22.0671  -42.8151 O.2       9 UNK        -0.5000 
     27 CA         -1.6788  -19.8378  -42.1725 C.3       9 UNK         0.1400 
     28 CB         -1.3593  -19.7062  -40.6763 C.3       9 UNK        -0.1800 
     29 N          -0.9779  -18.7974  -42.9245 N.am      9 UNK        -0.5000 
     30 C          -1.1481  -18.5553  -44.2323 C.2       8 UNK         0.5000 
     31 O          -1.9729  -19.1417  -44.9341 O.2       8 UNK        -0.5000 
     32 CA         -0.1872  -17.5399  -44.8768 C.3       8 UNK         0.1400 
     33 CB         -0.6445  -16.0970  -44.6215 C.3       8 UNK        -0.1800 
     34 N           1.1886  -17.7240  -44.4087 N.am      8 UNK        -0.5000 
     35 C           1.9474  -18.7837  -44.7245 C.2       7 UNK         0.5000 
     36 O           1.5873  -19.6640  -45.5038 O.2       7 UNK        -0.5000 
     37 CA          3.3062  -18.9256  -44.0165 C.3       7 UNK         0.1400 
     38 CB          4.4496  -18.3553  -44.8633 C.3       7 UNK        -0.1800 
     39 N           3.3096  -18.3215  -42.6831 N.am      7 UNK        -0.5000 
     40 C           2.7212  -18.9013  -41.6273 C.2       6 UNK         0.5000 
     41 O           2.1179  -19.9731  -41.6914 O.2       6 UNK        -0.5000 
     42 CA          2.7880  -18.1526  -40.2858 C.3       6 UNK         0.1400 
     43 CB          4.1761  -18.3042  -39.6460 C.3       6 UNK        -0.1800 
     44 N           2.4556  -16.7323  -40.3848 N.am      6 UNK        -0.5000 
     45 C           1.2945  -16.2253  -40.8148 C.2       5 UNK         0.5000 
     46 O           0.3795  -16.9133  -41.2646 O.2       5 UNK        -0.5000 
     47 CA          1.1192  -14.6967  -40.7455 C.3       5 UNK         0.1400 
     48 CB          0.7031  -14.2427  -39.3339 C.3       5 UNK        -0.1800 
     49 N           2.2696  -13.9372  -41.2472 N.am      5 UNK        -0.5000 
     50 C           3.5106  -13.8326  -40.7468 C.2       4 UNK         0.5000 
     51 O           3.8632  -14.3571  -39.6887 O.2       4 UNK        -0.5000 
     52 CA          4.5355  -13.0317  -41.5836 C.3       4 UNK         0.1400 
     53 CB          5.9818  -13.5273  -41.3734 C.3       4 UNK        -0.1800 
     54 N           4.2166  -12.9722  -43.0169 N.am      4 UNK        -0.5000 
     55 C           4.0779  -14.0061  -43.8618 C.2       3 UNK         0.5000 
     56 O           4.2276  -15.1847  -43.5335 O.2       3 UNK        -0.5000 
     57 CA          3.6480  -13.6406  -45.3006 C.3       3 UNK         0.1400 
     58 CB          3.1684  -14.8555  -46.1189 C.3       3 UNK        -0.1800 
     59 N           2.6331  -12.5812  -45.3705 N.am      3 UNK        -0.5000 
     60 C           1.4500  -12.5304  -44.7358 C.2       2 UNK         0.5000 
     61 O           1.1072  -13.3052  -43.8437 O.2       2 UNK        -0.5000 
     62 CA          0.4790  -11.4229  -45.1866 C.3       2 UNK         0.1400 
     63 CB          0.6607  -10.1640  -44.3256 C.3       2 UNK        -0.1800 
     64 N           0.6381  -11.0712  -46.6007 N.am      2 UNK        -0.5000 
     65 C           0.3429  -11.8856  -47.6265 C.2       1 UNK         0.5000 
     66 O          -0.1637  -12.9995  -47.4821 O.2       1 UNK        -0.5000 
     67 C          -2.5160  -22.1574  -47.0654 C.2       11 UNK         0.5000 
     68 O          -3.0161  -22.9028  -47.9102 O.2       11 UNK        -0.5000 
     69 N          -3.1932  -21.6573  -46.0227 N.am      12 UNK        -0.5000 
     70 CA         -4.5793  -21.9875  -45.7001 C.3       12 UNK         0.1400 
     71 CB         -5.1187  -20.9953  -44.6594 C.3       12 UNK        -0.1800 
     72 C          -4.7417  -23.4426  -45.2266 C.2       12 UNK         0.5000 
     73 O          -5.6310  -24.1372  -45.7175 O.2       12 UNK        -0.5000 
     74 N          -3.8667  -23.8908  -44.3148 N.am      13 UNK        -0.5000 
     75 CA         -3.8565  -25.2462  -43.7546 C.3       13 UNK         0.1400 
     76 CB         -2.8322  -25.3228  -42.6129 C.3       13 UNK        -0.1800 
     77 C          -3.5807  -26.3410  -44.8023 C.2       13 UNK         0.5000 
     78 O          -4.2006  -27.4037  -44.7500 O.2       13 UNK        -0.5000 
     79 N          -2.6847  -26.0491  -45.7542 N.am      14 UNK        -0.5000 
     80 CA         -2.3710  -26.9015  -46.9031 C.3       14 UNK         0.1400 
     81 CB         -1.0264  -26.4493  -47.4962 C.3       14 UNK        -0.1800 
     82 C          -3.4601  -26.8865  -47.9953 C.2       14 UNK         0.5000 
     83 O          -3.3890  -27.6970  -48.9193 O.2       14 UNK        -0.5000 
     84 N          -4.4152  -25.9485  -47.8945 N.am      15 UNK        -0.5000 
     85 CA         -5.4835  -25.6373  -48.8508 C.3       15 UNK         0.1400 
     86 CB         -6.4283  -26.8385  -49.0570 C.3       15 UNK        -0.1800 
     87 C          -4.9702  -25.0519  -50.1828 C.2       15 UNK         0.5000 
     88 O          -5.7350  -24.9604  -51.1420 O.2       15 UNK        -0.5000 
     89 N          -3.7064  -24.6113  -50.2135 N.am      16 UNK        -0.5000 
     90 CA         -3.0696  -23.9500  -51.3501 C.3       16 UNK         0.1400 
     91 CB         -1.5563  -23.8748  -51.1008 C.3       16 UNK        -0.1800 
     92 C          -3.6670  -22.5571  -51.6119 C.2       16 UNK         0.5000 
     93 O          -3.8391  -22.1765  -52.7703 O.2       16 UNK        -0.5000 
     94 N          -4.0297  -21.8480  -50.5334 N.am      17 UNK        -0.5000 
     95 CA         -4.7374  -20.5689  -50.5948 C.3       17 UNK         0.1400 
     96 CB         -4.7114  -19.8962  -49.2149 C.3       17 UNK        -0.1800 
     97 C          -6.1869  -20.7303  -51.0898 C.2       17 UNK         0.5000 
     98 O          -6.6674  -19.8848  -51.8436 O.2       17 UNK        -0.5000 
     99 N          -6.8434  -21.8270  -50.6824 N.am      18 UNK        -0.5000 
    100 CA        -8.2043  -22.1855  -51.0895 C.3       18 UNK         0.1400 
    101 CB        -8.7488  -23.2776  -50.1556 C.3       18 UNK        -0.1800 
    102 C         -8.2734  -22.6317  -52.5614 C.2       18 UNK         0.5000 
    103 O         -9.2069  -22.2548  -53.2703 O.2       18 UNK        -0.5000 
    104 N         -7.2610  -23.3912  -53.0024 N.am      19 UNK        -0.5000 
    105 CA        -7.0575  -23.8048  -54.3927 C.3       19 UNK         0.1400 
    106 CB        -6.0226  -24.9408  -54.4213 C.3       19 UNK        -0.1800 
    107 C         -6.6063  -22.6542  -55.3160 C.2       19 UNK         0.5000 
    108 O         -6.6773  -22.8043  -56.5363 O.2       19 UNK        -0.5000 
    109 N         -6.1437  -21.5451  -54.7194 N.am      20 UNK        -0.5000 
    110 CA        -5.5815  -20.3502  -55.3511 C.3       20 UNK         0.1400 
    111 CB        -6.6453  -19.6093  -56.1874 C.3       20 UNK        -0.1800 
    112 C         -4.2951  -20.6691  -56.1372 C.2       20 UNK         0.5000 
    113 O         -4.1383  -20.2446  -57.2852 O.2       20 UNK        -0.5000 
    114 N         -3.3831  -21.4114  -55.4939 N.am      21 UNK        -0.5000 
    115 CA        -2.0941  -21.8675  -56.0244 C.3       21 UNK         0.1400 
    116 CB        -1.6054  -23.0498  -55.1692 C.3       21 UNK        -0.1800 
    117 C         -1.0428  -20.7374  -56.1341 C.2       21 UNK         0.5000 
    118 O          0.0910  -20.8876  -55.6754 O.2       21 UNK        -0.5000 
    119 N         -1.4469  -19.6202  -56.7417 N.am      22 UNK        -0.5000 
    120 CA        -0.6462  -18.4166  -56.9916 C.3       22 UNK         0.1400 
    121 C         -1.0756  -17.6619  -58.2873 C.2       22 UNK         0.5000 
    122 N         -2.0193  -18.1636  -59.0780 N.am      22 UNK        -0.7600 
    123 O         -0.5333  -16.6070  -58.6034 O.2       22 UNK        -0.5000 
    124 C124       -0.5910  -17.5023  -55.7355 C.3       23 UNK        -0.0398 
    125 S125        0.9738  -16.5741  -55.6011 S.3       23 UNK        -0.2404 
    126 C126        1.9033  -17.5975  -54.4103 C.3       23 UNK        -0.0205 
    127 H127       -0.0300   -7.4169  -49.4190 H         1 UNK         0.0600 
    128 H128       -1.4810   -7.4563  -48.4131 H         1 UNK         0.0600 
    129 H129       -1.6146   -7.6405  -50.1655 H         1 UNK         0.0600 
    130 H130        1.1270   -9.3031  -49.3066 H         1 UNK         0.3000 
    131 H131        1.7686  -11.3696  -49.1011 H         1 UNK         0.0600 
    132 H132        0.0954  -11.6309  -51.1172 H         1 UNK         0.0800 
    133 H133       -0.9052  -12.5168  -50.0089 H         1 UNK         0.0800 
    134 H134       -0.9409  -14.7108  -51.0727 H         1 UNK         0.0800 
    135 H135       -0.3856  -15.1452  -49.4705 H         1 UNK         0.0800 
    136 H136        0.9309  -15.4421  -52.9930 H         1 UNK         0.1150 
    137 H137        1.6779  -19.6487  -52.6496 H         1 UNK         0.1150 
    138 H138        0.1231  -17.4675  -49.3039 H         1 UNK         0.1150 
    139 H139        1.4967  -19.8134  -49.1614 H         1 UNK         0.0800 
    140 H140        1.4015  -20.7757  -50.6050 H         1 UNK         0.0800 
    141 H141       -1.6291  -19.6959  -47.5681 H         1 UNK         0.0800 
    142 H142        0.0777  -19.9256  -47.5120 H         1 UNK         0.0800 
    143 H143       -0.5354  -22.5379  -47.7744 H         1 UNK         0.0600 
    144 H144        0.0826  -20.9728  -45.5367 H         1 UNK         0.3000 
    145 H145        0.0484  -23.5670  -43.0572 H         1 UNK         0.0600 
    146 H146        2.2495  -23.7215  -44.1468 H         1 UNK         0.0600 
    147 H147        2.3500  -22.6340  -42.7700 H         1 UNK         0.0600 
    148 H148        2.2938  -21.9865  -44.4091 H         1 UNK         0.0600 
    149 H149        0.6288  -20.8013  -42.8245 H         1 UNK         0.3000 
    150 H150       -2.7507  -19.6779  -42.3054 H         1 UNK         0.0600 
    151 H151       -0.2942  -19.8258  -40.4777 H         1 UNK         0.0600 
    152 H152       -1.8894  -20.4623  -40.0959 H         1 UNK         0.0600 
    153 H153       -1.6616  -18.7310  -40.2943 H         1 UNK         0.0600 
    154 H154       -0.3187  -18.2271  -42.4001 H         1 UNK         0.3000 
    155 H155       -0.2063  -17.7080  -45.9558 H         1 UNK         0.0600 
    156 H156       -0.0457  -15.3898  -45.1951 H         1 UNK         0.0600 
    157 H157       -0.5701  -15.8241  -43.5689 H         1 UNK         0.0600 
    158 H158       -1.6827  -15.9568  -44.9248 H         1 UNK         0.0600 
    159 H159        1.5388  -17.0603  -43.7336 H         1 UNK         0.3000 
    160 H160        3.5000  -19.9943  -43.9060 H         1 UNK         0.0600 
    161 H161        4.3582  -17.2806  -44.9876 H         1 UNK         0.0600 
    162 H162        4.4609  -18.8022  -45.8582 H         1 UNK         0.0600 
    163 H163        5.4174  -18.5565  -44.4039 H         1 UNK         0.0600 
    164 H164        3.7589  -17.4201  -42.5810 H         1 UNK         0.3000 
    165 H165        2.0554  -18.6122  -39.6192 H         1 UNK         0.0600 
    166 H166        4.4502  -19.3556  -39.5492 H         1 UNK         0.0600 
    167 H167        4.9492  -17.8149  -40.2399 H         1 UNK         0.0600 
    168 H168        4.1981  -17.8698  -38.6463 H         1 UNK         0.0600 
    169 H169        3.1445  -16.0706  -40.0377 H         1 UNK         0.3000 
    170 H170        0.2962  -14.4508  -41.4184 H         1 UNK         0.0600 
    171 H171        0.5246  -13.1679  -39.3028 H         1 UNK         0.0600 
    172 H172        1.4596  -14.4797  -38.5856 H         1 UNK         0.0600 
    173 H173       -0.2205  -14.7348  -39.0268 H         1 UNK         0.0600 
    174 H174        2.1037  -13.5239  -42.1603 H         1 UNK         0.3000 
    175 H175        4.4823  -12.0057  -41.2173 H         1 UNK         0.0600 
    176 H176        6.0947  -14.5759  -41.6503 H         1 UNK         0.0600 
    177 H177        6.2823  -13.4314  -40.3294 H         1 UNK         0.0600 
    178 H178        6.6880  -12.9459  -41.9660 H         1 UNK         0.0600 
    179 H179        4.0415  -12.0475  -43.3848 H         1 UNK         0.3000 
    180 H180        4.5371  -13.2435  -45.7921 H         1 UNK         0.0600 
    181 H181        2.3885  -15.4107  -45.5983 H         1 UNK         0.0600 
    182 H182        3.9937  -15.5368  -46.3200 H         1 UNK         0.0600 
    183 H183        2.7680  -14.5502  -47.0861 H         1 UNK         0.0600 
    184 H184        2.8130  -11.8607  -46.0546 H         1 UNK         0.3000 
    185 H185       -0.5371  -11.7955  -45.0402 H         1 UNK         0.0600 
    186 H186        0.5267  -10.3926  -43.2674 H         1 UNK         0.0600 
    187 H187        1.6551   -9.7322  -44.4450 H         1 UNK         0.0600 
    188 H188       -0.0714   -9.3994  -44.5864 H         1 UNK         0.0600 
    189 H189        1.0183  -10.1580  -46.8034 H         1 UNK         0.3000 
    190 H190       -2.7190  -21.0092  -45.4024 H         1 UNK         0.3000 
    191 H191       -5.1743  -21.8744  -46.6076 H         1 UNK         0.0600 
    192 H192       -5.0586  -19.9704  -45.0265 H         1 UNK         0.0600 
    193 H193       -6.1656  -21.1997  -44.4321 H         1 UNK         0.0600 
    194 H194       -4.5638  -21.0461  -43.7228 H         1 UNK         0.0600 
    195 H195       -3.1872  -23.2388  -43.9290 H         1 UNK         0.3000 
    196 H196       -4.8464  -25.4353  -43.3345 H         1 UNK         0.0600 
    197 H197       -3.0620  -24.6028  -41.8273 H         1 UNK         0.0600 
    198 H198       -1.8215  -25.1210  -42.9676 H         1 UNK         0.0600 
    199 H199       -2.8288  -26.3131  -42.1559 H         1 UNK         0.0600 
    200 H200       -2.1595  -25.1807  -45.6812 H         1 UNK         0.3000 
    201 H201       -2.2656  -27.9314  -46.5561 H         1 UNK         0.0600 
    202 H202       -0.7327  -27.0806  -48.3358 H         1 UNK         0.0600 
    203 H203       -0.2295  -26.5063  -46.7545 H         1 UNK         0.0600 
    204 H204       -1.0734  -25.4211  -47.8582 H         1 UNK         0.0600 
    205 H205       -4.3880  -25.3424  -47.0838 H         1 UNK         0.3000 
    206 H206       -6.0687  -24.8418  -48.3880 H         1 UNK         0.0600 
    207 H207       -6.7777  -27.2330  -48.1029 H         1 UNK         0.0600 
    208 H208       -7.3103  -26.5486  -49.6291 H         1 UNK         0.0600 
    209 H209       -5.9439  -27.6498  -49.6005 H         1 UNK         0.0600 
    210 H210       -3.1823  -24.6269  -49.3489 H         1 UNK         0.3000 
    211 H211       -3.2403  -24.5555  -52.2426 H         1 UNK         0.0600 
    212 H212       -1.1134  -24.8707  -51.0839 H         1 UNK         0.0600 
    213 H213       -1.0510  -23.3061  -51.8815 H         1 UNK         0.0600 
    214 H214       -1.3296  -23.3966  -50.1484 H         1 UNK         0.0600 
    215 H215       -3.8136  -22.2226  -49.6151 H         1 UNK         0.3000 
    216 H216       -4.2105  -19.9213  -51.2991 H         1 UNK         0.0600 
    217 H217       -5.2256  -20.4957  -48.4649 H         1 UNK         0.0600 
    218 H218       -5.2012  -18.9223  -49.2474 H         1 UNK         0.0600 
    219 H219       -3.6903  -19.7321  -48.8739 H         1 UNK         0.0600 
    220 H220       -6.3593  -22.4818  -50.0884 H         1 UNK         0.3000 
    221 H221       -8.8359  -21.3013  -50.9793 H         1 UNK         0.0600 
    222 H222       -8.1671  -24.1967  -50.2219 H         1 UNK         0.0600 
    223 H223       -8.7408  -22.9490  -49.1162 H         1 UNK         0.0600 
    224 H224       -9.7801  -23.5259  -50.4095 H         1 UNK         0.0600 
    225 H225       -6.5814  -23.7366  -52.3300 H         1 UNK         0.3000 
    226 H226       -8.0030  -24.1890  -54.7804 H         1 UNK         0.0600 
    227 H227       -6.3484  -25.7872  -53.8164 H         1 UNK         0.0600 
    228 H228       -5.8689  -25.3073  -55.4369 H         1 UNK         0.0600 
    229 H229       -5.0553  -24.6098  -54.0413 H         1 UNK         0.0600 
    230 H230       -6.1024  -21.5555  -53.7098 H         1 UNK         0.3000 
    231 H231       -5.2851  -19.6873  -54.5368 H         1 UNK         0.0600 
    232 H232       -6.9574  -20.1878  -57.0572 H         1 UNK         0.0600 
    233 H233       -6.2590  -18.6568  -56.5518 H         1 UNK         0.0600 
    234 H234       -7.5324  -19.3933  -55.5918 H         1 UNK         0.0600 
    235 H235       -3.5865  -21.6908  -54.5359 H         1 UNK         0.3000 
    236 H236       -2.2607  -22.2413  -57.0366 H         1 UNK         0.0600 
    237 H237       -1.3852  -22.7352  -54.1493 H         1 UNK         0.0600 
    238 H238       -2.3538  -23.8412  -55.1217 H         1 UNK         0.0600 
    239 H239       -0.6961  -23.4865  -55.5836 H         1 UNK         0.0600 
    240 H240       -2.4101  -19.5923  -57.0636 H         1 UNK         0.3000 
    241 H241        0.3663  -18.7641  -57.2058 H         1 UNK         0.0600 
    242 H242       -2.4801  -19.0367  -58.8747 H         1 UNK         0.3800 
    243 H243       -2.2715  -17.6577  -59.9129 H         1 UNK         0.3800 
    244 H244       -1.4235  -16.7970  -55.7294 H         1 UNK         0.0800 
    245 H245       -0.7103  -18.0925  -54.8259 H         1 UNK         0.0800 
    246 H246        1.9243  -18.6244  -54.7800 H         1 UNK         0.0800 
    247 H247        2.9385  -17.2548  -54.3931 H         1 UNK         0.0800 
@<TRIPOS>BOND
     1    1    2 1    
     2    1  127 1    
     3    1  128 1    
     4    1  129 1    
     5    2    3 2    
     6    2    4 am   BACKBONE|DICT|INTERRES
     7    4    5 1    
     8    4  130 1    
     9    5    6 1    
    10    5   65 1    
    11    5  131 1    
    12    6    7 1    
    13    6  132 1    
    14    6  133 1    
    15    7    8 1    
    16    8    9 1    
    17    8  134 1    
    18    8  135 1    
    19    9   10 ar   
    20    9   14 ar   
    21   10   11 ar   
    22   10  136 1    
    23   11   12 ar   
    24   11  126 1    
    25   12   13 ar   
    26   12  137 1    
    27   13   14 ar   
    28   13   15 1    
    29   14  138 1    
    30   15   16 1    
    31   15  139 1    
    32   15  140 1    
    33   16   17 1    
    34   17   18 1    
    35   17  141 1    
    36   17  142 1    
    37   18   19 1    
    38   18   67 1    
    39   18  143 1    
    40   19   20 am   BACKBONE|DICT|INTERRES
    41   19  144 1    
    42   20   21 2    
    43   20   22 1    
    44   22   23 1    
    45   22   24 1    
    46   22  145 1    
    47   23  146 1    
    48   23  147 1    
    49   23  148 1    
    50   24   25 am   BACKBONE|DICT|INTERRES
    51   24  149 1    
    52   25   26 2    
    53   25   27 1    
    54   27   28 1    
    55   27   29 1    
    56   27  150 1    
    57   28  151 1    
    58   28  152 1    
    59   28  153 1    
    60   29   30 am   BACKBONE|DICT|INTERRES
    61   29  154 1    
    62   30   31 2    
    63   30   32 1    
    64   32   33 1    
    65   32   34 1    
    66   32  155 1    
    67   33  156 1    
    68   33  157 1    
    69   33  158 1    
    70   34   35 am   BACKBONE|DICT|INTERRES
    71   34  159 1    
    72   35   36 2    
    73   35   37 1    
    74   37   38 1    
    75   37   39 1    
    76   37  160 1    
    77   38  161 1    
    78   38  162 1    
    79   38  163 1    
    80   39   40 am   BACKBONE|DICT|INTERRES
    81   39  164 1    
    82   40   41 2    
    83   40   42 1    
    84   42   43 1    
    85   42   44 1    
    86   42  165 1    
    87   43  166 1    
    88   43  167 1    
    89   43  168 1    
    90   44   45 am   BACKBONE|DICT|INTERRES
    91   44  169 1    
    92   45   46 2    
    93   45   47 1    
    94   47   48 1    
    95   47   49 1    
    96   47  170 1    
    97   48  171 1    
    98   48  172 1    
    99   48  173 1    
   100   49   50 am   BACKBONE|DICT|INTERRES
   101   49  174 1    
   102   50   51 2    
   103   50   52 1    
   104   52   53 1    
   105   52   54 1    
   106   52  175 1    
   107   53  176 1    
   108   53  177 1    
   109   53  178 1    
   110   54   55 am   BACKBONE|DICT|INTERRES
   111   54  179 1    
   112   55   56 2    
   113   55   57 1    
   114   57   58 1    
   115   57   59 1    
   116   57  180 1    
   117   58  181 1    
   118   58  182 1    
   119   58  183 1    
   120   59   60 am   BACKBONE|DICT|INTERRES
   121   59  184 1    
   122   60   61 2    
   123   60   62 1    
   124   62   63 1    
   125   62   64 1    
   126   62  185 1    
   127   63  186 1    
   128   63  187 1    
   129   63  188 1    
   130   64   65 am   BACKBONE|DICT|INTERRES
   131   64  189 1    
   132   65   66 2    
   133   67   68 2    
   134   67   69 am   BACKBONE|DICT|INTERRES
   135   69   70 1    
   136   69  190 1    
   137   70   71 1    
   138   70   72 1    
   139   70  191 1    
   140   71  192 1    
   141   71  193 1    
   142   71  194 1    
   143   72   73 2    
   144   72   74 am   BACKBONE|DICT|INTERRES
   145   74   75 1    
   146   74  195 1    
   147   75   76 1    
   148   75   77 1    
   149   75  196 1    
   150   76  197 1    
   151   76  198 1    
   152   76  199 1    
   153   77   78 2    
   154   77   79 am   BACKBONE|DICT|INTERRES
   155   79   80 1    
   156   79  200 1    
   157   80   81 1    
   158   80   82 1    
   159   80  201 1    
   160   81  202 1    
   161   81  203 1    
   162   81  204 1    
   163   82   83 2    
   164   82   84 am   BACKBONE|DICT|INTERRES
   165   84   85 1    
   166   84  205 1    
   167   85   86 1    
   168   85   87 1    
   169   85  206 1    
   170   86  207 1    
   171   86  208 1    
   172   86  209 1    
   173   87   88 2    
   174   87   89 am   BACKBONE|DICT|INTERRES
   175   89   90 1    
   176   89  210 1    
   177   90   91 1    
   178   90   92 1    
   179   90  211 1    
   180   91  212 1    
   181   91  213 1    
   182   91  214 1    
   183   92   93 2    
   184   92   94 am   BACKBONE|DICT|INTERRES
   185   94   95 1    
   186   94  215 1    
   187   95   96 1    
   188   95   97 1    
   189   95  216 1    
   190   96  217 1    
   191   96  218 1    
   192   96  219 1    
   193   97   98 2    
   194   97   99 am   BACKBONE|DICT|INTERRES
   195   99  100 1    
   196   99  220 1    
   197  100  101 1    
   198  100  102 1    
   199  100  221 1    
   200  101  222 1    
   201  101  223 1    
   202  101  224 1    
   203  102  103 2    
   204  102  104 am   BACKBONE|DICT|INTERRES
   205  104  105 1    
   206  104  225 1    
   207  105  106 1    
   208  105  107 1    
   209  105  226 1    
   210  106  227 1    
   211  106  228 1    
   212  106  229 1    
   213  107  108 2    
   214  107  109 am   BACKBONE|DICT|INTERRES
   215  109  110 1    
   216  109  230 1    
   217  110  111 1    
   218  110  112 1    
   219  110  231 1    
   220  111  232 1    
   221  111  233 1    
   222  111  234 1    
   223  112  113 2    
   224  112  114 am   BACKBONE|DICT|INTERRES
   225  114  115 1    
   226  114  235 1    
   227  115  116 1    
   228  115  117 1    
   229  115  236 1    
   230  116  237 1    
   231  116  238 1    
   232  116  239 1    
   233  117  118 2    
   234  117  119 am   BACKBONE|DICT|INTERRES
   235  119  120 1    
   236  119  240 1    
   237  120  121 1    
   238  120  124 1    
   239  120  241 1    
   240  121  122 am   BACKBONE|DICT|INTERRES
   241  121  123 2    
   242  122  242 1    
   243  122  243 1    
   244  124  125 1    
   245  124  244 1    
   246  124  245 1    
   247  125  126 1    
   248  126  246 1    
   249  126  247 1    
@<TRIPOS>SUBSTRUCTURE
     1 UNK         1 GROUP             0       ****    0 ROOT    
