@<TRIPOS>MOLECULE
3R540
247   249    1
SMALL
USER_CHARGES


@<TRIPOS>ATOM
      1 CA          0.2854  -13.7026  -49.3164 C.3       0 UNK        -0.1800 
      2 C           1.6701  -13.1231  -49.0765 C.2       0 UNK         0.5000 
      3 O           1.8206  -12.1714  -48.3095 O.2       0 UNK        -0.5000 
      4 N           2.6924  -13.7190  -49.7055 N.am      1 UNK        -0.5000 
      5 CA          4.1031  -13.3131  -49.6075 C.3       1 UNK         0.1400 
      6 C6          4.9705  -13.9566  -50.7178 C.3       23 UNK        -0.0398 
      7 S7          5.0600  -15.7819  -50.6461 S.3       23 UNK        -0.2404 
      8 C8          3.9114  -16.3038  -51.9614 C.3       23 UNK        -0.0205 
      9 C9          2.8049  -17.1868  -51.4052 C.ar      23 UNK        -0.0193 
     10 C10         1.4860  -16.7279  -51.3407 C.ar      23 UNK        -0.1150 
     11 C11         0.4682  -17.5458  -50.8378 C.ar      23 UNK        -0.0193 
     12 C12         0.7888  -18.8300  -50.3779 C.ar      23 UNK        -0.1150 
     13 C13         2.0999  -19.3093  -50.4639 C.ar      23 UNK        -0.0193 
     14 C14         3.1014  -18.4821  -50.9754 C.ar      23 UNK        -0.1150 
     15 C15         2.4359  -20.7363  -50.0592 C.3       23 UNK        -0.0205 
     16 S16         3.2261  -20.8393  -48.4199 S.3       23 UNK        -0.2404 
     17 C17         1.8335  -20.4993  -47.2923 C.3       23 UNK        -0.0398 
     18 CA          1.1377  -21.7850  -46.7791 C.3       11 UNK         0.1400 
     19 N           0.3902  -21.5464  -45.5425 N.am      11 UNK        -0.5000 
     20 C          -0.2156  -22.4931  -44.8111 C.2       10 UNK         0.5000 
     21 O          -0.1439  -23.6979  -45.0542 O.2       10 UNK        -0.5000 
     22 CA         -1.0966  -22.0070  -43.6454 C.3       10 UNK         0.1400 
     23 CB         -0.2470  -21.7081  -42.4017 C.3       10 UNK        -0.1800 
     24 N          -1.8953  -20.8313  -44.0007 N.am      10 UNK        -0.5000 
     25 C          -2.8539  -20.8294  -44.9388 C.2       9 UNK         0.5000 
     26 O          -3.2057  -21.8357  -45.5519 O.2       9 UNK        -0.5000 
     27 CA         -3.5003  -19.4780  -45.2892 C.3       9 UNK         0.1400 
     28 CB         -4.6157  -19.1290  -44.2937 C.3       9 UNK        -0.1800 
     29 N          -2.5321  -18.3841  -45.3586 N.am      9 UNK        -0.5000 
     30 C          -1.5415  -18.3068  -46.2592 C.2       8 UNK         0.5000 
     31 O          -1.3649  -19.1346  -47.1525 O.2       8 UNK        -0.5000 
     32 CA         -0.5444  -17.1448  -46.0966 C.3       8 UNK         0.1400 
     33 CB         -1.1314  -15.8313  -46.6321 C.3       8 UNK        -0.1800 
     34 N          -0.1313  -16.9561  -44.7066 N.am      8 UNK        -0.5000 
     35 C           0.5218  -17.8660  -43.9708 C.2       7 UNK         0.5000 
     36 O           0.9102  -18.9476  -44.4090 O.2       7 UNK        -0.5000 
     37 CA          0.7232  -17.5366  -42.4821 C.3       7 UNK         0.1400 
     38 CB          1.9337  -16.6179  -42.2723 C.3       7 UNK        -0.1800 
     39 N          -0.4661  -16.9218  -41.8955 N.am      7 UNK        -0.5000 
     40 C          -1.6117  -17.5757  -41.6593 C.2       6 UNK         0.5000 
     41 O          -1.7789  -18.7714  -41.8968 O.2       6 UNK        -0.5000 
     42 CA         -2.7763  -16.7412  -41.0984 C.3       6 UNK         0.1400 
     43 CB         -2.6500  -16.5866  -39.5755 C.3       6 UNK        -0.1800 
     44 N          -2.8631  -15.4177  -41.7169 N.am      6 UNK        -0.5000 
     45 C          -3.1800  -15.2078  -43.0019 C.2       5 UNK         0.5000 
     46 O          -3.4479  -16.1075  -43.7969 O.2       5 UNK        -0.5000 
     47 CA         -3.1476  -13.7497  -43.4901 C.3       5 UNK         0.1400 
     48 CB         -4.4665  -13.0372  -43.1555 C.3       5 UNK        -0.1800 
     49 N          -2.0243  -12.9787  -42.9494 N.am      5 UNK        -0.5000 
     50 C          -0.7349  -13.2537  -43.1818 C.2       4 UNK         0.5000 
     51 O          -0.3421  -14.2385  -43.8123 O.2       4 UNK        -0.5000 
     52 CA          0.2946  -12.2725  -42.6162 C.3       4 UNK         0.1400 
     53 CB          0.9146  -12.8005  -41.3118 C.3       4 UNK        -0.1800 
     54 N           1.3225  -12.0935  -43.6325 N.am      4 UNK        -0.5000 
     55 C           2.0758  -11.0024  -43.7988 C.2       3 UNK         0.5000 
     56 O           2.0468  -10.0376  -43.0323 O.2       3 UNK        -0.5000 
     57 CA          2.9761  -10.9607  -45.0525 C.3       3 UNK         0.1400 
     58 CB          4.2570  -10.1254  -44.8438 C.3       3 UNK        -0.1800 
     59 N           3.2919  -12.2775  -45.6202 N.am      3 UNK        -0.5000 
     60 C           4.0474  -13.2464  -45.0754 C.2       2 UNK         0.5000 
     61 O           4.5304  -13.1847  -43.9447 O.2       2 UNK        -0.5000 
     62 CA          4.3204  -14.5005  -45.9366 C.3       2 UNK         0.1400 
     63 CB          3.4958  -15.6935  -45.4315 C.3       2 UNK        -0.1800 
     64 N           4.0309  -14.3098  -47.3570 N.am      2 UNK        -0.5000 
     65 C           4.7099  -13.5161  -48.1981 C.2       1 UNK         0.5000 
     66 O           5.7472  -12.9270  -47.8915 O.2       1 UNK        -0.5000 
     67 C           0.2401  -22.4170  -47.8620 C.2       11 UNK         0.5000 
     68 O           0.6203  -23.4280  -48.4529 O.2       11 UNK        -0.5000 
     69 N          -0.9480  -21.8342  -48.0777 N.am      12 UNK        -0.5000 
     70 CA         -1.9535  -22.3355  -49.0127 C.3       12 UNK         0.1400 
     71 CB         -3.1277  -21.3554  -49.0925 C.3       12 UNK        -0.1800 
     72 C          -2.4454  -23.7458  -48.6504 C.2       12 UNK         0.5000 
     73 O          -2.5142  -24.5978  -49.5327 O.2       12 UNK        -0.5000 
     74 N          -2.7200  -23.9868  -47.3608 N.am      13 UNK        -0.5000 
     75 CA         -3.1162  -25.2898  -46.8261 C.3       13 UNK         0.1400 
     76 CB         -3.4856  -25.1530  -45.3418 C.3       13 UNK        -0.1800 
     77 C          -2.0397  -26.3720  -47.0278 C.2       13 UNK         0.5000 
     78 O          -2.3758  -27.4874  -47.4259 O.2       13 UNK        -0.5000 
     79 N          -0.7659  -26.0147  -46.8071 N.am      14 UNK        -0.5000 
     80 CA          0.3938  -26.8724  -47.0676 C.3       14 UNK         0.1400 
     81 CB          1.6549  -26.2247  -46.4763 C.3       14 UNK        -0.1800 
     82 C           0.5862  -27.1849  -48.5657 C.2       14 UNK         0.5000 
     83 O           0.9752  -28.3017  -48.9088 O.2       14 UNK        -0.5000 
     84 N           0.2745  -26.2093  -49.4291 N.am      15 UNK        -0.5000 
     85 CA          0.2656  -26.3392  -50.8884 C.3       15 UNK         0.1400 
     86 CB          0.3877  -24.9362  -51.5075 C.3       15 UNK        -0.1800 
     87 C          -0.9790  -27.0718  -51.4397 C.2       15 UNK         0.5000 
     88 O          -1.0191  -27.3564  -52.6375 O.2       15 UNK        -0.5000 
     89 N          -1.9651  -27.3524  -50.5735 N.am      16 UNK        -0.5000 
     90 CA         -3.2764  -27.9454  -50.8576 C.3       16 UNK         0.1400 
     91 CB         -3.1323  -29.3940  -51.3693 C.3       16 UNK        -0.1800 
     92 C          -4.1553  -27.0572  -51.7665 C.2       16 UNK         0.5000 
     93 O          -4.8776  -27.5684  -52.6250 O.2       16 UNK        -0.5000 
     94 N          -4.0786  -25.7401  -51.5522 N.am      17 UNK        -0.5000 
     95 CA         -4.8377  -24.7041  -52.2442 C.3       17 UNK         0.1400 
     96 CB         -3.8364  -23.7236  -52.8781 C.3       17 UNK        -0.1800 
     97 C          -5.7450  -23.9579  -51.2516 C.2       17 UNK         0.5000 
     98 O          -5.5662  -24.0640  -50.0358 O.2       17 UNK        -0.5000 
     99 N          -6.6898  -23.1792  -51.7914 N.am      18 UNK        -0.5000 
    100 CA        -7.4732  -22.2065  -51.0307 C.3       18 UNK         0.1400 
    101 CB        -8.7191  -21.8198  -51.8423 C.3       18 UNK        -0.1800 
    102 C         -6.6214  -20.9593  -50.7403 C.2       18 UNK         0.5000 
    103 O         -5.8275  -20.5596  -51.5955 O.2       18 UNK        -0.5000 
    104 N         -6.8306  -20.3353  -49.5740 N.am      19 UNK        -0.5000 
    105 CA        -6.0981  -19.1479  -49.1114 C.3       19 UNK         0.1400 
    106 CB        -6.4862  -18.8606  -47.6529 C.3       19 UNK        -0.1800 
    107 C         -6.2997  -17.8920  -49.9834 C.2       19 UNK         0.5000 
    108 O         -5.4533  -16.9991  -49.9680 O.2       19 UNK        -0.5000 
    109 N         -7.4088  -17.8492  -50.7319 N.am      20 UNK        -0.5000 
    110 CA        -7.7133  -16.8032  -51.7068 C.3       20 UNK         0.1400 
    111 CB        -9.2391  -16.7281  -51.8774 C.3       20 UNK        -0.1800 
    112 C         -7.0334  -17.0330  -53.0728 C.2       20 UNK         0.5000 
    113 O         -6.9964  -16.1024  -53.8791 O.2       20 UNK        -0.5000 
    114 N         -6.5432  -18.2545  -53.3276 N.am      21 UNK        -0.5000 
    115 CA        -5.9755  -18.6734  -54.6077 C.3       21 UNK         0.1400 
    116 CB        -6.6548  -19.9790  -55.0563 C.3       21 UNK        -0.1800 
    117 C         -4.4543  -18.8583  -54.5146 C.2       21 UNK         0.5000 
    118 O         -3.7280  -18.2892  -55.3300 O.2       21 UNK        -0.5000 
    119 N         -4.0058  -19.6620  -53.5400 N.am      22 UNK        -0.5000 
    120 CA        -2.6017  -20.0494  -53.3017 C.3       22 UNK         0.1400 
    121 C         -1.9355  -20.8792  -54.4456 C.2       22 UNK         0.5000 
    122 N         -2.6863  -21.4373  -55.3877 N.am      22 UNK        -0.7600 
    123 O         -0.7210  -21.0575  -54.4641 O.2       22 UNK        -0.5000 
    124 C124       -1.7214  -18.8582  -52.8315 C.3       23 UNK        -0.0398 
    125 S125       -2.2551  -18.2432  -51.1999 S.3       23 UNK        -0.2404 
    126 C126       -0.9648  -17.0150  -50.8070 C.3       23 UNK        -0.0205 
    127 H127       -0.4200  -13.3383  -48.5693 H         1 UNK         0.0600 
    128 H128        0.3111  -14.7896  -49.2544 H         1 UNK         0.0600 
    129 H129       -0.0814  -13.4165  -50.3020 H         1 UNK         0.0600 
    130 H130        2.5164  -14.5220  -50.2913 H         1 UNK         0.3000 
    131 H131        4.1256  -12.2349  -49.7804 H         1 UNK         0.0600 
    132 H132        4.6084  -13.6408  -51.6965 H         1 UNK         0.0800 
    133 H133        5.9904  -13.5723  -50.6600 H         1 UNK         0.0800 
    134 H134        4.4705  -16.8620  -52.7137 H         1 UNK         0.0800 
    135 H135        3.4887  -15.4426  -52.4799 H         1 UNK         0.0800 
    136 H136        1.2465  -15.7360  -51.6971 H         1 UNK         0.1150 
    137 H137        0.0115  -19.4686  -49.9816 H         1 UNK         0.1150 
    138 H138        4.1167  -18.8479  -51.0407 H         1 UNK         0.1150 
    139 H139        1.5454  -21.3630  -50.0969 H         1 UNK         0.0800 
    140 H140        3.1206  -21.1605  -50.7951 H         1 UNK         0.0800 
    141 H141        1.1267  -19.8093  -47.7526 H         1 UNK         0.0800 
    142 H142        2.2604  -19.9562  -46.4487 H         1 UNK         0.0800 
    143 H143        1.9119  -22.5143  -46.5308 H         1 UNK         0.0600 
    144 H144        0.3267  -20.5806  -45.2323 H         1 UNK         0.3000 
    145 H145       -1.7876  -22.8141  -43.3941 H         1 UNK         0.0600 
    146 H146       -0.8740  -21.4341  -41.5531 H         1 UNK         0.0600 
    147 H147        0.3343  -22.5827  -42.1075 H         1 UNK         0.0600 
    148 H148        0.4539  -20.8922  -42.5766 H         1 UNK         0.0600 
    149 H149       -1.7025  -19.9758  -43.4896 H         1 UNK         0.3000 
    150 H150       -3.9489  -19.5798  -46.2787 H         1 UNK         0.0600 
    151 H151       -5.3549  -19.9291  -44.2384 H         1 UNK         0.0600 
    152 H152       -5.1408  -18.2221  -44.5940 H         1 UNK         0.0600 
    153 H153       -4.2237  -18.9715  -43.2886 H         1 UNK         0.0600 
    154 H154       -2.6455  -17.6337  -44.6831 H         1 UNK         0.3000 
    155 H155        0.3455  -17.3855  -46.6823 H         1 UNK         0.0600 
    156 H156       -1.9910  -15.5065  -46.0465 H         1 UNK         0.0600 
    157 H157       -0.3907  -15.0319  -46.6063 H         1 UNK         0.0600 
    158 H158       -1.4650  -15.9387  -47.6629 H         1 UNK         0.0600 
    159 H159       -0.3710  -16.0643  -44.2811 H         1 UNK         0.3000 
    160 H160        0.9165  -18.4728  -41.9541 H         1 UNK         0.0600 
    161 H161        1.8374  -15.6865  -42.8309 H         1 UNK         0.0600 
    162 H162        2.8493  -17.1104  -42.6003 H         1 UNK         0.0600 
    163 H163        2.0631  -16.3672  -41.2193 H         1 UNK         0.0600 
    164 H164       -0.4280  -15.9295  -41.7190 H         1 UNK         0.3000 
    165 H165       -3.7032  -17.2781  -41.3114 H         1 UNK         0.0600 
    166 H166       -3.5109  -16.0624  -39.1601 H         1 UNK         0.0600 
    167 H167       -2.5980  -17.5610  -39.0880 H         1 UNK         0.0600 
    168 H168       -1.7527  -16.0321  -39.2979 H         1 UNK         0.0600 
    169 H169       -2.6529  -14.6212  -41.1338 H         1 UNK         0.3000 
    170 H170       -3.0416  -13.7709  -44.5767 H         1 UNK         0.0600 
    171 H171       -5.3190  -13.5833  -43.5618 H         1 UNK         0.0600 
    172 H172       -4.6163  -12.9485  -42.0788 H         1 UNK         0.0600 
    173 H173       -4.4923  -12.0344  -43.5822 H         1 UNK         0.0600 
    174 H174       -2.2620  -12.1551  -42.4155 H         1 UNK         0.3000 
    175 H175       -0.1983  -11.3171  -42.4237 H         1 UNK         0.0600 
    176 H176        1.4494  -13.7368  -41.4693 H         1 UNK         0.0600 
    177 H177        1.6203  -12.0825  -40.8938 H         1 UNK         0.0600 
    178 H178        0.1479  -12.9796  -40.5572 H         1 UNK         0.0600 
    179 H179        1.3746  -12.8407  -44.3127 H         1 UNK         0.3000 
    180 H180        2.3847  -10.4532  -45.8158 H         1 UNK         0.0600 
    181 H181        4.8710  -10.5191  -44.0336 H         1 UNK         0.0600 
    182 H182        4.0148   -9.0916  -44.5954 H         1 UNK         0.0600 
    183 H183        4.8659  -10.1054  -45.7479 H         1 UNK         0.0600 
    184 H184        2.9198  -12.4330  -46.5513 H         1 UNK         0.3000 
    185 H185        5.3798  -14.7454  -45.8372 H         1 UNK         0.0600 
    186 H186        3.7720  -15.9364  -44.4063 H         1 UNK         0.0600 
    187 H187        2.4253  -15.4835  -45.4484 H         1 UNK         0.0600 
    188 H188        3.6740  -16.5860  -46.0319 H         1 UNK         0.0600 
    189 H189        3.2009  -14.7610  -47.7112 H         1 UNK         0.3000 
    190 H190       -1.1756  -20.9767  -47.5801 H         1 UNK         0.3000 
    191 H191       -1.4869  -22.3829  -49.9986 H         1 UNK         0.0600 
    192 H192       -3.6957  -21.3232  -48.1629 H         1 UNK         0.0600 
    193 H193       -3.8143  -21.6436  -49.8884 H         1 UNK         0.0600 
    194 H194       -2.7823  -20.3457  -49.3059 H         1 UNK         0.0600 
    195 H195       -2.6877  -23.2137  -46.7003 H         1 UNK         0.3000 
    196 H196       -4.0089  -25.6066  -47.3696 H         1 UNK         0.0600 
    197 H197       -3.8093  -26.1096  -44.9300 H         1 UNK         0.0600 
    198 H198       -4.3033  -24.4455  -45.2034 H         1 UNK         0.0600 
    199 H199       -2.6406  -24.8076  -44.7462 H         1 UNK         0.0600 
    200 H200       -0.5735  -25.0868  -46.4412 H         1 UNK         0.3000 
    201 H201        0.2283  -27.8207  -46.5523 H         1 UNK         0.0600 
    202 H202        1.5500  -26.0672  -45.4027 H         1 UNK         0.0600 
    203 H203        1.8668  -25.2589  -46.9353 H         1 UNK         0.0600 
    204 H204        2.5284  -26.8596  -46.6289 H         1 UNK         0.0600 
    205 H205        0.0220  -25.2990  -49.0575 H         1 UNK         0.3000 
    206 H206        1.1413  -26.9178  -51.1890 H         1 UNK         0.0600 
    207 H207        1.2788  -24.4212  -51.1478 H         1 UNK         0.0600 
    208 H208        0.4608  -24.9915  -52.5942 H         1 UNK         0.0600 
    209 H209       -0.4756  -24.3147  -51.2704 H         1 UNK         0.0600 
    210 H210       -1.8362  -27.0438  -49.6185 H         1 UNK         0.3000 
    211 H211       -3.7942  -27.9910  -49.8985 H         1 UNK         0.0600 
    212 H212       -2.6825  -29.4327  -52.3616 H         1 UNK         0.0600 
    213 H213       -4.1048  -29.8833  -51.4334 H         1 UNK         0.0600 
    214 H214       -2.5146  -29.9892  -50.6967 H         1 UNK         0.0600 
    215 H215       -3.5004  -25.4016  -50.7827 H         1 UNK         0.3000 
    216 H216       -5.4635  -25.1364  -53.0274 H         1 UNK         0.0600 
    217 H217       -4.3498  -22.9252  -53.4148 H         1 UNK         0.0600 
    218 H218       -3.1874  -24.2300  -53.5928 H         1 UNK         0.0600 
    219 H219       -3.2005  -23.2570  -52.1244 H         1 UNK         0.0600 
    220 H220       -6.7597  -23.1190  -52.7962 H         1 UNK         0.3000 
    221 H221       -7.7918  -22.6559  -50.0876 H         1 UNK         0.0600 
    222 H222       -8.4563  -21.3502  -52.7911 H         1 UNK         0.0600 
    223 H223       -9.3332  -22.6937  -52.0605 H         1 UNK         0.0600 
    224 H224       -9.3431  -21.1159  -51.2903 H         1 UNK         0.0600 
    225 H225       -7.5132  -20.7142  -48.9332 H         1 UNK         0.3000 
    226 H226       -5.0330  -19.3785  -49.1399 H         1 UNK         0.0600 
    227 H227       -6.2922  -19.7226  -47.0146 H         1 UNK         0.0600 
    228 H228       -5.9112  -18.0242  -47.2529 H         1 UNK         0.0600 
    229 H229       -7.5429  -18.6067  -47.5611 H         1 UNK         0.0600 
    230 H230       -8.0625  -18.6149  -50.6660 H         1 UNK         0.3000 
    231 H231       -7.3666  -15.8412  -51.3233 H         1 UNK         0.0600 
    232 H232       -9.5171  -15.9347  -52.5725 H         1 UNK         0.0600 
    233 H233       -9.7320  -16.5135  -50.9290 H         1 UNK         0.0600 
    234 H234       -9.6475  -17.6622  -52.2654 H         1 UNK         0.0600 
    235 H235       -6.5305  -18.9439  -52.5854 H         1 UNK         0.3000 
    236 H236       -6.1693  -17.9229  -55.3769 H         1 UNK         0.0600 
    237 H237       -7.7288  -19.8387  -55.1793 H         1 UNK         0.0600 
    238 H238       -6.2600  -20.3148  -56.0159 H         1 UNK         0.0600 
    239 H239       -6.5054  -20.7860  -54.3383 H         1 UNK         0.0600 
    240 H240       -4.6777  -20.0565  -52.8849 H         1 UNK         0.3000 
    241 H241       -2.6458  -20.7559  -52.4720 H         1 UNK         0.0600 
    242 H242       -3.6837  -21.3062  -55.3953 H         1 UNK         0.3800 
    243 H243       -2.2447  -21.9795  -56.1132 H         1 UNK         0.3800 
    244 H244       -0.6785  -19.1638  -52.7466 H         1 UNK         0.0800 
    245 H245       -1.7408  -18.0409  -53.5528 H         1 UNK         0.0800 
    246 H246       -1.0752  -16.1778  -51.4979 H         1 UNK         0.0800 
    247 H247       -1.1666  -16.6231  -49.8123 H         1 UNK         0.0800 
@<TRIPOS>BOND
     1    1    2 1    
     2    1  127 1    
     3    1  128 1    
     4    1  129 1    
     5    2    3 2    
     6    2    4 am   BACKBONE|DICT|INTERRES
     7    4    5 1    
     8    4  130 1    
     9    5    6 1    
    10    5   65 1    
    11    5  131 1    
    12    6    7 1    
    13    6  132 1    
    14    6  133 1    
    15    7    8 1    
    16    8    9 1    
    17    8  134 1    
    18    8  135 1    
    19    9   10 ar   
    20    9   14 ar   
    21   10   11 ar   
    22   10  136 1    
    23   11   12 ar   
    24   11  126 1    
    25   12   13 ar   
    26   12  137 1    
    27   13   14 ar   
    28   13   15 1    
    29   14  138 1    
    30   15   16 1    
    31   15  139 1    
    32   15  140 1    
    33   16   17 1    
    34   17   18 1    
    35   17  141 1    
    36   17  142 1    
    37   18   19 1    
    38   18   67 1    
    39   18  143 1    
    40   19   20 am   BACKBONE|DICT|INTERRES
    41   19  144 1    
    42   20   21 2    
    43   20   22 1    
    44   22   23 1    
    45   22   24 1    
    46   22  145 1    
    47   23  146 1    
    48   23  147 1    
    49   23  148 1    
    50   24   25 am   BACKBONE|DICT|INTERRES
    51   24  149 1    
    52   25   26 2    
    53   25   27 1    
    54   27   28 1    
    55   27   29 1    
    56   27  150 1    
    57   28  151 1    
    58   28  152 1    
    59   28  153 1    
    60   29   30 am   BACKBONE|DICT|INTERRES
    61   29  154 1    
    62   30   31 2    
    63   30   32 1    
    64   32   33 1    
    65   32   34 1    
    66   32  155 1    
    67   33  156 1    
    68   33  157 1    
    69   33  158 1    
    70   34   35 am   BACKBONE|DICT|INTERRES
    71   34  159 1    
    72   35   36 2    
    73   35   37 1    
    74   37   38 1    
    75   37   39 1    
    76   37  160 1    
    77   38  161 1    
    78   38  162 1    
    79   38  163 1    
    80   39   40 am   BACKBONE|DICT|INTERRES
    81   39  164 1    
    82   40   41 2    
    83   40   42 1    
    84   42   43 1    
    85   42   44 1    
    86   42  165 1    
    87   43  166 1    
    88   43  167 1    
    89   43  168 1    
    90   44   45 am   BACKBONE|DICT|INTERRES
    91   44  169 1    
    92   45   46 2    
    93   45   47 1    
    94   47   48 1    
    95   47   49 1    
    96   47  170 1    
    97   48  171 1    
    98   48  172 1    
    99   48  173 1    
   100   49   50 am   BACKBONE|DICT|INTERRES
   101   49  174 1    
   102   50   51 2    
   103   50   52 1    
   104   52   53 1    
   105   52   54 1    
   106   52  175 1    
   107   53  176 1    
   108   53  177 1    
   109   53  178 1    
   110   54   55 am   BACKBONE|DICT|INTERRES
   111   54  179 1    
   112   55   56 2    
   113   55   57 1    
   114   57   58 1    
   115   57   59 1    
   116   57  180 1    
   117   58  181 1    
   118   58  182 1    
   119   58  183 1    
   120   59   60 am   BACKBONE|DICT|INTERRES
   121   59  184 1    
   122   60   61 2    
   123   60   62 1    
   124   62   63 1    
   125   62   64 1    
   126   62  185 1    
   127   63  186 1    
   128   63  187 1    
   129   63  188 1    
   130   64   65 am   BACKBONE|DICT|INTERRES
   131   64  189 1    
   132   65   66 2    
   133   67   68 2    
   134   67   69 am   BACKBONE|DICT|INTERRES
   135   69   70 1    
   136   69  190 1    
   137   70   71 1    
   138   70   72 1    
   139   70  191 1    
   140   71  192 1    
   141   71  193 1    
   142   71  194 1    
   143   72   73 2    
   144   72   74 am   BACKBONE|DICT|INTERRES
   145   74   75 1    
   146   74  195 1    
   147   75   76 1    
   148   75   77 1    
   149   75  196 1    
   150   76  197 1    
   151   76  198 1    
   152   76  199 1    
   153   77   78 2    
   154   77   79 am   BACKBONE|DICT|INTERRES
   155   79   80 1    
   156   79  200 1    
   157   80   81 1    
   158   80   82 1    
   159   80  201 1    
   160   81  202 1    
   161   81  203 1    
   162   81  204 1    
   163   82   83 2    
   164   82   84 am   BACKBONE|DICT|INTERRES
   165   84   85 1    
   166   84  205 1    
   167   85   86 1    
   168   85   87 1    
   169   85  206 1    
   170   86  207 1    
   171   86  208 1    
   172   86  209 1    
   173   87   88 2    
   174   87   89 am   BACKBONE|DICT|INTERRES
   175   89   90 1    
   176   89  210 1    
   177   90   91 1    
   178   90   92 1    
   179   90  211 1    
   180   91  212 1    
   181   91  213 1    
   182   91  214 1    
   183   92   93 2    
   184   92   94 am   BACKBONE|DICT|INTERRES
   185   94   95 1    
   186   94  215 1    
   187   95   96 1    
   188   95   97 1    
   189   95  216 1    
   190   96  217 1    
   191   96  218 1    
   192   96  219 1    
   193   97   98 2    
   194   97   99 am   BACKBONE|DICT|INTERRES
   195   99  100 1    
   196   99  220 1    
   197  100  101 1    
   198  100  102 1    
   199  100  221 1    
   200  101  222 1    
   201  101  223 1    
   202  101  224 1    
   203  102  103 2    
   204  102  104 am   BACKBONE|DICT|INTERRES
   205  104  105 1    
   206  104  225 1    
   207  105  106 1    
   208  105  107 1    
   209  105  226 1    
   210  106  227 1    
   211  106  228 1    
   212  106  229 1    
   213  107  108 2    
   214  107  109 am   BACKBONE|DICT|INTERRES
   215  109  110 1    
   216  109  230 1    
   217  110  111 1    
   218  110  112 1    
   219  110  231 1    
   220  111  232 1    
   221  111  233 1    
   222  111  234 1    
   223  112  113 2    
   224  112  114 am   BACKBONE|DICT|INTERRES
   225  114  115 1    
   226  114  235 1    
   227  115  116 1    
   228  115  117 1    
   229  115  236 1    
   230  116  237 1    
   231  116  238 1    
   232  116  239 1    
   233  117  118 2    
   234  117  119 am   BACKBONE|DICT|INTERRES
   235  119  120 1    
   236  119  240 1    
   237  120  121 1    
   238  120  124 1    
   239  120  241 1    
   240  121  122 am   BACKBONE|DICT|INTERRES
   241  121  123 2    
   242  122  242 1    
   243  122  243 1    
   244  124  125 1    
   245  124  244 1    
   246  124  245 1    
   247  125  126 1    
   248  126  246 1    
   249  126  247 1    
@<TRIPOS>SUBSTRUCTURE
     1 UNK         1 GROUP             0       ****    0 ROOT    
