@<TRIPOS>MOLECULE
3R540
247   249    1
SMALL
USER_CHARGES


@<TRIPOS>ATOM
      1 CA          0.7789  -12.7546  -54.4486 C.3       0 UNK        -0.1800 
      2 C           1.0095  -12.9801  -52.9607 C.2       0 UNK         0.5000 
      3 O           1.4298  -12.0557  -52.2638 O.2       0 UNK        -0.5000 
      4 N           0.7480  -14.1989  -52.4722 N.am      1 UNK        -0.5000 
      5 CA          0.8463  -14.5653  -51.0558 C.3       1 UNK         0.1400 
      6 C6          0.8768  -16.1021  -50.8617 C.3       23 UNK        -0.0398 
      7 S7          1.7334  -16.6014  -49.3241 S.3       23 UNK        -0.2404 
      8 C8          3.3066  -17.2836  -49.9499 C.3       23 UNK        -0.0205 
      9 C9          3.1590  -18.7289  -50.4078 C.ar      23 UNK        -0.0193 
     10 C10         2.7721  -19.0167  -51.7181 C.ar      23 UNK        -0.1150 
     11 C11         2.5636  -20.3352  -52.1287 C.ar      23 UNK        -0.0193 
     12 C12         2.8088  -21.3780  -51.2309 C.ar      23 UNK        -0.1150 
     13 C13         3.2514  -21.1129  -49.9307 C.ar      23 UNK        -0.0193 
     14 C14         3.4153  -19.7819  -49.5244 C.ar      23 UNK        -0.1150 
     15 C15         3.5632  -22.2801  -48.9937 C.3       23 UNK        -0.0205 
     16 S16         3.0331  -22.0212  -47.2670 S.3       23 UNK        -0.2404 
     17 C17         1.2481  -21.7372  -47.4828 C.3       23 UNK        -0.0398 
     18 CA          0.3742  -22.7440  -46.7092 C.3       11 UNK         0.1400 
     19 N           0.6275  -22.7049  -45.2684 N.am      11 UNK        -0.5000 
     20 C           0.1227  -23.5298  -44.3430 C.2       10 UNK         0.5000 
     21 O          -0.6175  -24.4765  -44.6202 O.2       10 UNK        -0.5000 
     22 CA          0.4222  -23.1920  -42.8659 C.3       10 UNK         0.1400 
     23 CB          0.8573  -24.4323  -42.0609 C.3       10 UNK        -0.1800 
     24 N           1.3474  -22.0614  -42.6885 N.am      10 UNK        -0.5000 
     25 C           2.6659  -22.0118  -42.9355 C.2       9 UNK         0.5000 
     26 O           3.3369  -22.9851  -43.2775 O.2       9 UNK        -0.5000 
     27 CA          3.3519  -20.6332  -42.8288 C.3       9 UNK         0.1400 
     28 CB          3.7430  -20.1224  -44.2242 C.3       9 UNK        -0.1800 
     29 N           2.5280  -19.6115  -42.1796 N.am      9 UNK        -0.5000 
     30 C           2.3529  -19.4992  -40.8567 C.2       8 UNK         0.5000 
     31 O           2.8796  -20.2457  -40.0310 O.2       8 UNK        -0.5000 
     32 CA          1.4125  -18.3767  -40.3780 C.3       8 UNK         0.1400 
     33 CB          2.1577  -17.0351  -40.3092 C.3       8 UNK        -0.1800 
     34 N           0.2200  -18.2299  -41.2157 N.am      8 UNK        -0.5000 
     35 C          -0.7384  -19.1591  -41.3425 C.2       7 UNK         0.5000 
     36 O          -0.7245  -20.2430  -40.7588 O.2       7 UNK        -0.5000 
     37 CA         -1.8868  -18.8443  -42.3159 C.3       7 UNK         0.1400 
     38 CB         -2.9126  -17.9012  -41.6708 C.3       7 UNK        -0.1800 
     39 N          -1.4107  -18.2762  -43.5769 N.am      7 UNK        -0.5000 
     40 C          -0.6619  -18.9420  -44.4661 C.2       6 UNK         0.5000 
     41 O          -0.3513  -20.1252  -44.3407 O.2       6 UNK        -0.5000 
     42 CA         -0.1613  -18.1643  -45.6939 C.3       6 UNK         0.1400 
     43 CB         -1.2467  -18.1032  -46.7776 C.3       6 UNK        -0.1800 
     44 N           0.2843  -16.8148  -45.3634 N.am      6 UNK        -0.5000 
     45 C           1.2918  -16.5263  -44.5282 C.2       5 UNK         0.5000 
     46 O           1.9844  -17.3738  -43.9653 O.2       5 UNK        -0.5000 
     47 CA          1.5186  -15.0378  -44.2240 C.3       5 UNK         0.1400 
     48 CB          2.2705  -14.3496  -45.3739 C.3       5 UNK        -0.1800 
     49 N           0.2561  -14.3440  -43.9661 N.am      5 UNK        -0.5000 
     50 C          -0.5210  -14.5621  -42.8949 C.2       4 UNK         0.5000 
     51 O          -0.2364  -15.3470  -41.9899 O.2       4 UNK        -0.5000 
     52 CA         -1.8602  -13.8036  -42.8511 C.3       4 UNK         0.1400 
     53 CB         -1.6565  -12.3699  -42.3391 C.3       4 UNK        -0.1800 
     54 N          -2.5251  -13.7653  -44.1550 N.am      4 UNK        -0.5000 
     55 C          -3.0327  -14.8412  -44.7727 C.2       3 UNK         0.5000 
     56 O          -3.0236  -15.9728  -44.2920 O.2       3 UNK        -0.5000 
     57 CA         -3.5972  -14.6300  -46.1891 C.3       3 UNK         0.1400 
     58 CB         -5.0745  -14.2156  -46.1384 C.3       3 UNK        -0.1800 
     59 N          -2.8380  -13.6611  -46.9850 N.am      3 UNK        -0.5000 
     60 C          -1.5545  -13.8203  -47.3323 C.2       2 UNK         0.5000 
     61 O          -0.8628  -14.7720  -46.9661 O.2       2 UNK        -0.5000 
     62 CA         -0.9194  -12.7101  -48.1832 C.3       2 UNK         0.1400 
     63 CB         -0.2014  -11.6922  -47.2837 C.3       2 UNK        -0.1800 
     64 N           0.0432  -13.2806  -49.1232 N.am      2 UNK        -0.5000 
     65 C          -0.2983  -13.9098  -50.2541 C.2       1 UNK         0.5000 
     66 O          -1.4567  -13.9806  -50.6730 O.2       1 UNK        -0.5000 
     67 C          -1.1096  -22.5134  -47.0531 C.2       11 UNK         0.5000 
     68 O          -1.5570  -22.9804  -48.0988 O.2       11 UNK        -0.5000 
     69 N          -1.8591  -21.8401  -46.1684 N.am      12 UNK        -0.5000 
     70 CA         -3.3128  -21.6782  -46.2507 C.3       12 UNK         0.1400 
     71 CB         -3.7939  -20.7946  -45.0914 C.3       12 UNK        -0.1800 
     72 C          -4.0781  -23.0161  -46.2446 C.2       12 UNK         0.5000 
     73 O          -5.1440  -23.0986  -46.8532 O.2       12 UNK        -0.5000 
     74 N          -3.5116  -24.0333  -45.5823 N.am      13 UNK        -0.5000 
     75 CA         -4.0226  -25.4000  -45.5712 C.3       13 UNK         0.1400 
     76 CB         -3.8936  -25.9763  -44.1519 C.3       13 UNK        -0.1800 
     77 C          -3.2657  -26.2756  -46.5826 C.2       13 UNK         0.5000 
     78 O          -3.9000  -27.0153  -47.3348 O.2       13 UNK        -0.5000 
     79 N          -1.9271  -26.1903  -46.5759 N.am      14 UNK        -0.5000 
     80 CA         -1.0477  -27.0865  -47.3297 C.3       14 UNK         0.1400 
     81 CB          0.3725  -27.0058  -46.7486 C.3       14 UNK        -0.1800 
     82 C          -1.0254  -26.8387  -48.8502 C.2       14 UNK         0.5000 
     83 O          -0.8515  -27.7968  -49.6047 O.2       14 UNK        -0.5000 
     84 N          -1.1799  -25.5778  -49.2738 N.am      15 UNK        -0.5000 
     85 CA         -1.0840  -25.1507  -50.6742 C.3       15 UNK         0.1400 
     86 CB          0.1893  -24.2994  -50.8360 C.3       15 UNK        -0.1800 
     87 C          -2.3224  -24.3663  -51.1478 C.2       15 UNK         0.5000 
     88 O          -2.3904  -24.0239  -52.3278 O.2       15 UNK        -0.5000 
     89 N          -3.2582  -24.0743  -50.2299 N.am      16 UNK        -0.5000 
     90 CA         -4.4156  -23.1835  -50.3903 C.3       16 UNK         0.1400 
     91 CB         -5.4096  -23.7372  -51.4329 C.3       16 UNK        -0.1800 
     92 C          -4.0088  -21.7187  -50.6690 C.2       16 UNK         0.5000 
     93 O          -4.7527  -20.9856  -51.3193 O.2       16 UNK        -0.5000 
     94 N          -2.8335  -21.3098  -50.1680 N.am      17 UNK        -0.5000 
     95 CA         -2.1642  -20.0516  -50.5145 C.3       17 UNK         0.1400 
     96 CB         -0.7086  -20.1058  -50.0320 C.3       17 UNK        -0.1800 
     97 C          -2.8534  -18.7693  -50.0076 C.2       17 UNK         0.5000 
     98 O          -2.4414  -17.6729  -50.3858 O.2       17 UNK        -0.5000 
     99 N          -3.8849  -18.9055  -49.1650 N.am      18 UNK        -0.5000 
    100 CA        -4.7103  -17.8064  -48.6707 C.3       18 UNK         0.1400 
    101 CB        -5.3638  -18.2220  -47.3419 C.3       18 UNK        -0.1800 
    102 C         -5.7325  -17.3570  -49.7341 C.2       18 UNK         0.5000 
    103 O         -6.9361  -17.5521  -49.5634 O.2       18 UNK        -0.5000 
    104 N         -5.2153  -16.7888  -50.8302 N.am      19 UNK        -0.5000 
    105 CA        -5.8990  -16.1631  -51.9692 C.3       19 UNK         0.1400 
    106 CB        -6.7809  -14.9879  -51.5029 C.3       19 UNK        -0.1800 
    107 C         -6.6823  -17.1107  -52.9027 C.2       19 UNK         0.5000 
    108 O         -6.9387  -16.7258  -54.0448 O.2       19 UNK        -0.5000 
    109 N         -7.0395  -18.3190  -52.4448 N.am      20 UNK        -0.5000 
    110 CA        -7.6767  -19.3612  -53.2585 C.3       20 UNK         0.1400 
    111 CB        -8.1841  -20.4870  -52.3450 C.3       20 UNK        -0.1800 
    112 C         -6.7298  -19.9072  -54.3461 C.2       20 UNK         0.5000 
    113 O         -7.1605  -20.1594  -55.4722 O.2       20 UNK        -0.5000 
    114 N         -5.4496  -20.0208  -53.9895 N.am      21 UNK        -0.5000 
    115 CA        -4.3057  -20.2287  -54.8637 C.3       21 UNK         0.1400 
    116 CB        -3.8340  -21.6865  -54.7323 C.3       21 UNK        -0.1800 
    117 C         -3.2045  -19.2428  -54.4350 C.2       21 UNK         0.5000 
    118 O         -3.3542  -18.5561  -53.4208 O.2       21 UNK        -0.5000 
    119 N         -2.1136  -19.1951  -55.2092 N.am      22 UNK        -0.5000 
    120 CA        -0.8983  -18.4041  -54.9284 C.3       22 UNK         0.1400 
    121 C         -1.1002  -16.8559  -54.9503 C.2       22 UNK         0.5000 
    122 N         -2.1151  -16.3356  -55.6288 N.am      22 UNK        -0.7600 
    123 O         -0.3178  -16.1119  -54.3638 O.2       22 UNK        -0.5000 
    124 C124       -0.1483  -18.8721  -53.6492 C.3       23 UNK        -0.0398 
    125 S125        0.2605  -20.6553  -53.6456 S.3       23 UNK        -0.2404 
    126 C126        2.0808  -20.6342  -53.5415 C.3       23 UNK        -0.0205 
    127 H127       -0.0224  -12.0310  -54.5979 H         1 UNK         0.0600 
    128 H128        1.6838  -12.3638  -54.9138 H         1 UNK         0.0600 
    129 H129        0.5063  -13.6750  -54.9638 H         1 UNK         0.0600 
    130 H130        0.3612  -14.9066  -53.0941 H         1 UNK         0.3000 
    131 H131        1.7965  -14.1627  -50.6971 H         1 UNK         0.0600 
    132 H132       -0.1283  -16.5262  -50.8664 H         1 UNK         0.0800 
    133 H133        1.3834  -16.5610  -51.7071 H         1 UNK         0.0800 
    134 H134        3.6870  -16.6611  -50.7612 H         1 UNK         0.0800 
    135 H135        4.0497  -17.2265  -49.1531 H         1 UNK         0.0800 
    136 H136        2.6260  -18.2103  -52.4184 H         1 UNK         0.1150 
    137 H137        2.6627  -22.4000  -51.5516 H         1 UNK         0.1150 
    138 H138        3.7421  -19.5621  -48.5180 H         1 UNK         0.1150 
    139 H139        3.0987  -23.1974  -49.3591 H         1 UNK         0.0800 
    140 H140        4.6397  -22.4540  -49.0051 H         1 UNK         0.0800 
    141 H141        1.0180  -21.7956  -48.5460 H         1 UNK         0.0800 
    142 H142        1.0298  -20.7141  -47.1774 H         1 UNK         0.0800 
    143 H143        0.6269  -23.7451  -47.0590 H         1 UNK         0.0600 
    144 H144        1.1703  -21.9210  -44.9368 H         1 UNK         0.3000 
    145 H145       -0.5262  -22.8521  -42.4474 H         1 UNK         0.0600 
    146 H146        1.0660  -24.1757  -41.0223 H         1 UNK         0.0600 
    147 H147        0.0702  -25.1872  -42.0567 H         1 UNK         0.0600 
    148 H148        1.7484  -24.9000  -42.4796 H         1 UNK         0.0600 
    149 H149        0.8995  -21.1888  -42.4395 H         1 UNK         0.3000 
    150 H150        4.2667  -20.7677  -42.2480 H         1 UNK         0.0600 
    151 H151        4.3968  -20.8311  -44.7339 H         1 UNK         0.0600 
    152 H152        4.2795  -19.1755  -44.1617 H         1 UNK         0.0600 
    153 H153        2.8667  -19.9675  -44.8551 H         1 UNK         0.0600 
    154 H154        2.1121  -18.9111  -42.7885 H         1 UNK         0.3000 
    155 H155        1.0812  -18.6313  -39.3692 H         1 UNK         0.0600 
    156 H156        2.4837  -16.7042  -41.2958 H         1 UNK         0.0600 
    157 H157        3.0437  -17.1111  -39.6777 H         1 UNK         0.0600 
    158 H158        1.5241  -16.2541  -39.8884 H         1 UNK         0.0600 
    159 H159        0.1177  -17.3490  -41.7095 H         1 UNK         0.3000 
    160 H160       -2.3925  -19.7849  -42.5405 H         1 UNK         0.0600 
    161 H161       -3.7797  -17.7644  -42.3172 H         1 UNK         0.0600 
    162 H162       -2.4869  -16.9179  -41.4698 H         1 UNK         0.0600 
    163 H163       -3.2741  -18.3041  -40.7240 H         1 UNK         0.0600 
    164 H164       -1.6992  -17.3251  -43.7852 H         1 UNK         0.3000 
    165 H165        0.6994  -18.6987  -46.0982 H         1 UNK         0.0600 
    166 H166       -0.8694  -17.6383  -47.6890 H         1 UNK         0.0600 
    167 H167       -1.5977  -19.1007  -47.0400 H         1 UNK         0.0600 
    168 H168       -2.1130  -17.5316  -46.4467 H         1 UNK         0.0600 
    169 H169       -0.2021  -16.0496  -45.8264 H         1 UNK         0.3000 
    170 H170        2.1345  -14.9682  -43.3249 H         1 UNK         0.0600 
    171 H171        3.2380  -14.8244  -45.5418 H         1 UNK         0.0600 
    172 H172        1.7172  -14.4019  -46.3119 H         1 UNK         0.0600 
    173 H173        2.4584  -13.2993  -45.1510 H         1 UNK         0.0600 
    174 H174       -0.0796  -13.7279  -44.6904 H         1 UNK         0.3000 
    175 H175       -2.5152  -14.3258  -42.1502 H         1 UNK         0.0600 
    176 H176       -2.6092  -11.8515  -42.2301 H         1 UNK         0.0600 
    177 H177       -1.1744  -12.3705  -41.3606 H         1 UNK         0.0600 
    178 H178       -1.0303  -11.7841  -43.0133 H         1 UNK         0.0600 
    179 H179       -2.5732  -12.8718  -44.6215 H         1 UNK         0.3000 
    180 H180       -3.5367  -15.5912  -46.6996 H         1 UNK         0.0600 
    181 H181       -5.2037  -13.2383  -45.6718 H         1 UNK         0.0600 
    182 H182       -5.6615  -14.9342  -45.5646 H         1 UNK         0.0600 
    183 H183       -5.5062  -14.1718  -47.1385 H         1 UNK         0.0600 
    184 H184       -3.3404  -12.8465  -47.3073 H         1 UNK         0.3000 
    185 H185       -1.7023  -12.1922  -48.7414 H         1 UNK         0.0600 
    186 H186        0.5981  -12.1547  -46.7044 H         1 UNK         0.0600 
    187 H187        0.2370  -10.8872  -47.8739 H         1 UNK         0.0600 
    188 H188       -0.8957  -11.2343  -46.5780 H         1 UNK         0.0600 
    189 H189        1.0063  -13.2991  -48.8223 H         1 UNK         0.3000 
    190 H190       -1.3969  -21.4447  -45.3550 H         1 UNK         0.3000 
    191 H191       -3.5404  -21.1708  -47.1896 H         1 UNK         0.0600 
    192 H192       -3.5456  -21.2330  -44.1244 H         1 UNK         0.0600 
    193 H193       -4.8761  -20.6611  -45.1230 H         1 UNK         0.0600 
    194 H194       -3.3489  -19.8024  -45.1365 H         1 UNK         0.0600 
    195 H195       -2.6171  -23.8856  -45.1321 H         1 UNK         0.3000 
    196 H196       -5.0810  -25.4127  -45.8407 H         1 UNK         0.0600 
    197 H197       -4.2653  -27.0010  -44.1115 H         1 UNK         0.0600 
    198 H198       -4.4740  -25.3919  -43.4378 H         1 UNK         0.0600 
    199 H199       -2.8582  -25.9885  -43.8090 H         1 UNK         0.0600 
    200 H200       -1.4757  -25.5785  -45.9013 H         1 UNK         0.3000 
    201 H201       -1.4060  -28.1069  -47.1767 H         1 UNK         0.0600 
    202 H202        0.3784  -27.2487  -45.6858 H         1 UNK         0.0600 
    203 H203        0.8038  -26.0127  -46.8656 H         1 UNK         0.0600 
    204 H204        1.0386  -27.7116  -47.2465 H         1 UNK         0.0600 
    205 H205       -1.3141  -24.8355  -48.5958 H         1 UNK         0.3000 
    206 H206       -1.0009  -26.0145  -51.3364 H         1 UNK         0.0600 
    207 H207        1.0796  -24.8656  -50.5626 H         1 UNK         0.0600 
    208 H208        0.3180  -23.9716  -51.8685 H         1 UNK         0.0600 
    209 H209        0.1573  -23.4060  -50.2130 H         1 UNK         0.0600 
    210 H210       -3.0911  -24.3958  -49.2878 H         1 UNK         0.3000 
    211 H211       -4.9290  -23.1755  -49.4301 H         1 UNK         0.0600 
    212 H212       -5.0133  -23.6764  -52.4467 H         1 UNK         0.0600 
    213 H213       -6.3437  -23.1754  -51.4171 H         1 UNK         0.0600 
    214 H214       -5.6559  -24.7792  -51.2292 H         1 UNK         0.0600 
    215 H215       -2.3045  -21.9643  -49.6006 H         1 UNK         0.3000 
    216 H216       -2.1519  -19.9967  -51.6023 H         1 UNK         0.0600 
    217 H217       -0.1557  -19.2161  -50.3367 H         1 UNK         0.0600 
    218 H218       -0.1861  -20.9642  -50.4530 H         1 UNK         0.0600 
    219 H219       -0.6549  -20.1642  -48.9472 H         1 UNK         0.0600 
    220 H220       -4.2054  -19.8401  -48.9654 H         1 UNK         0.3000 
    221 H221       -4.0675  -16.9489  -48.4660 H         1 UNK         0.0600 
    222 H222       -5.9597  -19.1292  -47.4481 H         1 UNK         0.0600 
    223 H223       -4.6094  -18.3984  -46.5767 H         1 UNK         0.0600 
    224 H224       -6.0207  -17.4364  -46.9661 H         1 UNK         0.0600 
    225 H225       -4.2008  -16.7910  -50.8955 H         1 UNK         0.3000 
    226 H226       -5.0981  -15.7449  -52.5810 H         1 UNK         0.0600 
    227 H227       -6.2090  -14.2776  -50.9057 H         1 UNK         0.0600 
    228 H228       -7.1852  -14.4420  -52.3562 H         1 UNK         0.0600 
    229 H229       -7.6275  -15.3263  -50.9050 H         1 UNK         0.0600 
    230 H230       -6.8384  -18.5400  -51.4783 H         1 UNK         0.3000 
    231 H231       -8.5391  -18.9191  -53.7617 H         1 UNK         0.0600 
    232 H232       -8.9240  -20.1148  -51.6363 H         1 UNK         0.0600 
    233 H233       -7.3738  -20.9396  -51.7741 H         1 UNK         0.0600 
    234 H234       -8.6586  -21.2783  -52.9266 H         1 UNK         0.0600 
    235 H235       -5.1946  -19.8019  -53.0314 H         1 UNK         0.3000 
    236 H236       -4.5758  -20.0161  -55.8999 H         1 UNK         0.0600 
    237 H237       -3.0143  -21.9019  -55.4182 H         1 UNK         0.0600 
    238 H238       -3.4800  -21.9016  -53.7235 H         1 UNK         0.0600 
    239 H239       -4.6396  -22.3849  -54.9587 H         1 UNK         0.0600 
    240 H240       -2.0701  -19.7817  -56.0298 H         1 UNK         0.3000 
    241 H241       -0.2313  -18.5973  -55.7690 H         1 UNK         0.0600 
    242 H242       -2.2387  -15.3361  -55.6450 H         1 UNK         0.3800 
    243 H243       -2.7666  -16.9302  -56.1147 H         1 UNK         0.3800 
    244 H244       -0.7272  -18.6360  -52.7571 H         1 UNK         0.0800 
    245 H245        0.7748  -18.3052  -53.5554 H         1 UNK         0.0800 
    246 H246        2.4868  -19.9089  -54.2481 H         1 UNK         0.0800 
    247 H247        2.4580  -21.6073  -53.8593 H         1 UNK         0.0800 
@<TRIPOS>BOND
     1    1    2 1    
     2    1  127 1    
     3    1  128 1    
     4    1  129 1    
     5    2    3 2    
     6    2    4 am   BACKBONE|DICT|INTERRES
     7    4    5 1    
     8    4  130 1    
     9    5    6 1    
    10    5   65 1    
    11    5  131 1    
    12    6    7 1    
    13    6  132 1    
    14    6  133 1    
    15    7    8 1    
    16    8    9 1    
    17    8  134 1    
    18    8  135 1    
    19    9   10 ar   
    20    9   14 ar   
    21   10   11 ar   
    22   10  136 1    
    23   11   12 ar   
    24   11  126 1    
    25   12   13 ar   
    26   12  137 1    
    27   13   14 ar   
    28   13   15 1    
    29   14  138 1    
    30   15   16 1    
    31   15  139 1    
    32   15  140 1    
    33   16   17 1    
    34   17   18 1    
    35   17  141 1    
    36   17  142 1    
    37   18   19 1    
    38   18   67 1    
    39   18  143 1    
    40   19   20 am   BACKBONE|DICT|INTERRES
    41   19  144 1    
    42   20   21 2    
    43   20   22 1    
    44   22   23 1    
    45   22   24 1    
    46   22  145 1    
    47   23  146 1    
    48   23  147 1    
    49   23  148 1    
    50   24   25 am   BACKBONE|DICT|INTERRES
    51   24  149 1    
    52   25   26 2    
    53   25   27 1    
    54   27   28 1    
    55   27   29 1    
    56   27  150 1    
    57   28  151 1    
    58   28  152 1    
    59   28  153 1    
    60   29   30 am   BACKBONE|DICT|INTERRES
    61   29  154 1    
    62   30   31 2    
    63   30   32 1    
    64   32   33 1    
    65   32   34 1    
    66   32  155 1    
    67   33  156 1    
    68   33  157 1    
    69   33  158 1    
    70   34   35 am   BACKBONE|DICT|INTERRES
    71   34  159 1    
    72   35   36 2    
    73   35   37 1    
    74   37   38 1    
    75   37   39 1    
    76   37  160 1    
    77   38  161 1    
    78   38  162 1    
    79   38  163 1    
    80   39   40 am   BACKBONE|DICT|INTERRES
    81   39  164 1    
    82   40   41 2    
    83   40   42 1    
    84   42   43 1    
    85   42   44 1    
    86   42  165 1    
    87   43  166 1    
    88   43  167 1    
    89   43  168 1    
    90   44   45 am   BACKBONE|DICT|INTERRES
    91   44  169 1    
    92   45   46 2    
    93   45   47 1    
    94   47   48 1    
    95   47   49 1    
    96   47  170 1    
    97   48  171 1    
    98   48  172 1    
    99   48  173 1    
   100   49   50 am   BACKBONE|DICT|INTERRES
   101   49  174 1    
   102   50   51 2    
   103   50   52 1    
   104   52   53 1    
   105   52   54 1    
   106   52  175 1    
   107   53  176 1    
   108   53  177 1    
   109   53  178 1    
   110   54   55 am   BACKBONE|DICT|INTERRES
   111   54  179 1    
   112   55   56 2    
   113   55   57 1    
   114   57   58 1    
   115   57   59 1    
   116   57  180 1    
   117   58  181 1    
   118   58  182 1    
   119   58  183 1    
   120   59   60 am   BACKBONE|DICT|INTERRES
   121   59  184 1    
   122   60   61 2    
   123   60   62 1    
   124   62   63 1    
   125   62   64 1    
   126   62  185 1    
   127   63  186 1    
   128   63  187 1    
   129   63  188 1    
   130   64   65 am   BACKBONE|DICT|INTERRES
   131   64  189 1    
   132   65   66 2    
   133   67   68 2    
   134   67   69 am   BACKBONE|DICT|INTERRES
   135   69   70 1    
   136   69  190 1    
   137   70   71 1    
   138   70   72 1    
   139   70  191 1    
   140   71  192 1    
   141   71  193 1    
   142   71  194 1    
   143   72   73 2    
   144   72   74 am   BACKBONE|DICT|INTERRES
   145   74   75 1    
   146   74  195 1    
   147   75   76 1    
   148   75   77 1    
   149   75  196 1    
   150   76  197 1    
   151   76  198 1    
   152   76  199 1    
   153   77   78 2    
   154   77   79 am   BACKBONE|DICT|INTERRES
   155   79   80 1    
   156   79  200 1    
   157   80   81 1    
   158   80   82 1    
   159   80  201 1    
   160   81  202 1    
   161   81  203 1    
   162   81  204 1    
   163   82   83 2    
   164   82   84 am   BACKBONE|DICT|INTERRES
   165   84   85 1    
   166   84  205 1    
   167   85   86 1    
   168   85   87 1    
   169   85  206 1    
   170   86  207 1    
   171   86  208 1    
   172   86  209 1    
   173   87   88 2    
   174   87   89 am   BACKBONE|DICT|INTERRES
   175   89   90 1    
   176   89  210 1    
   177   90   91 1    
   178   90   92 1    
   179   90  211 1    
   180   91  212 1    
   181   91  213 1    
   182   91  214 1    
   183   92   93 2    
   184   92   94 am   BACKBONE|DICT|INTERRES
   185   94   95 1    
   186   94  215 1    
   187   95   96 1    
   188   95   97 1    
   189   95  216 1    
   190   96  217 1    
   191   96  218 1    
   192   96  219 1    
   193   97   98 2    
   194   97   99 am   BACKBONE|DICT|INTERRES
   195   99  100 1    
   196   99  220 1    
   197  100  101 1    
   198  100  102 1    
   199  100  221 1    
   200  101  222 1    
   201  101  223 1    
   202  101  224 1    
   203  102  103 2    
   204  102  104 am   BACKBONE|DICT|INTERRES
   205  104  105 1    
   206  104  225 1    
   207  105  106 1    
   208  105  107 1    
   209  105  226 1    
   210  106  227 1    
   211  106  228 1    
   212  106  229 1    
   213  107  108 2    
   214  107  109 am   BACKBONE|DICT|INTERRES
   215  109  110 1    
   216  109  230 1    
   217  110  111 1    
   218  110  112 1    
   219  110  231 1    
   220  111  232 1    
   221  111  233 1    
   222  111  234 1    
   223  112  113 2    
   224  112  114 am   BACKBONE|DICT|INTERRES
   225  114  115 1    
   226  114  235 1    
   227  115  116 1    
   228  115  117 1    
   229  115  236 1    
   230  116  237 1    
   231  116  238 1    
   232  116  239 1    
   233  117  118 2    
   234  117  119 am   BACKBONE|DICT|INTERRES
   235  119  120 1    
   236  119  240 1    
   237  120  121 1    
   238  120  124 1    
   239  120  241 1    
   240  121  122 am   BACKBONE|DICT|INTERRES
   241  121  123 2    
   242  122  242 1    
   243  122  243 1    
   244  124  125 1    
   245  124  244 1    
   246  124  245 1    
   247  125  126 1    
   248  126  246 1    
   249  126  247 1    
@<TRIPOS>SUBSTRUCTURE
     1 UNK         1 GROUP             0       ****    0 ROOT    
