@<TRIPOS>MOLECULE
3R540
247   249    1
SMALL
USER_CHARGES


@<TRIPOS>ATOM
      1 CA          7.9720  -13.9651  -48.8749 C.3       0 UNK        -0.1800 
      2 C           6.8074  -14.7122  -49.5085 C.2       0 UNK         0.5000 
      3 O           5.6724  -14.2400  -49.4463 O.2       0 UNK        -0.5000 
      4 N           7.0820  -15.8807  -50.1040 N.am      1 UNK        -0.5000 
      5 CA          6.1504  -16.7895  -50.7904 C.3       1 UNK         0.1400 
      6 C6          5.3810  -16.1152  -51.9581 C.3       23 UNK        -0.0398 
      7 S7          4.7399  -17.3264  -53.1653 S.3       23 UNK        -0.2404 
      8 C8          3.0268  -16.7578  -53.4175 C.3       23 UNK        -0.0205 
      9 C9          2.1722  -16.8202  -52.1571 C.ar      23 UNK        -0.0193 
     10 C10         1.6307  -15.6502  -51.6215 C.ar      23 UNK        -0.1150 
     11 C11         0.7892  -15.6995  -50.5074 C.ar      23 UNK        -0.0193 
     12 C12         0.5152  -16.9315  -49.9062 C.ar      23 UNK        -0.1150 
     13 C13         1.0731  -18.1136  -50.4119 C.ar      23 UNK        -0.0193 
     14 C14         1.8869  -18.0453  -51.5485 C.ar      23 UNK        -0.1150 
     15 C15         0.8265  -19.4814  -49.7734 C.3       23 UNK        -0.0205 
     16 S16         0.5768  -19.4655  -47.9618 S.3       23 UNK        -0.2404 
     17 C17        -1.2322  -19.2821  -47.8417 C.3       23 UNK        -0.0398 
     18 CA         -1.8404  -20.0866  -46.6637 C.3       11 UNK         0.1400 
     19 N          -3.0524  -19.4345  -46.1540 N.am      11 UNK        -0.5000 
     20 C          -4.2354  -19.3246  -46.7784 C.2       10 UNK         0.5000 
     21 O          -4.4855  -19.8287  -47.8715 O.2       10 UNK        -0.5000 
     22 CA         -5.3111  -18.4996  -46.0606 C.3       10 UNK         0.1400 
     23 CB         -5.8256  -19.2379  -44.8142 C.3       10 UNK        -0.1800 
     24 N          -4.7656  -17.2017  -45.6676 N.am      10 UNK        -0.5000 
     25 C          -5.2077  -16.0157  -46.1050 C.2       9 UNK         0.5000 
     26 O          -6.1866  -15.8763  -46.8390 O.2       9 UNK        -0.5000 
     27 CA         -4.4293  -14.7626  -45.6504 C.3       9 UNK         0.1400 
     28 CB         -5.1148  -14.1173  -44.4364 C.3       9 UNK        -0.1800 
     29 N          -3.0270  -15.0212  -45.3172 N.am      9 UNK        -0.5000 
     30 C          -2.0913  -15.4244  -46.1871 C.2       8 UNK         0.5000 
     31 O          -2.2986  -15.5782  -47.3902 O.2       8 UNK        -0.5000 
     32 CA         -0.6880  -15.7227  -45.6243 C.3       8 UNK         0.1400 
     33 CB          0.1927  -14.4693  -45.7523 C.3       8 UNK        -0.1800 
     34 N          -0.6206  -16.1925  -44.2346 N.am      8 UNK        -0.5000 
     35 C          -1.3492  -17.1489  -43.6392 C.2       7 UNK         0.5000 
     36 O          -2.3185  -17.7059  -44.1527 O.2       7 UNK        -0.5000 
     37 CA         -0.9200  -17.5725  -42.2258 C.3       7 UNK         0.1400 
     38 CB         -0.0381  -18.8283  -42.3034 C.3       7 UNK        -0.1800 
     39 N          -0.2030  -16.5179  -41.5078 N.am      7 UNK        -0.5000 
     40 C          -0.7940  -15.4918  -40.8794 C.2       6 UNK         0.5000 
     41 O          -2.0132  -15.3224  -40.8469 O.2       6 UNK        -0.5000 
     42 CA          0.1297  -14.4899  -40.1602 C.3       6 UNK         0.1400 
     43 CB          0.3283  -14.9031  -38.6938 C.3       6 UNK        -0.1800 
     44 N           1.4393  -14.3702  -40.8026 N.am      6 UNK        -0.5000 
     45 C           1.6692  -13.6748  -41.9247 C.2       5 UNK         0.5000 
     46 O           0.8113  -13.0125  -42.5079 O.2       5 UNK        -0.5000 
     47 CA          3.0927  -13.7625  -42.5099 C.3       5 UNK         0.1400 
     48 CB          3.9911  -12.6696  -41.9118 C.3       5 UNK        -0.1800 
     49 N           3.7277  -15.0720  -42.3176 N.am      5 UNK        -0.5000 
     50 C           3.2683  -16.2133  -42.8441 C.2       4 UNK         0.5000 
     51 O           2.2314  -16.2883  -43.5091 O.2       4 UNK        -0.5000 
     52 CA          4.0690  -17.4893  -42.5590 C.3       4 UNK         0.1400 
     53 CB          3.6863  -18.0873  -41.1928 C.3       4 UNK        -0.1800 
     54 N           3.7692  -18.4211  -43.6369 N.am      4 UNK        -0.5000 
     55 C           4.4498  -19.5215  -43.9702 C.2       3 UNK         0.5000 
     56 O           5.3900  -19.9769  -43.3182 O.2       3 UNK        -0.5000 
     57 CA          4.0253  -20.2040  -45.2868 C.3       3 UNK         0.1400 
     58 CB          2.8871  -21.2068  -45.0367 C.3       3 UNK        -0.1800 
     59 N           3.5996  -19.2514  -46.3175 N.am      3 UNK        -0.5000 
     60 C           4.3787  -18.3122  -46.8720 C.2       2 UNK         0.5000 
     61 O           5.5683  -18.1452  -46.5906 O.2       2 UNK        -0.5000 
     62 CA          3.6837  -17.3782  -47.8782 C.3       2 UNK         0.1400 
     63 CB          2.9912  -16.2194  -47.1472 C.3       2 UNK        -0.1800 
     64 N           4.5931  -16.8357  -48.8821 N.am      2 UNK        -0.5000 
     65 C           5.2124  -17.5522  -49.8269 C.2       1 UNK         0.5000 
     66 O           5.0830  -18.7716  -49.9503 O.2       1 UNK        -0.5000 
     67 C          -2.0541  -21.5894  -46.9737 C.2       11 UNK         0.5000 
     68 O          -1.4402  -22.1303  -47.8944 O.2       11 UNK        -0.5000 
     69 N          -2.9631  -22.2235  -46.2168 N.am      12 UNK        -0.5000 
     70 CA         -3.6497  -23.4787  -46.5357 C.3       12 UNK         0.1400 
     71 CB         -4.5960  -23.8339  -45.3798 C.3       12 UNK        -0.1800 
     72 C          -2.7637  -24.6829  -46.8997 C.2       12 UNK         0.5000 
     73 O          -3.1788  -25.5017  -47.7220 O.2       12 UNK        -0.5000 
     74 N          -1.5665  -24.7574  -46.3059 N.am      13 UNK        -0.5000 
     75 CA         -0.5737  -25.8026  -46.5616 C.3       13 UNK         0.1400 
     76 CB          0.5414  -25.6974  -45.5097 C.3       13 UNK        -0.1800 
     77 C           0.0237  -25.7534  -47.9823 C.2       13 UNK         0.5000 
     78 O           0.3974  -26.7995  -48.5141 O.2       13 UNK        -0.5000 
     79 N           0.1026  -24.5505  -48.5643 N.am      14 UNK        -0.5000 
     80 CA          0.6337  -24.2992  -49.9043 C.3       14 UNK         0.1400 
     81 CB          1.6309  -23.1356  -49.8201 C.3       14 UNK        -0.1800 
     82 C          -0.4887  -23.9774  -50.9058 C.2       14 UNK         0.5000 
     83 O          -0.3867  -24.3487  -52.0746 O.2       14 UNK        -0.5000 
     84 N          -1.5488  -23.3130  -50.4288 N.am      15 UNK        -0.5000 
     85 CA         -2.7120  -22.8767  -51.2020 C.3       15 UNK         0.1400 
     86 CB         -3.3496  -21.6880  -50.4729 C.3       15 UNK        -0.1800 
     87 C          -3.7607  -23.9770  -51.4585 C.2       15 UNK         0.5000 
     88 O          -4.8265  -23.6613  -51.9902 O.2       15 UNK        -0.5000 
     89 N          -3.4633  -25.2232  -51.0615 N.am      16 UNK        -0.5000 
     90 CA         -4.2767  -26.4313  -51.2323 C.3       16 UNK         0.1400 
     91 CB         -4.4187  -26.7850  -52.7279 C.3       16 UNK        -0.1800 
     92 C          -5.6314  -26.3144  -50.5103 C.2       16 UNK         0.5000 
     93 O          -6.6813  -26.2803  -51.1531 O.2       16 UNK        -0.5000 
     94 N          -5.5647  -26.2035  -49.1761 N.am      17 UNK        -0.5000 
     95 CA         -6.6912  -26.0046  -48.2551 C.3       17 UNK         0.1400 
     96 CB         -7.6767  -27.1918  -48.2978 C.3       17 UNK        -0.1800 
     97 C          -7.3744  -24.6338  -48.4464 C.2       17 UNK         0.5000 
     98 O          -8.5876  -24.5132  -48.2724 O.2       17 UNK        -0.5000 
     99 N          -6.5583  -23.6279  -48.7963 N.am      18 UNK        -0.5000 
    100 CA        -6.9125  -22.2232  -49.0277 C.3       18 UNK         0.1400 
    101 CB        -7.5000  -21.5787  -47.7544 C.3       18 UNK        -0.1800 
    102 C         -7.7838  -22.0034  -50.2822 C.2       18 UNK         0.5000 
    103 O         -8.4930  -21.0001  -50.3668 O.2       18 UNK        -0.5000 
    104 N         -7.6945  -22.9217  -51.2547 N.am      19 UNK        -0.5000 
    105 CA        -8.3557  -22.8184  -52.5558 C.3       19 UNK         0.1400 
    106 CB        -8.3114  -24.1852  -53.2547 C.3       19 UNK        -0.1800 
    107 C         -7.7214  -21.7348  -53.4473 C.2       19 UNK         0.5000 
    108 O         -8.4407  -21.0397  -54.1653 O.2       19 UNK        -0.5000 
    109 N         -6.3920  -21.6018  -53.3651 N.am      20 UNK        -0.5000 
    110 CA        -5.5825  -20.6340  -54.1051 C.3       20 UNK         0.1400 
    111 CB        -4.5854  -21.4071  -54.9877 C.3       20 UNK        -0.1800 
    112 C         -4.8810  -19.6626  -53.1361 C.2       20 UNK         0.5000 
    113 O         -3.7084  -19.3404  -53.3364 O.2       20 UNK        -0.5000 
    114 N         -5.5990  -19.2472  -52.0803 N.am      21 UNK        -0.5000 
    115 CA        -5.1351  -18.4054  -50.9712 C.3       21 UNK         0.1400 
    116 CB        -6.3098  -18.1588  -50.0110 C.3       21 UNK        -0.1800 
    117 C         -4.5051  -17.0771  -51.4319 C.2       21 UNK         0.5000 
    118 O         -5.2304  -16.1237  -51.7225 O.2       21 UNK        -0.5000 
    119 N         -3.1683  -17.0608  -51.5173 N.am      22 UNK        -0.5000 
    120 CA        -2.3579  -15.9520  -52.0453 C.3       22 UNK         0.1400 
    121 C         -2.5896  -15.6666  -53.5638 C.2       22 UNK         0.5000 
    122 N         -2.9956  -16.6568  -54.3517 N.am      22 UNK        -0.7600 
    123 O         -2.3896  -14.5554  -54.0461 O.2       22 UNK        -0.5000 
    124 C124       -2.4231  -14.7009  -51.1209 C.3       23 UNK        -0.0398 
    125 S125       -0.9412  -13.6341  -51.1891 S.3       23 UNK        -0.2404 
    126 C126        0.1657  -14.4193  -49.9704 C.3       23 UNK        -0.0205 
    127 H127        8.0743  -12.9784  -49.3266 H         1 UNK         0.0600 
    128 H128        8.9147  -14.4975  -49.0036 H         1 UNK         0.0600 
    129 H129        7.7974  -13.8358  -47.8068 H         1 UNK         0.0600 
    130 H130        8.0373  -16.2102  -50.0802 H         1 UNK         0.3000 
    131 H131        6.8032  -17.5448  -51.2318 H         1 UNK         0.0600 
    132 H132        6.0493  -15.4474  -52.5030 H         1 UNK         0.0800 
    133 H133        4.5747  -15.4845  -51.5816 H         1 UNK         0.0800 
    134 H134        2.5627  -17.3794  -54.1844 H         1 UNK         0.0800 
    135 H135        3.0491  -15.7446  -53.8220 H         1 UNK         0.0800 
    136 H136        1.8371  -14.6974  -52.0887 H         1 UNK         0.1150 
    137 H137       -0.1322  -16.9574  -49.0438 H         1 UNK         0.1150 
    138 H138        2.3117  -18.9499  -51.9609 H         1 UNK         0.1150 
    139 H139       -0.0090  -19.9746  -50.2714 H         1 UNK         0.0800 
    140 H140        1.7014  -20.1049  -49.9610 H         1 UNK         0.0800 
    141 H141       -1.7173  -19.5400  -48.7825 H         1 UNK         0.0800 
    142 H142       -1.4291  -18.2202  -47.6967 H         1 UNK         0.0800 
    143 H143       -1.1351  -20.0538  -45.8318 H         1 UNK         0.0600 
    144 H144       -2.9237  -18.9370  -45.2753 H         1 UNK         0.3000 
    145 H145       -6.1468  -18.3793  -46.7530 H         1 UNK         0.0600 
    146 H146       -6.6455  -18.6907  -44.3488 H         1 UNK         0.0600 
    147 H147       -6.2015  -20.2287  -45.0709 H         1 UNK         0.0600 
    148 H148       -5.0439  -19.3651  -44.0643 H         1 UNK         0.0600 
    149 H149       -3.9301  -17.2189  -45.0903 H         1 UNK         0.3000 
    150 H150       -4.4502  -14.0483  -46.4761 H         1 UNK         0.0600 
    151 H151       -6.1581  -13.8845  -44.6540 H         1 UNK         0.0600 
    152 H152       -4.6264  -13.1836  -44.1568 H         1 UNK         0.0600 
    153 H153       -5.0997  -14.7782  -43.5686 H         1 UNK         0.0600 
    154 H154       -2.7663  -14.9343  -44.3457 H         1 UNK         0.3000 
    155 H155       -0.2546  -16.5109  -46.2422 H         1 UNK         0.0600 
    156 H156       -0.1973  -13.6462  -45.1523 H         1 UNK         0.0600 
    157 H157        0.2458  -14.1258  -46.7854 H         1 UNK         0.0600 
    158 H158        1.2134  -14.6593  -45.4227 H         1 UNK         0.0600 
    159 H159        0.1905  -15.8674  -43.7220 H         1 UNK         0.3000 
    160 H160       -1.8237  -17.8283  -41.6683 H         1 UNK         0.0600 
    161 H161        0.2469  -19.1731  -41.3094 H         1 UNK         0.0600 
    162 H162        0.8733  -18.6485  -42.8740 H         1 UNK         0.0600 
    163 H163       -0.5690  -19.6480  -42.7894 H         1 UNK         0.0600 
    164 H164        0.8046  -16.5585  -41.5286 H         1 UNK         0.3000 
    165 H165       -0.3610  -13.5142  -40.1747 H         1 UNK         0.0600 
    166 H166        0.9288  -14.1696  -38.1555 H         1 UNK         0.0600 
    167 H167       -0.6292  -14.9798  -38.1768 H         1 UNK         0.0600 
    168 H168        0.8247  -15.8708  -38.6105 H         1 UNK         0.0600 
    169 H169        2.2063  -14.8719  -40.3798 H         1 UNK         0.3000 
    170 H170        3.0135  -13.5870  -43.5851 H         1 UNK         0.0600 
    171 H171        3.5541  -11.6809  -42.0589 H         1 UNK         0.0600 
    172 H172        4.1359  -12.8084  -40.8397 H         1 UNK         0.0600 
    173 H173        4.9728  -12.6626  -42.3859 H         1 UNK         0.0600 
    174 H174        4.5791  -15.0853  -41.7744 H         1 UNK         0.3000 
    175 H175        5.1344  -17.2518  -42.5790 H         1 UNK         0.0600 
    176 H176        2.6288  -18.3452  -41.1453 H         1 UNK         0.0600 
    177 H177        4.2578  -18.9906  -40.9798 H         1 UNK         0.0600 
    178 H178        3.8891  -17.3824  -40.3859 H         1 UNK         0.0600 
    179 H179        3.0201  -18.1027  -44.2391 H         1 UNK         0.3000 
    180 H180        4.8887  -20.7503  -45.6719 H         1 UNK         0.0600 
    181 H181        1.9853  -20.7111  -44.6744 H         1 UNK         0.0600 
    182 H182        3.1766  -21.9483  -44.2910 H         1 UNK         0.0600 
    183 H183        2.6287  -21.7470  -45.9481 H         1 UNK         0.0600 
    184 H184        2.6382  -19.3246  -46.6231 H         1 UNK         0.3000 
    185 H185        2.9316  -17.9551  -48.4108 H         1 UNK         0.0600 
    186 H186        2.2779  -16.5968  -46.4140 H         1 UNK         0.0600 
    187 H187        3.7076  -15.5919  -46.6156 H         1 UNK         0.0600 
    188 H188        2.4387  -15.5869  -47.8422 H         1 UNK         0.0600 
    189 H189        4.7822  -15.8389  -48.8497 H         1 UNK         0.3000 
    190 H190       -3.3752  -21.6862  -45.4684 H         1 UNK         0.3000 
    191 H191       -4.2589  -23.2706  -47.4145 H         1 UNK         0.0600 
    192 H192       -5.1255  -24.7673  -45.5708 H         1 UNK         0.0600 
    193 H193       -5.3499  -23.0599  -45.2344 H         1 UNK         0.0600 
    194 H194       -4.0528  -23.9541  -44.4418 H         1 UNK         0.0600 
    195 H195       -1.3085  -24.0294  -45.6561 H         1 UNK         0.3000 
    196 H196       -1.0650  -26.7708  -46.4444 H         1 UNK         0.0600 
    197 H197        1.2890  -26.4787  -45.6532 H         1 UNK         0.0600 
    198 H198        0.1445  -25.8108  -44.5008 H         1 UNK         0.0600 
    199 H199        1.0559  -24.7369  -45.5633 H         1 UNK         0.0600 
    200 H200       -0.2720  -23.7466  -48.0714 H         1 UNK         0.3000 
    201 H201        1.1676  -25.1746  -50.2800 H         1 UNK         0.0600 
    202 H202        2.5062  -23.4118  -49.2321 H         1 UNK         0.0600 
    203 H203        1.1765  -22.2663  -49.3469 H         1 UNK         0.0600 
    204 H204        1.9812  -22.8366  -50.8089 H         1 UNK         0.0600 
    205 H205       -1.5242  -23.0002  -49.4609 H         1 UNK         0.3000 
    206 H206       -2.3749  -22.5303  -52.1810 H         1 UNK         0.0600 
    207 H207       -2.6712  -20.8367  -50.4478 H         1 UNK         0.0600 
    208 H208       -4.2617  -21.3603  -50.9650 H         1 UNK         0.0600 
    209 H209       -3.6165  -21.9421  -49.4488 H         1 UNK         0.0600 
    210 H210       -2.5793  -25.3548  -50.5915 H         1 UNK         0.3000 
    211 H211       -3.7329  -27.2463  -50.7523 H         1 UNK         0.0600 
    212 H212       -3.4425  -26.8999  -53.1989 H         1 UNK         0.0600 
    213 H213       -4.9682  -26.0218  -53.2799 H         1 UNK         0.0600 
    214 H214       -4.9542  -27.7265  -52.8547 H         1 UNK         0.0600 
    215 H215       -4.6443  -26.1824  -48.7417 H         1 UNK         0.3000 
    216 H216       -6.2581  -25.9864  -47.2551 H         1 UNK         0.0600 
    217 H217       -8.4118  -27.1158  -47.4958 H         1 UNK         0.0600 
    218 H218       -7.1565  -28.1411  -48.1704 H         1 UNK         0.0600 
    219 H219       -8.2271  -27.2332  -49.2379 H         1 UNK         0.0600 
    220 H220       -5.5937  -23.8679  -48.9674 H         1 UNK         0.3000 
    221 H221       -5.9753  -21.7086  -49.2348 H         1 UNK         0.0600 
    222 H222       -8.4911  -21.9672  -47.5200 H         1 UNK         0.0600 
    223 H223       -6.8557  -21.7561  -46.8941 H         1 UNK         0.0600 
    224 H224       -7.5940  -20.4986  -47.8672 H         1 UNK         0.0600 
    225 H225       -7.0702  -23.7086  -51.1313 H         1 UNK         0.3000 
    226 H226       -9.4018  -22.5514  -52.3919 H         1 UNK         0.0600 
    227 H227       -8.8099  -24.1465  -54.2240 H         1 UNK         0.0600 
    228 H228       -7.2858  -24.5172  -53.4236 H         1 UNK         0.0600 
    229 H229       -8.8138  -24.9480  -52.6595 H         1 UNK         0.0600 
    230 H230       -5.8818  -22.2469  -52.7664 H         1 UNK         0.3000 
    231 H231       -6.2092  -20.0240  -54.7583 H         1 UNK         0.0600 
    232 H232       -5.1047  -22.0821  -55.6681 H         1 UNK         0.0600 
    233 H233       -3.8972  -22.0031  -54.3870 H         1 UNK         0.0600 
    234 H234       -3.9895  -20.7280  -55.5987 H         1 UNK         0.0600 
    235 H235       -6.5576  -19.5589  -52.0206 H         1 UNK         0.3000 
    236 H236       -4.3753  -18.9641  -50.4236 H         1 UNK         0.0600 
    237 H237       -6.6555  -19.0908  -49.5676 H         1 UNK         0.0600 
    238 H238       -6.0119  -17.5046  -49.1907 H         1 UNK         0.0600 
    239 H239       -7.1564  -17.6915  -50.5152 H         1 UNK         0.0600 
    240 H240       -2.6641  -17.9148  -51.3293 H         1 UNK         0.3000 
    241 H241       -1.3397  -16.3334  -52.0124 H         1 UNK         0.0600 
    242 H242       -3.1652  -17.5840  -53.9724 H         1 UNK         0.3800 
    243 H243       -3.1400  -16.4822  -55.3332 H         1 UNK         0.3800 
    244 H244       -3.2999  -14.0974  -51.3602 H         1 UNK         0.0800 
    245 H245       -2.5561  -15.0086  -50.0828 H         1 UNK         0.0800 
    246 H246       -0.3846  -14.6059  -49.0483 H         1 UNK         0.0800 
    247 H247        0.9638  -13.7207  -49.7162 H         1 UNK         0.0800 
@<TRIPOS>BOND
     1    1    2 1    
     2    1  127 1    
     3    1  128 1    
     4    1  129 1    
     5    2    3 2    
     6    2    4 am   BACKBONE|DICT|INTERRES
     7    4    5 1    
     8    4  130 1    
     9    5    6 1    
    10    5   65 1    
    11    5  131 1    
    12    6    7 1    
    13    6  132 1    
    14    6  133 1    
    15    7    8 1    
    16    8    9 1    
    17    8  134 1    
    18    8  135 1    
    19    9   10 ar   
    20    9   14 ar   
    21   10   11 ar   
    22   10  136 1    
    23   11   12 ar   
    24   11  126 1    
    25   12   13 ar   
    26   12  137 1    
    27   13   14 ar   
    28   13   15 1    
    29   14  138 1    
    30   15   16 1    
    31   15  139 1    
    32   15  140 1    
    33   16   17 1    
    34   17   18 1    
    35   17  141 1    
    36   17  142 1    
    37   18   19 1    
    38   18   67 1    
    39   18  143 1    
    40   19   20 am   BACKBONE|DICT|INTERRES
    41   19  144 1    
    42   20   21 2    
    43   20   22 1    
    44   22   23 1    
    45   22   24 1    
    46   22  145 1    
    47   23  146 1    
    48   23  147 1    
    49   23  148 1    
    50   24   25 am   BACKBONE|DICT|INTERRES
    51   24  149 1    
    52   25   26 2    
    53   25   27 1    
    54   27   28 1    
    55   27   29 1    
    56   27  150 1    
    57   28  151 1    
    58   28  152 1    
    59   28  153 1    
    60   29   30 am   BACKBONE|DICT|INTERRES
    61   29  154 1    
    62   30   31 2    
    63   30   32 1    
    64   32   33 1    
    65   32   34 1    
    66   32  155 1    
    67   33  156 1    
    68   33  157 1    
    69   33  158 1    
    70   34   35 am   BACKBONE|DICT|INTERRES
    71   34  159 1    
    72   35   36 2    
    73   35   37 1    
    74   37   38 1    
    75   37   39 1    
    76   37  160 1    
    77   38  161 1    
    78   38  162 1    
    79   38  163 1    
    80   39   40 am   BACKBONE|DICT|INTERRES
    81   39  164 1    
    82   40   41 2    
    83   40   42 1    
    84   42   43 1    
    85   42   44 1    
    86   42  165 1    
    87   43  166 1    
    88   43  167 1    
    89   43  168 1    
    90   44   45 am   BACKBONE|DICT|INTERRES
    91   44  169 1    
    92   45   46 2    
    93   45   47 1    
    94   47   48 1    
    95   47   49 1    
    96   47  170 1    
    97   48  171 1    
    98   48  172 1    
    99   48  173 1    
   100   49   50 am   BACKBONE|DICT|INTERRES
   101   49  174 1    
   102   50   51 2    
   103   50   52 1    
   104   52   53 1    
   105   52   54 1    
   106   52  175 1    
   107   53  176 1    
   108   53  177 1    
   109   53  178 1    
   110   54   55 am   BACKBONE|DICT|INTERRES
   111   54  179 1    
   112   55   56 2    
   113   55   57 1    
   114   57   58 1    
   115   57   59 1    
   116   57  180 1    
   117   58  181 1    
   118   58  182 1    
   119   58  183 1    
   120   59   60 am   BACKBONE|DICT|INTERRES
   121   59  184 1    
   122   60   61 2    
   123   60   62 1    
   124   62   63 1    
   125   62   64 1    
   126   62  185 1    
   127   63  186 1    
   128   63  187 1    
   129   63  188 1    
   130   64   65 am   BACKBONE|DICT|INTERRES
   131   64  189 1    
   132   65   66 2    
   133   67   68 2    
   134   67   69 am   BACKBONE|DICT|INTERRES
   135   69   70 1    
   136   69  190 1    
   137   70   71 1    
   138   70   72 1    
   139   70  191 1    
   140   71  192 1    
   141   71  193 1    
   142   71  194 1    
   143   72   73 2    
   144   72   74 am   BACKBONE|DICT|INTERRES
   145   74   75 1    
   146   74  195 1    
   147   75   76 1    
   148   75   77 1    
   149   75  196 1    
   150   76  197 1    
   151   76  198 1    
   152   76  199 1    
   153   77   78 2    
   154   77   79 am   BACKBONE|DICT|INTERRES
   155   79   80 1    
   156   79  200 1    
   157   80   81 1    
   158   80   82 1    
   159   80  201 1    
   160   81  202 1    
   161   81  203 1    
   162   81  204 1    
   163   82   83 2    
   164   82   84 am   BACKBONE|DICT|INTERRES
   165   84   85 1    
   166   84  205 1    
   167   85   86 1    
   168   85   87 1    
   169   85  206 1    
   170   86  207 1    
   171   86  208 1    
   172   86  209 1    
   173   87   88 2    
   174   87   89 am   BACKBONE|DICT|INTERRES
   175   89   90 1    
   176   89  210 1    
   177   90   91 1    
   178   90   92 1    
   179   90  211 1    
   180   91  212 1    
   181   91  213 1    
   182   91  214 1    
   183   92   93 2    
   184   92   94 am   BACKBONE|DICT|INTERRES
   185   94   95 1    
   186   94  215 1    
   187   95   96 1    
   188   95   97 1    
   189   95  216 1    
   190   96  217 1    
   191   96  218 1    
   192   96  219 1    
   193   97   98 2    
   194   97   99 am   BACKBONE|DICT|INTERRES
   195   99  100 1    
   196   99  220 1    
   197  100  101 1    
   198  100  102 1    
   199  100  221 1    
   200  101  222 1    
   201  101  223 1    
   202  101  224 1    
   203  102  103 2    
   204  102  104 am   BACKBONE|DICT|INTERRES
   205  104  105 1    
   206  104  225 1    
   207  105  106 1    
   208  105  107 1    
   209  105  226 1    
   210  106  227 1    
   211  106  228 1    
   212  106  229 1    
   213  107  108 2    
   214  107  109 am   BACKBONE|DICT|INTERRES
   215  109  110 1    
   216  109  230 1    
   217  110  111 1    
   218  110  112 1    
   219  110  231 1    
   220  111  232 1    
   221  111  233 1    
   222  111  234 1    
   223  112  113 2    
   224  112  114 am   BACKBONE|DICT|INTERRES
   225  114  115 1    
   226  114  235 1    
   227  115  116 1    
   228  115  117 1    
   229  115  236 1    
   230  116  237 1    
   231  116  238 1    
   232  116  239 1    
   233  117  118 2    
   234  117  119 am   BACKBONE|DICT|INTERRES
   235  119  120 1    
   236  119  240 1    
   237  120  121 1    
   238  120  124 1    
   239  120  241 1    
   240  121  122 am   BACKBONE|DICT|INTERRES
   241  121  123 2    
   242  122  242 1    
   243  122  243 1    
   244  124  125 1    
   245  124  244 1    
   246  124  245 1    
   247  125  126 1    
   248  126  246 1    
   249  126  247 1    
@<TRIPOS>SUBSTRUCTURE
     1 UNK         1 GROUP             0       ****    0 ROOT    
