@<TRIPOS>MOLECULE
3R540
247   249    1
SMALL
USER_CHARGES


@<TRIPOS>ATOM
      1 CA         -4.1391  -14.2607  -47.0544 C.3       0 UNK        -0.1800 
      2 C          -2.9346  -13.8750  -47.9022 C.2       0 UNK         0.5000 
      3 O          -3.0276  -12.9625  -48.7232 O.2       0 UNK        -0.5000 
      4 N          -1.8084  -14.5667  -47.6997 N.am      1 UNK        -0.5000 
      5 CA         -0.5081  -14.2523  -48.3023 C.3       1 UNK         0.1400 
      6 C6          0.3686  -15.5151  -48.4780 C.3       23 UNK        -0.0398 
      7 S7         -0.4191  -16.7319  -49.5903 S.3       23 UNK        -0.2404 
      8 C8          0.6936  -16.7340  -51.0306 C.3       23 UNK        -0.0205 
      9 C9          1.5080  -18.0170  -51.1008 C.ar      23 UNK        -0.0193 
     10 C10         1.2284  -18.9696  -52.0843 C.ar      23 UNK        -0.1150 
     11 C11         1.9746  -20.1473  -52.1670 C.ar      23 UNK        -0.0193 
     12 C12         3.0085  -20.3726  -51.2548 C.ar      23 UNK        -0.1150 
     13 C13         3.2926  -19.4333  -50.2591 C.ar      23 UNK        -0.0193 
     14 C14         2.5443  -18.2528  -50.1923 C.ar      23 UNK        -0.1150 
     15 C15         4.4131  -19.6921  -49.2614 C.3       23 UNK        -0.0205 
     16 S16         4.0590  -21.1010  -48.1600 S.3       23 UNK        -0.2404 
     17 C17         2.5877  -20.5161  -47.2549 C.3       23 UNK        -0.0398 
     18 CA          1.4662  -21.5798  -47.2092 C.3       11 UNK         0.1400 
     19 N           1.8680  -22.7726  -46.4651 N.am      11 UNK        -0.5000 
     20 C           1.2261  -23.9469  -46.4989 C.2       10 UNK         0.5000 
     21 O           0.2506  -24.1780  -47.2133 O.2       10 UNK        -0.5000 
     22 CA          1.7422  -25.0267  -45.5304 C.3       10 UNK         0.1400 
     23 CB          2.9230  -25.7904  -46.1486 C.3       10 UNK        -0.1800 
     24 N           2.1479  -24.4688  -44.2371 N.am      10 UNK        -0.5000 
     25 C           1.3023  -23.9097  -43.3598 C.2       9 UNK         0.5000 
     26 O           0.0874  -23.8288  -43.5390 O.2       9 UNK        -0.5000 
     27 CA          1.9228  -23.3044  -42.0873 C.3       9 UNK         0.1400 
     28 CB          2.1095  -24.3859  -41.0128 C.3       9 UNK        -0.1800 
     29 N           3.1994  -22.6186  -42.3139 N.am      9 UNK        -0.5000 
     30 C           3.3632  -21.5425  -43.0941 C.2       8 UNK         0.5000 
     31 O           2.4708  -21.0570  -43.7926 O.2       8 UNK        -0.5000 
     32 CA          4.7643  -20.9222  -43.1272 C.3       8 UNK         0.1400 
     33 CB          5.6082  -21.5555  -44.2448 C.3       8 UNK        -0.1800 
     34 N           4.6385  -19.4878  -43.3724 N.am      8 UNK        -0.5000 
     35 C           5.3181  -18.5273  -42.7346 C.2       7 UNK         0.5000 
     36 O           6.1743  -18.7564  -41.8789 O.2       7 UNK        -0.5000 
     37 CA          5.0140  -17.0605  -43.1118 C.3       7 UNK         0.1400 
     38 CB          6.1825  -16.4616  -43.9112 C.3       7 UNK        -0.1800 
     39 N           3.7811  -16.8744  -43.8831 N.am      7 UNK        -0.5000 
     40 C           2.5433  -16.9479  -43.3792 C.2       6 UNK         0.5000 
     41 O           2.2959  -17.2006  -42.1970 O.2       6 UNK        -0.5000 
     42 CA          1.3939  -16.7220  -44.3749 C.3       6 UNK         0.1400 
     43 CB          1.4098  -17.7857  -45.4825 C.3       6 UNK        -0.1800 
     44 N           0.1314  -16.7725  -43.6473 N.am      6 UNK        -0.5000 
     45 C          -1.0266  -16.2423  -44.0477 C.2       5 UNK         0.5000 
     46 O          -1.1731  -15.6805  -45.1365 O.2       5 UNK        -0.5000 
     47 CA         -2.2152  -16.3149  -43.0743 C.3       5 UNK         0.1400 
     48 CB         -1.7983  -16.4741  -41.5949 C.3       5 UNK        -0.1800 
     49 N          -3.0034  -15.1011  -43.2538 N.am      5 UNK        -0.5000 
     50 C          -4.2702  -14.9049  -42.8755 C.2       4 UNK         0.5000 
     51 O          -4.9577  -15.7642  -42.3214 O.2       4 UNK        -0.5000 
     52 CA         -4.8624  -13.5107  -43.1829 C.3       4 UNK         0.1400 
     53 CB         -6.0472  -13.1445  -42.2645 C.3       4 UNK        -0.1800 
     54 N          -3.8565  -12.4382  -43.1958 N.am      4 UNK        -0.5000 
     55 C          -3.0992  -12.0122  -42.1739 C.2       3 UNK         0.5000 
     56 O          -3.1425  -12.4879  -41.0382 O.2       3 UNK        -0.5000 
     57 CA         -2.0981  -10.8831  -42.5022 C.3       3 UNK         0.1400 
     58 CB         -1.5956  -10.1586  -41.2405 C.3       3 UNK        -0.1800 
     59 N          -0.9395  -11.3822  -43.2467 N.am      3 UNK        -0.5000 
     60 C          -0.9432  -11.7622  -44.5305 C.2       2 UNK         0.5000 
     61 O          -1.9512  -11.7082  -45.2402 O.2       2 UNK        -0.5000 
     62 CA          0.3797  -12.2983  -45.1180 C.3       2 UNK         0.1400 
     63 CB          1.3110  -12.9210  -44.0583 C.3       2 UNK        -0.1800 
     64 N           0.0576  -13.3101  -46.1187 N.am      2 UNK        -0.5000 
     65 C           0.2103  -13.1911  -47.4435 C.2       1 UNK         0.5000 
     66 O           0.8413  -12.2847  -47.9888 O.2       1 UNK        -0.5000 
     67 C           0.1676  -20.9928  -46.6239 C.2       11 UNK         0.5000 
     68 O          -0.7355  -20.6530  -47.3832 O.2       11 UNK        -0.5000 
     69 N           0.0747  -20.9185  -45.2878 N.am      12 UNK        -0.5000 
     70 CA         -1.0717  -20.3764  -44.5540 C.3       12 UNK         0.1400 
     71 CB         -0.7124  -20.2443  -43.0671 C.3       12 UNK        -0.1800 
     72 C          -2.3580  -21.2019  -44.7329 C.2       12 UNK         0.5000 
     73 O          -3.4484  -20.6328  -44.7093 O.2       12 UNK        -0.5000 
     74 N          -2.2101  -22.5177  -44.9349 N.am      13 UNK        -0.5000 
     75 CA         -3.3001  -23.4295  -45.2778 C.3       13 UNK         0.1400 
     76 CB         -2.8116  -24.8781  -45.1268 C.3       13 UNK        -0.1800 
     77 C          -3.8566  -23.1885  -46.6954 C.2       13 UNK         0.5000 
     78 O          -5.0561  -23.3667  -46.9101 O.2       13 UNK        -0.5000 
     79 N          -2.9844  -22.7913  -47.6324 N.am      14 UNK        -0.5000 
     80 CA         -3.3456  -22.4876  -49.0165 C.3       14 UNK         0.1400 
     81 CB         -2.1386  -22.7570  -49.9283 C.3       14 UNK        -0.1800 
     82 C          -3.8378  -21.0417  -49.1993 C.2       14 UNK         0.5000 
     83 O          -4.6584  -20.8088  -50.0864 O.2       14 UNK        -0.5000 
     84 N          -3.3123  -20.1098  -48.3898 N.am      15 UNK        -0.5000 
     85 CA         -3.4946  -18.6557  -48.4388 C.3       15 UNK         0.1400 
     86 CB         -2.9905  -18.0399  -47.1245 C.3       15 UNK        -0.1800 
     87 C          -4.9332  -18.1999  -48.7419 C.2       15 UNK         0.5000 
     88 O          -5.8342  -18.4355  -47.9353 O.2       15 UNK        -0.5000 
     89 N          -5.1146  -17.6061  -49.9306 N.am      16 UNK        -0.5000 
     90 CA         -6.3586  -17.1360  -50.5591 C.3       16 UNK         0.1400 
     91 CB         -7.0279  -16.0342  -49.7157 C.3       16 UNK        -0.1800 
     92 C          -7.3727  -18.2389  -50.9378 C.2       16 UNK         0.5000 
     93 O          -8.0872  -18.0763  -51.9275 O.2       16 UNK        -0.5000 
     94 N          -7.4268  -19.3294  -50.1657 N.am      17 UNK        -0.5000 
     95 CA         -8.3349  -20.4598  -50.3468 C.3       17 UNK         0.1400 
     96 CB         -8.3186  -21.3192  -49.0728 C.3       17 UNK        -0.1800 
     97 C          -8.0029  -21.3202  -51.5791 C.2       17 UNK         0.5000 
     98 O          -8.9188  -21.7301  -52.2937 O.2       17 UNK        -0.5000 
     99 N          -6.7096  -21.5899  -51.7936 N.am      18 UNK        -0.5000 
    100 CA        -6.2073  -22.4845  -52.8386 C.3       18 UNK         0.1400 
    101 CB        -6.0636  -23.9027  -52.2587 C.3       18 UNK        -0.1800 
    102 C         -4.8795  -22.0137  -53.4565 C.2       18 UNK         0.5000 
    103 O         -4.3963  -22.6695  -54.3788 O.2       18 UNK        -0.5000 
    104 N         -4.3062  -20.9077  -52.9587 N.am      19 UNK        -0.5000 
    105 CA        -2.9778  -20.3664  -53.2814 C.3       19 UNK         0.1400 
    106 CB        -2.7785  -19.0640  -52.4901 C.3       19 UNK        -0.1800 
    107 C         -2.6700  -20.1342  -54.7752 C.2       19 UNK         0.5000 
    108 O         -1.4965  -20.1079  -55.1463 O.2       19 UNK        -0.5000 
    109 N         -3.7120  -19.9887  -55.6054 N.am      20 UNK        -0.5000 
    110 CA        -3.6110  -19.9050  -57.0644 C.3       20 UNK         0.1400 
    111 CB        -4.9830  -19.5231  -57.6405 C.3       20 UNK        -0.1800 
    112 C         -3.0947  -21.2065  -57.7144 C.2       20 UNK         0.5000 
    113 O         -2.4110  -21.1396  -58.7367 O.2       20 UNK        -0.5000 
    114 N         -3.4177  -22.3549  -57.1050 N.am      21 UNK        -0.5000 
    115 CA        -2.9096  -23.6763  -57.4752 C.3       21 UNK         0.1400 
    116 CB        -4.0745  -24.6789  -57.4853 C.3       21 UNK        -0.1800 
    117 C         -1.8185  -24.1272  -56.4893 C.2       21 UNK         0.5000 
    118 O         -0.8024  -24.6792  -56.9118 O.2       21 UNK        -0.5000 
    119 N         -2.0450  -23.8587  -55.1967 N.am      22 UNK        -0.5000 
    120 CA        -1.1537  -24.1350  -54.0605 C.3       22 UNK         0.1400 
    121 C         -0.9854  -25.6437  -53.7011 C.2       22 UNK         0.5000 
    122 N         -1.8449  -26.5342  -54.1815 N.am      22 UNK        -0.7600 
    123 O         -0.0838  -26.0167  -52.9559 O.2       22 UNK        -0.5000 
    124 C124        0.1945  -23.3624  -54.1608 C.3       23 UNK        -0.0398 
    125 S125        0.6151  -22.5063  -52.6068 S.3       23 UNK        -0.2404 
    126 C126        1.6650  -21.1684  -53.2477 C.3       23 UNK        -0.0205 
    127 H127       -4.6652  -13.3667  -46.7197 H         1 UNK         0.0600 
    128 H128       -3.8424  -14.8259  -46.1707 H         1 UNK         0.0600 
    129 H129       -4.8305  -14.8699  -47.6357 H         1 UNK         0.0600 
    130 H130       -1.7821  -15.2694  -46.9685 H         1 UNK         0.3000 
    131 H131       -0.6669  -13.8176  -49.2917 H         1 UNK         0.0600 
    132 H132        0.5354  -15.9956  -47.5149 H         1 UNK         0.0800 
    133 H133        1.3572  -15.2496  -48.8549 H         1 UNK         0.0800 
    134 H134        1.3615  -15.8723  -51.0193 H         1 UNK         0.0800 
    135 H135        0.0844  -16.6241  -51.9290 H         1 UNK         0.0800 
    136 H136        0.4330  -18.7951  -52.7939 H         1 UNK         0.1150 
    137 H137        3.5849  -21.2855  -51.3113 H         1 UNK         0.1150 
    138 H138        2.7596  -17.5188  -49.4287 H         1 UNK         0.1150 
    139 H139        5.3344  -19.8965  -49.8086 H         1 UNK         0.0800 
    140 H140        4.6083  -18.8061  -48.6551 H         1 UNK         0.0800 
    141 H141        2.2169  -19.6017  -47.7188 H         1 UNK         0.0800 
    142 H142        2.9076  -20.2412  -46.2507 H         1 UNK         0.0800 
    143 H143        1.2470  -21.8793  -48.2371 H         1 UNK         0.0600 
    144 H144        2.6415  -22.6630  -45.8271 H         1 UNK         0.3000 
    145 H145        0.9287  -25.7344  -45.3564 H         1 UNK         0.0600 
    146 H146        3.2490  -26.6041  -45.5005 H         1 UNK         0.0600 
    147 H147        2.6431  -26.2311  -47.1064 H         1 UNK         0.0600 
    148 H148        3.7786  -25.1374  -46.3254 H         1 UNK         0.0600 
    149 H149        3.1313  -24.4953  -44.0117 H         1 UNK         0.3000 
    150 H150        1.2189  -22.5655  -41.7002 H         1 UNK         0.0600 
    151 H151        1.1694  -24.9005  -40.8091 H         1 UNK         0.0600 
    152 H152        2.4509  -23.9531  -40.0723 H         1 UNK         0.0600 
    153 H153        2.8361  -25.1392  -41.3200 H         1 UNK         0.0600 
    154 H154        3.9896  -22.9647  -41.7888 H         1 UNK         0.3000 
    155 H155        5.2433  -21.1050  -42.1631 H         1 UNK         0.0600 
    156 H156        5.1571  -21.4033  -45.2260 H         1 UNK         0.0600 
    157 H157        5.7175  -22.6302  -44.0950 H         1 UNK         0.0600 
    158 H158        6.6104  -21.1275  -44.2695 H         1 UNK         0.0600 
    159 H159        3.8951  -19.2268  -44.0040 H         1 UNK         0.3000 
    160 H160        4.9213  -16.5014  -42.1783 H         1 UNK         0.0600 
    161 H161        7.1185  -16.5392  -43.3563 H         1 UNK         0.0600 
    162 H162        6.0183  -15.4040  -44.1189 H         1 UNK         0.0600 
    163 H163        6.3227  -16.9745  -44.8636 H         1 UNK         0.0600 
    164 H164        3.9011  -16.6664  -44.8638 H         1 UNK         0.3000 
    165 H165        1.5104  -15.7328  -44.8199 H         1 UNK         0.0600 
    166 H166        0.4825  -17.8038  -46.0544 H         1 UNK         0.0600 
    167 H167        2.2236  -17.6088  -46.1859 H         1 UNK         0.0600 
    168 H168        1.5541  -18.7733  -45.0516 H         1 UNK         0.0600 
    169 H169        0.2205  -17.1506  -42.7118 H         1 UNK         0.3000 
    170 H170       -2.8196  -17.1743  -43.3713 H         1 UNK         0.0600 
    171 H171       -1.2687  -17.4120  -41.4254 H         1 UNK         0.0600 
    172 H172       -1.1506  -15.6582  -41.2711 H         1 UNK         0.0600 
    173 H173       -2.6667  -16.4844  -40.9364 H         1 UNK         0.0600 
    174 H174       -2.5317  -14.3634  -43.7575 H         1 UNK         0.3000 
    175 H175       -5.2498  -13.5714  -44.2005 H         1 UNK         0.0600 
    176 H176       -5.7586  -13.1363  -41.2131 H         1 UNK         0.0600 
    177 H177       -6.4478  -12.1612  -42.5106 H         1 UNK         0.0600 
    178 H178       -6.8623  -13.8610  -42.3727 H         1 UNK         0.0600 
    179 H179       -3.6626  -12.0287  -44.1040 H         1 UNK         0.3000 
    180 H180       -2.6198  -10.1472  -43.1180 H         1 UNK         0.0600 
    181 H181       -0.9584   -9.3128  -41.4998 H         1 UNK         0.0600 
    182 H182       -1.0228  -10.8230  -40.5923 H         1 UNK         0.0600 
    183 H183       -2.4298   -9.7679  -40.6565 H         1 UNK         0.0600 
    184 H184       -0.0840  -11.4785  -42.7194 H         1 UNK         0.3000 
    185 H185        0.8942  -11.4532  -45.5791 H         1 UNK         0.0600 
    186 H186        2.1901  -13.3648  -44.5257 H         1 UNK         0.0600 
    187 H187        1.6755  -12.1698  -43.3570 H         1 UNK         0.0600 
    188 H188        0.8092  -13.7003  -43.4834 H         1 UNK         0.0600 
    189 H189       -0.4991  -14.0911  -45.7824 H         1 UNK         0.3000 
    190 H190        0.8819  -21.1812  -44.7274 H         1 UNK         0.3000 
    191 H191       -1.2673  -19.3755  -44.9420 H         1 UNK         0.0600 
    192 H192       -1.5218  -19.7692  -42.5118 H         1 UNK         0.0600 
    193 H193        0.1820  -19.6374  -42.9258 H         1 UNK         0.0600 
    194 H194       -0.5315  -21.2180  -42.6128 H         1 UNK         0.0600 
    195 H195       -1.2844  -22.9212  -44.8426 H         1 UNK         0.3000 
    196 H196       -4.1147  -23.2691  -44.5684 H         1 UNK         0.0600 
    197 H197       -1.9788  -25.0939  -45.7970 H         1 UNK         0.0600 
    198 H198       -2.4801  -25.0777  -44.1076 H         1 UNK         0.0600 
    199 H199       -3.6097  -25.5858  -45.3544 H         1 UNK         0.0600 
    200 H200       -2.0167  -22.6521  -47.3736 H         1 UNK         0.3000 
    201 H201       -4.1530  -23.1529  -49.3291 H         1 UNK         0.0600 
    202 H202       -1.2967  -22.1051  -49.6912 H         1 UNK         0.0600 
    203 H203       -2.3970  -22.5909  -50.9744 H         1 UNK         0.0600 
    204 H204       -1.7969  -23.7883  -49.8388 H         1 UNK         0.0600 
    205 H205       -2.5738  -20.4196  -47.7658 H         1 UNK         0.3000 
    206 H206       -2.8486  -18.2930  -49.2378 H         1 UNK         0.0600 
    207 H207       -1.9232  -18.2132  -46.9895 H         1 UNK         0.0600 
    208 H208       -3.1429  -16.9629  -47.1155 H         1 UNK         0.0600 
    209 H209       -3.5155  -18.4483  -46.2612 H         1 UNK         0.0600 
    210 H210       -4.2976  -17.4979  -50.5139 H         1 UNK         0.3000 
    211 H211       -6.0499  -16.6780  -51.5002 H         1 UNK         0.0600 
    212 H212       -7.9041  -15.6323  -50.2261 H         1 UNK         0.0600 
    213 H213       -6.3457  -15.2022  -49.5432 H         1 UNK         0.0600 
    214 H214       -7.3603  -16.4054  -48.7461 H         1 UNK         0.0600 
    215 H215       -6.8133  -19.3573  -49.3575 H         1 UNK         0.3000 
    216 H216       -9.3446  -20.0651  -50.4780 H         1 UNK         0.0600 
    217 H217       -7.3219  -21.7115  -48.8640 H         1 UNK         0.0600 
    218 H218       -8.9948  -22.1700  -49.1651 H         1 UNK         0.0600 
    219 H219       -8.6382  -20.7423  -48.2047 H         1 UNK         0.0600 
    220 H220       -6.0245  -21.2407  -51.1244 H         1 UNK         0.3000 
    221 H221       -6.9203  -22.5197  -53.6646 H         1 UNK         0.0600 
    222 H222       -7.0182  -24.2759  -51.8875 H         1 UNK         0.0600 
    223 H223       -5.3511  -23.9262  -51.4335 H         1 UNK         0.0600 
    224 H224       -5.7148  -24.6068  -53.0153 H         1 UNK         0.0600 
    225 H225       -4.7614  -20.4721  -52.1682 H         1 UNK         0.3000 
    226 H226       -2.2423  -21.0911  -52.9279 H         1 UNK         0.0600 
    227 H227       -3.5848  -18.3543  -52.6773 H         1 UNK         0.0600 
    228 H228       -2.7376  -19.2608  -51.4203 H         1 UNK         0.0600 
    229 H229       -1.8442  -18.5713  -52.7578 H         1 UNK         0.0600 
    230 H230       -4.6411  -20.0186  -55.2128 H         1 UNK         0.3000 
    231 H231       -2.9035  -19.1099  -57.3086 H         1 UNK         0.0600 
    232 H232       -5.7403  -20.2728  -57.4075 H         1 UNK         0.0600 
    233 H233       -4.9377  -19.4284  -58.7262 H         1 UNK         0.0600 
    234 H234       -5.3243  -18.5659  -57.2459 H         1 UNK         0.0600 
    235 H235       -3.9503  -22.3081  -56.2425 H         1 UNK         0.3000 
    236 H236       -2.4720  -23.6539  -58.4754 H         1 UNK         0.0600 
    237 H237       -4.5637  -24.7425  -56.5124 H         1 UNK         0.0600 
    238 H238       -4.8288  -24.3945  -58.2192 H         1 UNK         0.0600 
    239 H239       -3.7271  -25.6792  -57.7469 H         1 UNK         0.0600 
    240 H240       -2.9334  -23.4303  -54.9432 H         1 UNK         0.3000 
    241 H241       -1.7101  -23.7319  -53.2137 H         1 UNK         0.0600 
    242 H242       -1.7381  -27.5071  -53.9404 H         1 UNK         0.3800 
    243 H243       -2.5966  -26.2462  -54.7866 H         1 UNK         0.3800 
    244 H244        0.1337  -22.6045  -54.9431 H         1 UNK         0.0800 
    245 H245        1.0185  -24.0151  -54.4541 H         1 UNK         0.0800 
    246 H246        2.5915  -21.5897  -53.6407 H         1 UNK         0.0800 
    247 H247        1.1660  -20.6792  -54.0861 H         1 UNK         0.0800 
@<TRIPOS>BOND
     1    1    2 1    
     2    1  127 1    
     3    1  128 1    
     4    1  129 1    
     5    2    3 2    
     6    2    4 am   BACKBONE|DICT|INTERRES
     7    4    5 1    
     8    4  130 1    
     9    5    6 1    
    10    5   65 1    
    11    5  131 1    
    12    6    7 1    
    13    6  132 1    
    14    6  133 1    
    15    7    8 1    
    16    8    9 1    
    17    8  134 1    
    18    8  135 1    
    19    9   10 ar   
    20    9   14 ar   
    21   10   11 ar   
    22   10  136 1    
    23   11   12 ar   
    24   11  126 1    
    25   12   13 ar   
    26   12  137 1    
    27   13   14 ar   
    28   13   15 1    
    29   14  138 1    
    30   15   16 1    
    31   15  139 1    
    32   15  140 1    
    33   16   17 1    
    34   17   18 1    
    35   17  141 1    
    36   17  142 1    
    37   18   19 1    
    38   18   67 1    
    39   18  143 1    
    40   19   20 am   BACKBONE|DICT|INTERRES
    41   19  144 1    
    42   20   21 2    
    43   20   22 1    
    44   22   23 1    
    45   22   24 1    
    46   22  145 1    
    47   23  146 1    
    48   23  147 1    
    49   23  148 1    
    50   24   25 am   BACKBONE|DICT|INTERRES
    51   24  149 1    
    52   25   26 2    
    53   25   27 1    
    54   27   28 1    
    55   27   29 1    
    56   27  150 1    
    57   28  151 1    
    58   28  152 1    
    59   28  153 1    
    60   29   30 am   BACKBONE|DICT|INTERRES
    61   29  154 1    
    62   30   31 2    
    63   30   32 1    
    64   32   33 1    
    65   32   34 1    
    66   32  155 1    
    67   33  156 1    
    68   33  157 1    
    69   33  158 1    
    70   34   35 am   BACKBONE|DICT|INTERRES
    71   34  159 1    
    72   35   36 2    
    73   35   37 1    
    74   37   38 1    
    75   37   39 1    
    76   37  160 1    
    77   38  161 1    
    78   38  162 1    
    79   38  163 1    
    80   39   40 am   BACKBONE|DICT|INTERRES
    81   39  164 1    
    82   40   41 2    
    83   40   42 1    
    84   42   43 1    
    85   42   44 1    
    86   42  165 1    
    87   43  166 1    
    88   43  167 1    
    89   43  168 1    
    90   44   45 am   BACKBONE|DICT|INTERRES
    91   44  169 1    
    92   45   46 2    
    93   45   47 1    
    94   47   48 1    
    95   47   49 1    
    96   47  170 1    
    97   48  171 1    
    98   48  172 1    
    99   48  173 1    
   100   49   50 am   BACKBONE|DICT|INTERRES
   101   49  174 1    
   102   50   51 2    
   103   50   52 1    
   104   52   53 1    
   105   52   54 1    
   106   52  175 1    
   107   53  176 1    
   108   53  177 1    
   109   53  178 1    
   110   54   55 am   BACKBONE|DICT|INTERRES
   111   54  179 1    
   112   55   56 2    
   113   55   57 1    
   114   57   58 1    
   115   57   59 1    
   116   57  180 1    
   117   58  181 1    
   118   58  182 1    
   119   58  183 1    
   120   59   60 am   BACKBONE|DICT|INTERRES
   121   59  184 1    
   122   60   61 2    
   123   60   62 1    
   124   62   63 1    
   125   62   64 1    
   126   62  185 1    
   127   63  186 1    
   128   63  187 1    
   129   63  188 1    
   130   64   65 am   BACKBONE|DICT|INTERRES
   131   64  189 1    
   132   65   66 2    
   133   67   68 2    
   134   67   69 am   BACKBONE|DICT|INTERRES
   135   69   70 1    
   136   69  190 1    
   137   70   71 1    
   138   70   72 1    
   139   70  191 1    
   140   71  192 1    
   141   71  193 1    
   142   71  194 1    
   143   72   73 2    
   144   72   74 am   BACKBONE|DICT|INTERRES
   145   74   75 1    
   146   74  195 1    
   147   75   76 1    
   148   75   77 1    
   149   75  196 1    
   150   76  197 1    
   151   76  198 1    
   152   76  199 1    
   153   77   78 2    
   154   77   79 am   BACKBONE|DICT|INTERRES
   155   79   80 1    
   156   79  200 1    
   157   80   81 1    
   158   80   82 1    
   159   80  201 1    
   160   81  202 1    
   161   81  203 1    
   162   81  204 1    
   163   82   83 2    
   164   82   84 am   BACKBONE|DICT|INTERRES
   165   84   85 1    
   166   84  205 1    
   167   85   86 1    
   168   85   87 1    
   169   85  206 1    
   170   86  207 1    
   171   86  208 1    
   172   86  209 1    
   173   87   88 2    
   174   87   89 am   BACKBONE|DICT|INTERRES
   175   89   90 1    
   176   89  210 1    
   177   90   91 1    
   178   90   92 1    
   179   90  211 1    
   180   91  212 1    
   181   91  213 1    
   182   91  214 1    
   183   92   93 2    
   184   92   94 am   BACKBONE|DICT|INTERRES
   185   94   95 1    
   186   94  215 1    
   187   95   96 1    
   188   95   97 1    
   189   95  216 1    
   190   96  217 1    
   191   96  218 1    
   192   96  219 1    
   193   97   98 2    
   194   97   99 am   BACKBONE|DICT|INTERRES
   195   99  100 1    
   196   99  220 1    
   197  100  101 1    
   198  100  102 1    
   199  100  221 1    
   200  101  222 1    
   201  101  223 1    
   202  101  224 1    
   203  102  103 2    
   204  102  104 am   BACKBONE|DICT|INTERRES
   205  104  105 1    
   206  104  225 1    
   207  105  106 1    
   208  105  107 1    
   209  105  226 1    
   210  106  227 1    
   211  106  228 1    
   212  106  229 1    
   213  107  108 2    
   214  107  109 am   BACKBONE|DICT|INTERRES
   215  109  110 1    
   216  109  230 1    
   217  110  111 1    
   218  110  112 1    
   219  110  231 1    
   220  111  232 1    
   221  111  233 1    
   222  111  234 1    
   223  112  113 2    
   224  112  114 am   BACKBONE|DICT|INTERRES
   225  114  115 1    
   226  114  235 1    
   227  115  116 1    
   228  115  117 1    
   229  115  236 1    
   230  116  237 1    
   231  116  238 1    
   232  116  239 1    
   233  117  118 2    
   234  117  119 am   BACKBONE|DICT|INTERRES
   235  119  120 1    
   236  119  240 1    
   237  120  121 1    
   238  120  124 1    
   239  120  241 1    
   240  121  122 am   BACKBONE|DICT|INTERRES
   241  121  123 2    
   242  122  242 1    
   243  122  243 1    
   244  124  125 1    
   245  124  244 1    
   246  124  245 1    
   247  125  126 1    
   248  126  246 1    
   249  126  247 1    
@<TRIPOS>SUBSTRUCTURE
     1 UNK         1 GROUP             0       ****    0 ROOT    
