@<TRIPOS>MOLECULE
3R540
247   249    1
SMALL
USER_CHARGES


@<TRIPOS>ATOM
      1 CA          1.8596  -12.7759  -51.7098 C.3       0 UNK        -0.1800 
      2 C           2.7268  -12.4732  -50.4956 C.2       0 UNK         0.5000 
      3 O           3.9454  -12.3544  -50.6246 O.2       0 UNK        -0.5000 
      4 N           2.1060  -12.3565  -49.3197 N.am      1 UNK        -0.5000 
      5 CA          2.7527  -12.0965  -48.0344 C.3       1 UNK         0.1400 
      6 C6          3.3960  -13.3540  -47.3787 C.3       23 UNK        -0.0398 
      7 S7          2.4462  -14.9110  -47.5555 S.3       23 UNK        -0.2404 
      8 C8          3.4638  -15.7525  -48.8151 C.3       23 UNK        -0.0205 
      9 C9          2.7182  -16.8588  -49.5471 C.ar      23 UNK        -0.0193 
     10 C10         1.6570  -16.5373  -50.3973 C.ar      23 UNK        -0.1150 
     11 C11         1.0126  -17.5298  -51.1406 C.ar      23 UNK        -0.0193 
     12 C12         1.4401  -18.8560  -51.0345 C.ar      23 UNK        -0.1150 
     13 C13         2.5037  -19.1916  -50.1914 C.ar      23 UNK        -0.0193 
     14 C14         3.1327  -18.1905  -49.4428 C.ar      23 UNK        -0.1150 
     15 C15         3.0115  -20.6246  -50.1321 C.3       23 UNK        -0.0205 
     16 S16         2.4391  -21.5014  -48.6470 S.3       23 UNK        -0.2404 
     17 C17         0.6806  -21.7807  -49.0407 C.3       23 UNK        -0.0398 
     18 CA          0.0446  -22.8209  -48.0893 C.3       11 UNK         0.1400 
     19 N           0.0059  -22.3645  -46.6982 N.am      11 UNK        -0.5000 
     20 C          -0.3299  -23.1252  -45.6481 C.2       10 UNK         0.5000 
     21 O          -0.6005  -24.3224  -45.7287 O.2       10 UNK        -0.5000 
     22 CA         -0.4367  -22.4171  -44.2871 C.3       10 UNK         0.1400 
     23 CB          0.9414  -22.2746  -43.6234 C.3       10 UNK        -0.1800 
     24 N          -1.0705  -21.1046  -44.4088 N.am      10 UNK        -0.5000 
     25 C          -2.3642  -20.9189  -44.7058 C.2       9 UNK         0.5000 
     26 O          -3.1696  -21.8380  -44.8555 O.2       9 UNK        -0.5000 
     27 CA         -2.8241  -19.4648  -44.9099 C.3       9 UNK         0.1400 
     28 CB         -3.1319  -18.7952  -43.5625 C.3       9 UNK        -0.1800 
     29 N          -1.8392  -18.6655  -45.6391 N.am      9 UNK        -0.5000 
     30 C          -1.5443  -18.8376  -46.9368 C.2       8 UNK         0.5000 
     31 O          -2.0783  -19.6858  -47.6494 O.2       8 UNK        -0.5000 
     32 CA         -0.4428  -17.9385  -47.5293 C.3       8 UNK         0.1400 
     33 CB         -1.0403  -16.5758  -47.9147 C.3       8 UNK        -0.1800 
     34 N           0.6878  -17.7129  -46.6289 N.am      8 UNK        -0.5000 
     35 C           1.3858  -18.6455  -45.9650 C.2       7 UNK         0.5000 
     36 O           1.1943  -19.8537  -46.0754 O.2       7 UNK        -0.5000 
     37 CA          2.4113  -18.1400  -44.9327 C.3       7 UNK         0.1400 
     38 CB          3.8203  -18.0918  -45.5390 C.3       7 UNK        -0.1800 
     39 N           2.0708  -16.8263  -44.3792 N.am      7 UNK        -0.5000 
     40 C           0.9511  -16.5331  -43.7066 C.2       6 UNK         0.5000 
     41 O           0.0974  -17.3760  -43.4212 O.2       6 UNK        -0.5000 
     42 CA          0.7361  -15.0509  -43.3345 C.3       6 UNK         0.1400 
     43 CB         -0.6223  -14.8190  -42.6491 C.3       6 UNK        -0.1800 
     44 N           1.7878  -14.4923  -42.4830 N.am      6 UNK        -0.5000 
     45 C           3.0404  -14.1952  -42.8557 C.2       5 UNK         0.5000 
     46 O           3.5112  -14.4636  -43.9625 O.2       5 UNK        -0.5000 
     47 CA          3.8724  -13.4163  -41.8261 C.3       5 UNK         0.1400 
     48 CB          5.2566  -12.9931  -42.3542 C.3       5 UNK        -0.1800 
     49 N           3.1197  -12.2326  -41.4188 N.am      5 UNK        -0.5000 
     50 C           3.1353  -11.6860  -40.1968 C.2       4 UNK         0.5000 
     51 O           3.7978  -12.1372  -39.2614 O.2       4 UNK        -0.5000 
     52 CA          2.2830  -10.4191  -39.9669 C.3       4 UNK         0.1400 
     53 CB          3.1821   -9.1738  -39.9131 C.3       4 UNK        -0.1800 
     54 N           1.2506  -10.2033  -40.9822 N.am      4 UNK        -0.5000 
     55 C           0.1363  -10.9343  -41.1205 C.2       3 UNK         0.5000 
     56 O          -0.1718  -11.8570  -40.3659 O.2       3 UNK        -0.5000 
     57 CA         -0.7765  -10.5928  -42.3181 C.3       3 UNK         0.1400 
     58 CB         -1.9199   -9.6702  -41.8693 C.3       3 UNK        -0.1800 
     59 N          -0.0893   -9.9774  -43.4609 N.am      3 UNK        -0.5000 
     60 C           0.9258  -10.5215  -44.1460 C.2       2 UNK         0.5000 
     61 O           1.4566  -11.5914  -43.8457 O.2       2 UNK        -0.5000 
     62 CA          1.4790   -9.6896  -45.3159 C.3       2 UNK         0.1400 
     63 CB          2.3825   -8.5650  -44.7838 C.3       2 UNK        -0.1800 
     64 N           2.2538  -10.4984  -46.2576 N.am      2 UNK        -0.5000 
     65 C           1.7408  -11.3851  -47.1200 C.2       1 UNK         0.5000 
     66 O           0.5337  -11.6165  -47.2375 O.2       1 UNK        -0.5000 
     67 C          -1.3487  -23.2586  -48.5824 C.2       11 UNK         0.5000 
     68 O          -1.4584  -24.3234  -49.1877 O.2       11 UNK        -0.5000 
     69 N          -2.3916  -22.4737  -48.2729 N.am      12 UNK        -0.5000 
     70 CA         -3.7889  -22.8081  -48.5561 C.3       12 UNK         0.1400 
     71 CB         -4.6924  -21.6126  -48.2228 C.3       12 UNK        -0.1800 
     72 C          -4.2577  -24.0740  -47.8181 C.2       12 UNK         0.5000 
     73 O          -4.9059  -24.9231  -48.4286 O.2       12 UNK        -0.5000 
     74 N          -3.8909  -24.2063  -46.5349 N.am      13 UNK        -0.5000 
     75 CA         -4.1659  -25.3903  -45.7184 C.3       13 UNK         0.1400 
     76 CB         -3.7739  -25.1226  -44.2578 C.3       13 UNK        -0.1800 
     77 C          -3.4720  -26.6556  -46.2570 C.2       13 UNK         0.5000 
     78 O          -4.1201  -27.6959  -46.3770 O.2       13 UNK        -0.5000 
     79 N          -2.1888  -26.5331  -46.6269 N.am      14 UNK        -0.5000 
     80 CA         -1.3920  -27.5908  -47.2562 C.3       14 UNK         0.1400 
     81 CB          0.0699  -27.1331  -47.3670 C.3       14 UNK        -0.1800 
     82 C          -1.9337  -28.0174  -48.6347 C.2       14 UNK         0.5000 
     83 O          -1.8652  -29.1980  -48.9772 O.2       14 UNK        -0.5000 
     84 N          -2.5047  -27.0597  -49.3763 N.am      15 UNK        -0.5000 
     85 CA         -3.1890  -27.2615  -50.6537 C.3       15 UNK         0.1400 
     86 CB         -3.1193  -25.9555  -51.4628 C.3       15 UNK        -0.1800 
     87 C          -4.6461  -27.7571  -50.5034 C.2       15 UNK         0.5000 
     88 O          -5.3603  -27.8124  -51.5043 O.2       15 UNK        -0.5000 
     89 N          -5.0678  -28.1077  -49.2782 N.am      16 UNK        -0.5000 
     90 CA         -6.3782  -28.6512  -48.9062 C.3       16 UNK         0.1400 
     91 CB         -6.6158  -30.0269  -49.5647 C.3       16 UNK        -0.1800 
     92 C          -7.5318  -27.6538  -49.1359 C.2       16 UNK         0.5000 
     93 O          -8.5809  -28.0247  -49.6651 O.2       16 UNK        -0.5000 
     94 N          -7.3032  -26.4013  -48.7182 N.am      17 UNK        -0.5000 
     95 CA         -8.2079  -25.2480  -48.7768 C.3       17 UNK         0.1400 
     96 CB         -9.5372  -25.5204  -48.0410 C.3       17 UNK        -0.1800 
     97 C          -8.4048  -24.6798  -50.1967 C.2       17 UNK         0.5000 
     98 O          -9.3493  -23.9208  -50.4240 O.2       17 UNK        -0.5000 
     99 N          -7.4931  -25.0152  -51.1188 N.am      18 UNK        -0.5000 
    100 CA        -7.3652  -24.3715  -52.4251 C.3       18 UNK         0.1400 
    101 CB        -6.5903  -25.3044  -53.3673 C.3       18 UNK        -0.1800 
    102 C         -6.6629  -23.0043  -52.2992 C.2       18 UNK         0.5000 
    103 O         -6.1093  -22.6810  -51.2457 O.2       18 UNK        -0.5000 
    104 N         -6.6881  -22.2262  -53.3888 N.am      19 UNK        -0.5000 
    105 CA        -6.1406  -20.8676  -53.4559 C.3       19 UNK         0.1400 
    106 CB        -6.5774  -20.2179  -54.7784 C.3       19 UNK        -0.1800 
    107 C         -4.6094  -20.7785  -53.3027 C.2       19 UNK         0.5000 
    108 O         -4.1141  -19.7134  -52.9405 O.2       19 UNK        -0.5000 
    109 N         -3.8885  -21.8696  -53.6114 N.am      20 UNK        -0.5000 
    110 CA        -2.4271  -22.0208  -53.5102 C.3       20 UNK         0.1400 
    111 CB        -1.9975  -22.0903  -52.0313 C.3       20 UNK        -0.1800 
    112 C         -1.6297  -20.9655  -54.3115 C.2       20 UNK         0.5000 
    113 O         -0.5340  -20.5751  -53.9063 O.2       20 UNK        -0.5000 
    114 N         -2.2183  -20.5192  -55.4316 N.am      21 UNK        -0.5000 
    115 CA        -1.7537  -19.4632  -56.3384 C.3       21 UNK         0.1400 
    116 CB        -0.3980  -19.8332  -56.9769 C.3       21 UNK        -0.1800 
    117 C         -1.7498  -18.0435  -55.7257 C.2       21 UNK         0.5000 
    118 O         -1.1830  -17.1327  -56.3328 O.2       21 UNK        -0.5000 
    119 N         -2.3893  -17.8554  -54.5632 N.am      22 UNK        -0.5000 
    120 CA        -2.5845  -16.5449  -53.9282 C.3       22 UNK         0.1400 
    121 C         -3.6655  -15.6978  -54.6570 C.2       22 UNK         0.5000 
    122 N         -3.5399  -14.3775  -54.6423 N.am      22 UNK        -0.7600 
    123 O         -4.6361  -16.2188  -55.2031 O.2       22 UNK        -0.5000 
    124 C124       -2.9284  -16.6760  -52.4201 C.3       23 UNK        -0.0398 
    125 S125       -1.7383  -17.6056  -51.3842 S.3       23 UNK        -0.2404 
    126 C126       -0.1197  -17.1615  -52.0840 C.3       23 UNK        -0.0205 
    127 H127        2.1973  -13.6935  -52.1919 H         1 UNK         0.0600 
    128 H128        1.9289  -11.9635  -52.4331 H         1 UNK         0.0600 
    129 H129        0.8113  -12.9024  -51.4376 H         1 UNK         0.0600 
    130 H130        1.0986  -12.4315  -49.2548 H         1 UNK         0.3000 
    131 H131        3.5526  -11.3744  -48.2140 H         1 UNK         0.0600 
    132 H132        4.3873  -13.5018  -47.8084 H         1 UNK         0.0800 
    133 H133        3.5795  -13.1850  -46.3165 H         1 UNK         0.0800 
    134 H134        3.8005  -15.0295  -49.5581 H         1 UNK         0.0800 
    135 H135        4.3676  -16.1386  -48.3423 H         1 UNK         0.0800 
    136 H136        1.3413  -15.5076  -50.4856 H         1 UNK         0.1150 
    137 H137        0.9506  -19.6215  -51.6213 H         1 UNK         0.1150 
    138 H138        3.9635  -18.4481  -48.8012 H         1 UNK         0.1150 
    139 H139        2.7143  -21.1787  -51.0238 H         1 UNK         0.0800 
    140 H140        4.1023  -20.6172  -50.1325 H         1 UNK         0.0800 
    141 H141        0.6179  -22.1225  -50.0749 H         1 UNK         0.0800 
    142 H142        0.1476  -20.8300  -48.9928 H         1 UNK         0.0800 
    143 H143        0.6734  -23.7137  -48.1111 H         1 UNK         0.0600 
    144 H144        0.2888  -21.4012  -46.5298 H         1 UNK         0.3000 
    145 H145       -1.0598  -23.0351  -43.6372 H         1 UNK         0.0600 
    146 H146        0.8606  -21.8032  -42.6439 H         1 UNK         0.0600 
    147 H147        1.4027  -23.2520  -43.4769 H         1 UNK         0.0600 
    148 H148        1.6264  -21.6791  -44.2269 H         1 UNK         0.0600 
    149 H149       -0.4620  -20.2992  -44.3689 H         1 UNK         0.3000 
    150 H150       -3.7453  -19.4860  -45.4961 H         1 UNK         0.0600 
    151 H151       -3.8950  -19.3515  -43.0167 H         1 UNK         0.0600 
    152 H152       -3.5060  -17.7808  -43.7021 H         1 UNK         0.0600 
    153 H153       -2.2476  -18.7413  -42.9265 H         1 UNK         0.0600 
    154 H154       -1.3119  -17.9904  -45.1001 H         1 UNK         0.3000 
    155 H155       -0.0605  -18.4227  -48.4292 H         1 UNK         0.0600 
    156 H156       -1.3511  -16.0092  -47.0362 H         1 UNK         0.0600 
    157 H157       -0.3239  -15.9686  -48.4661 H         1 UNK         0.0600 
    158 H158       -1.9175  -16.6967  -48.5507 H         1 UNK         0.0600 
    159 H159        0.9591  -16.7497  -46.4932 H         1 UNK         0.3000 
    160 H160        2.4191  -18.8545  -44.1072 H         1 UNK         0.0600 
    161 H161        3.8879  -17.3521  -46.3352 H         1 UNK         0.0600 
    162 H162        4.0970  -19.0581  -45.9632 H         1 UNK         0.0600 
    163 H163        4.5656  -17.8402  -44.7845 H         1 UNK         0.0600 
    164 H164        2.7322  -16.0689  -44.5353 H         1 UNK         0.3000 
    165 H165        0.7319  -14.4875  -44.2705 H         1 UNK         0.0600 
    166 H166       -0.7868  -13.7624  -42.4486 H         1 UNK         0.0600 
    167 H167       -1.4449  -15.1591  -43.2797 H         1 UNK         0.0600 
    168 H168       -0.6909  -15.3525  -41.7003 H         1 UNK         0.0600 
    169 H169        1.5011  -14.2280  -41.5516 H         1 UNK         0.3000 
    170 H170        4.0147  -14.0811  -40.9716 H         1 UNK         0.0600 
    171 H171        5.8402  -13.8610  -42.6633 H         1 UNK         0.0600 
    172 H172        5.1698  -12.3287  -43.2149 H         1 UNK         0.0600 
    173 H173        5.8301  -12.4735  -41.5865 H         1 UNK         0.0600 
    174 H174        2.5166  -11.8392  -42.1362 H         1 UNK         0.3000 
    175 H175        1.7916  -10.5285  -38.9978 H         1 UNK         0.0600 
    176 H176        3.6921   -9.0052  -40.8625 H         1 UNK         0.0600 
    177 H177        2.6049   -8.2795  -39.6773 H         1 UNK         0.0600 
    178 H178        3.9478   -9.2762  -39.1429 H         1 UNK         0.0600 
    179 H179        1.4203   -9.4656  -41.6494 H         1 UNK         0.3000 
    180 H180       -1.2169  -11.5259  -42.6708 H         1 UNK         0.0600 
    181 H181       -1.5473   -8.6998  -41.5386 H         1 UNK         0.0600 
    182 H182       -2.4742  -10.1093  -41.0387 H         1 UNK         0.0600 
    183 H183       -2.6316   -9.5003  -42.6775 H         1 UNK         0.0600 
    184 H184       -0.4483   -9.0821  -43.7601 H         1 UNK         0.3000 
    185 H185        0.6384   -9.2445  -45.8523 H         1 UNK         0.0600 
    186 H186        1.8356   -7.9020  -44.1122 H         1 UNK         0.0600 
    187 H187        3.2352   -8.9613  -44.2304 H         1 UNK         0.0600 
    188 H188        2.7675   -7.9500  -45.5975 H         1 UNK         0.0600 
    189 H189        3.2559  -10.3880  -46.2092 H         1 UNK         0.3000 
    190 H190       -2.2236  -21.5756  -47.8269 H         1 UNK         0.3000 
    191 H191       -3.8771  -23.0042  -49.6254 H         1 UNK         0.0600 
    192 H192       -4.6212  -21.3309  -47.1722 H         1 UNK         0.0600 
    193 H193       -5.7371  -21.8440  -48.4346 H         1 UNK         0.0600 
    194 H194       -4.4263  -20.7425  -48.8234 H         1 UNK         0.0600 
    195 H195       -3.3970  -23.4437  -46.0827 H         1 UNK         0.3000 
    196 H196       -5.2430  -25.5676  -45.7486 H         1 UNK         0.0600 
    197 H197       -4.0013  -25.9842  -43.6289 H         1 UNK         0.0600 
    198 H198       -4.3213  -24.2711  -43.8533 H         1 UNK         0.0600 
    199 H199       -2.7094  -24.9138  -44.1553 H         1 UNK         0.0600 
    200 H200       -1.7124  -25.6504  -46.4548 H         1 UNK         0.3000 
    201 H201       -1.4268  -28.4652  -46.6032 H         1 UNK         0.0600 
    202 H202        0.4859  -26.9020  -46.3862 H         1 UNK         0.0600 
    203 H203        0.1659  -26.2427  -47.9888 H         1 UNK         0.0600 
    204 H204        0.6918  -27.9123  -47.8093 H         1 UNK         0.0600 
    205 H205       -2.4570  -26.1016  -49.0449 H         1 UNK         0.3000 
    206 H206       -2.6502  -28.0272  -51.2151 H         1 UNK         0.0600 
    207 H207       -2.0972  -25.5820  -51.5255 H         1 UNK         0.0600 
    208 H208       -3.4589  -26.1136  -52.4859 H         1 UNK         0.0600 
    209 H209       -3.7367  -25.1728  -51.0201 H         1 UNK         0.0600 
    210 H210       -4.4253  -27.9814  -48.5054 H         1 UNK         0.3000 
    211 H211       -6.3375  -28.8144  -47.8283 H         1 UNK         0.0600 
    212 H212       -6.7274  -29.9480  -50.6464 H         1 UNK         0.0600 
    213 H213       -7.5227  -30.4925  -49.1774 H         1 UNK         0.0600 
    214 H214       -5.7901  -30.7087  -49.3612 H         1 UNK         0.0600 
    215 H215       -6.3655  -26.1709  -48.3984 H         1 UNK         0.3000 
    216 H216       -7.6972  -24.4586  -48.2236 H         1 UNK         0.0600 
    217 H217      -10.1114  -24.6010  -47.9212 H         1 UNK         0.0600 
    218 H218       -9.3616  -25.9229  -47.0434 H         1 UNK         0.0600 
    219 H219      -10.1671  -26.2253  -48.5838 H         1 UNK         0.0600 
    220 H220       -6.7387  -25.6262  -50.8404 H         1 UNK         0.3000 
    221 H221       -8.3621  -24.2100  -52.8404 H         1 UNK         0.0600 
    222 H222       -5.5613  -25.4374  -53.0387 H         1 UNK         0.0600 
    223 H223       -7.0543  -26.2898  -53.4173 H         1 UNK         0.0600 
    224 H224       -6.5617  -24.9090  -54.3831 H         1 UNK         0.0600 
    225 H225       -7.1554  -22.5614  -54.2189 H         1 UNK         0.3000 
    226 H226       -6.5769  -20.2934  -52.6357 H         1 UNK         0.0600 
    227 H227       -7.6638  -20.1739  -54.8571 H         1 UNK         0.0600 
    228 H228       -6.2071  -19.1940  -54.8533 H         1 UNK         0.0600 
    229 H229       -6.1990  -20.7671  -55.6414 H         1 UNK         0.0600 
    230 H230       -4.3942  -22.6866  -53.9215 H         1 UNK         0.3000 
    231 H231       -2.1872  -22.9830  -53.9647 H         1 UNK         0.0600 
    232 H232       -0.9341  -22.3117  -51.9409 H         1 UNK         0.0600 
    233 H233       -2.5333  -22.8820  -51.5104 H         1 UNK         0.0600 
    234 H234       -2.1855  -21.1523  -51.5072 H         1 UNK         0.0600 
    235 H235       -3.1232  -20.9079  -55.6560 H         1 UNK         0.3000 
    236 H236       -2.4887  -19.4281  -57.1436 H         1 UNK         0.0600 
    237 H237       -0.1439  -19.1438  -57.7828 H         1 UNK         0.0600 
    238 H238        0.4159  -19.7975  -56.2525 H         1 UNK         0.0600 
    239 H239       -0.4232  -20.8347  -57.4061 H         1 UNK         0.0600 
    240 H240       -2.8510  -18.6360  -54.1083 H         1 UNK         0.3000 
    241 H241       -1.6478  -15.9936  -54.0176 H         1 UNK         0.0600 
    242 H242       -4.2414  -13.8158  -55.0999 H         1 UNK         0.3800 
    243 H243       -2.7572  -13.9217  -54.1990 H         1 UNK         0.3800 
    244 H244       -3.0236  -15.6837  -51.9763 H         1 UNK         0.0800 
    245 H245       -3.9052  -17.1466  -52.2979 H         1 UNK         0.0800 
    246 H246       -0.0932  -16.0910  -52.2918 H         1 UNK         0.0800 
    247 H247        0.0203  -17.6742  -53.0368 H         1 UNK         0.0800 
@<TRIPOS>BOND
     1    1    2 1    
     2    1  127 1    
     3    1  128 1    
     4    1  129 1    
     5    2    3 2    
     6    2    4 am   BACKBONE|DICT|INTERRES
     7    4    5 1    
     8    4  130 1    
     9    5    6 1    
    10    5   65 1    
    11    5  131 1    
    12    6    7 1    
    13    6  132 1    
    14    6  133 1    
    15    7    8 1    
    16    8    9 1    
    17    8  134 1    
    18    8  135 1    
    19    9   10 ar   
    20    9   14 ar   
    21   10   11 ar   
    22   10  136 1    
    23   11   12 ar   
    24   11  126 1    
    25   12   13 ar   
    26   12  137 1    
    27   13   14 ar   
    28   13   15 1    
    29   14  138 1    
    30   15   16 1    
    31   15  139 1    
    32   15  140 1    
    33   16   17 1    
    34   17   18 1    
    35   17  141 1    
    36   17  142 1    
    37   18   19 1    
    38   18   67 1    
    39   18  143 1    
    40   19   20 am   BACKBONE|DICT|INTERRES
    41   19  144 1    
    42   20   21 2    
    43   20   22 1    
    44   22   23 1    
    45   22   24 1    
    46   22  145 1    
    47   23  146 1    
    48   23  147 1    
    49   23  148 1    
    50   24   25 am   BACKBONE|DICT|INTERRES
    51   24  149 1    
    52   25   26 2    
    53   25   27 1    
    54   27   28 1    
    55   27   29 1    
    56   27  150 1    
    57   28  151 1    
    58   28  152 1    
    59   28  153 1    
    60   29   30 am   BACKBONE|DICT|INTERRES
    61   29  154 1    
    62   30   31 2    
    63   30   32 1    
    64   32   33 1    
    65   32   34 1    
    66   32  155 1    
    67   33  156 1    
    68   33  157 1    
    69   33  158 1    
    70   34   35 am   BACKBONE|DICT|INTERRES
    71   34  159 1    
    72   35   36 2    
    73   35   37 1    
    74   37   38 1    
    75   37   39 1    
    76   37  160 1    
    77   38  161 1    
    78   38  162 1    
    79   38  163 1    
    80   39   40 am   BACKBONE|DICT|INTERRES
    81   39  164 1    
    82   40   41 2    
    83   40   42 1    
    84   42   43 1    
    85   42   44 1    
    86   42  165 1    
    87   43  166 1    
    88   43  167 1    
    89   43  168 1    
    90   44   45 am   BACKBONE|DICT|INTERRES
    91   44  169 1    
    92   45   46 2    
    93   45   47 1    
    94   47   48 1    
    95   47   49 1    
    96   47  170 1    
    97   48  171 1    
    98   48  172 1    
    99   48  173 1    
   100   49   50 am   BACKBONE|DICT|INTERRES
   101   49  174 1    
   102   50   51 2    
   103   50   52 1    
   104   52   53 1    
   105   52   54 1    
   106   52  175 1    
   107   53  176 1    
   108   53  177 1    
   109   53  178 1    
   110   54   55 am   BACKBONE|DICT|INTERRES
   111   54  179 1    
   112   55   56 2    
   113   55   57 1    
   114   57   58 1    
   115   57   59 1    
   116   57  180 1    
   117   58  181 1    
   118   58  182 1    
   119   58  183 1    
   120   59   60 am   BACKBONE|DICT|INTERRES
   121   59  184 1    
   122   60   61 2    
   123   60   62 1    
   124   62   63 1    
   125   62   64 1    
   126   62  185 1    
   127   63  186 1    
   128   63  187 1    
   129   63  188 1    
   130   64   65 am   BACKBONE|DICT|INTERRES
   131   64  189 1    
   132   65   66 2    
   133   67   68 2    
   134   67   69 am   BACKBONE|DICT|INTERRES
   135   69   70 1    
   136   69  190 1    
   137   70   71 1    
   138   70   72 1    
   139   70  191 1    
   140   71  192 1    
   141   71  193 1    
   142   71  194 1    
   143   72   73 2    
   144   72   74 am   BACKBONE|DICT|INTERRES
   145   74   75 1    
   146   74  195 1    
   147   75   76 1    
   148   75   77 1    
   149   75  196 1    
   150   76  197 1    
   151   76  198 1    
   152   76  199 1    
   153   77   78 2    
   154   77   79 am   BACKBONE|DICT|INTERRES
   155   79   80 1    
   156   79  200 1    
   157   80   81 1    
   158   80   82 1    
   159   80  201 1    
   160   81  202 1    
   161   81  203 1    
   162   81  204 1    
   163   82   83 2    
   164   82   84 am   BACKBONE|DICT|INTERRES
   165   84   85 1    
   166   84  205 1    
   167   85   86 1    
   168   85   87 1    
   169   85  206 1    
   170   86  207 1    
   171   86  208 1    
   172   86  209 1    
   173   87   88 2    
   174   87   89 am   BACKBONE|DICT|INTERRES
   175   89   90 1    
   176   89  210 1    
   177   90   91 1    
   178   90   92 1    
   179   90  211 1    
   180   91  212 1    
   181   91  213 1    
   182   91  214 1    
   183   92   93 2    
   184   92   94 am   BACKBONE|DICT|INTERRES
   185   94   95 1    
   186   94  215 1    
   187   95   96 1    
   188   95   97 1    
   189   95  216 1    
   190   96  217 1    
   191   96  218 1    
   192   96  219 1    
   193   97   98 2    
   194   97   99 am   BACKBONE|DICT|INTERRES
   195   99  100 1    
   196   99  220 1    
   197  100  101 1    
   198  100  102 1    
   199  100  221 1    
   200  101  222 1    
   201  101  223 1    
   202  101  224 1    
   203  102  103 2    
   204  102  104 am   BACKBONE|DICT|INTERRES
   205  104  105 1    
   206  104  225 1    
   207  105  106 1    
   208  105  107 1    
   209  105  226 1    
   210  106  227 1    
   211  106  228 1    
   212  106  229 1    
   213  107  108 2    
   214  107  109 am   BACKBONE|DICT|INTERRES
   215  109  110 1    
   216  109  230 1    
   217  110  111 1    
   218  110  112 1    
   219  110  231 1    
   220  111  232 1    
   221  111  233 1    
   222  111  234 1    
   223  112  113 2    
   224  112  114 am   BACKBONE|DICT|INTERRES
   225  114  115 1    
   226  114  235 1    
   227  115  116 1    
   228  115  117 1    
   229  115  236 1    
   230  116  237 1    
   231  116  238 1    
   232  116  239 1    
   233  117  118 2    
   234  117  119 am   BACKBONE|DICT|INTERRES
   235  119  120 1    
   236  119  240 1    
   237  120  121 1    
   238  120  124 1    
   239  120  241 1    
   240  121  122 am   BACKBONE|DICT|INTERRES
   241  121  123 2    
   242  122  242 1    
   243  122  243 1    
   244  124  125 1    
   245  124  244 1    
   246  124  245 1    
   247  125  126 1    
   248  126  246 1    
   249  126  247 1    
@<TRIPOS>SUBSTRUCTURE
     1 UNK         1 GROUP             0       ****    0 ROOT    
