@<TRIPOS>MOLECULE
3R540
247   249    1
SMALL
USER_CHARGES


@<TRIPOS>ATOM
      1 CA          9.7302  -12.7100  -47.7088 C.3       0 UNK        -0.1800 
      2 C           8.4159  -12.0122  -47.3872 C.2       0 UNK         0.5000 
      3 O           8.4065  -10.8056  -47.1405 O.2       0 UNK        -0.5000 
      4 N           7.3109  -12.7663  -47.3799 N.am      1 UNK        -0.5000 
      5 CA          5.9496  -12.2647  -47.1730 C.3       1 UNK         0.1400 
      6 C6          4.9647  -13.4055  -46.8095 C.3       23 UNK        -0.0398 
      7 S7          4.9136  -14.7772  -48.0150 S.3       23 UNK        -0.2404 
      8 C8          3.6357  -15.8159  -47.2542 C.3       23 UNK        -0.0205 
      9 C9          3.4045  -17.0826  -48.0595 C.ar      23 UNK        -0.0193 
     10 C10         2.4457  -17.1060  -49.0790 C.ar      23 UNK        -0.1150 
     11 C11         2.2062  -18.2830  -49.7935 C.ar      23 UNK        -0.0193 
     12 C12         2.9550  -19.4246  -49.5057 C.ar      23 UNK        -0.1150 
     13 C13         3.8813  -19.4284  -48.4601 C.ar      23 UNK        -0.0193 
     14 C14         4.1138  -18.2479  -47.7494 C.ar      23 UNK        -0.1150 
     15 C15         4.5937  -20.7193  -48.0777 C.3       23 UNK        -0.0205 
     16 S16         3.6472  -21.6785  -46.8427 S.3       23 UNK        -0.2404 
     17 C17         2.1077  -22.0141  -47.7626 C.3       23 UNK        -0.0398 
     18 CA          1.3652  -23.3006  -47.3424 C.3       11 UNK         0.1400 
     19 N           1.0247  -23.3394  -45.9192 N.am      11 UNK        -0.5000 
     20 C           0.5617  -24.4244  -45.2823 C.2       10 UNK         0.5000 
     21 O           0.4019  -25.5208  -45.8204 O.2       10 UNK        -0.5000 
     22 CA          0.1687  -24.2368  -43.8060 C.3       10 UNK         0.1400 
     23 CB          1.4085  -24.2933  -42.9011 C.3       10 UNK        -0.1800 
     24 N          -0.5484  -22.9819  -43.5732 N.am      10 UNK        -0.5000 
     25 C          -1.7618  -22.7030  -44.0703 C.2       9 UNK         0.5000 
     26 O          -2.4159  -23.4842  -44.7580 O.2       9 UNK        -0.5000 
     27 CA         -2.3203  -21.2978  -43.7929 C.3       9 UNK         0.1400 
     28 CB         -3.0251  -21.2507  -42.4295 C.3       9 UNK        -0.1800 
     29 N          -1.3056  -20.2453  -43.8500 N.am      9 UNK        -0.5000 
     30 C          -0.5737  -19.9273  -44.9254 C.2       8 UNK         0.5000 
     31 O          -0.6222  -20.5606  -45.9816 O.2       8 UNK        -0.5000 
     32 CA          0.3558  -18.6997  -44.7994 C.3       8 UNK         0.1400 
     33 CB          0.8125  -18.1886  -46.1715 C.3       8 UNK        -0.1800 
     34 N          -0.2589  -17.5829  -44.0751 N.am      8 UNK        -0.5000 
     35 C          -0.3812  -17.4840  -42.7453 C.2       7 UNK         0.5000 
     36 O           0.0029  -18.3543  -41.9621 O.2       7 UNK        -0.5000 
     37 CA         -1.0867  -16.2189  -42.2305 C.3       7 UNK         0.1400 
     38 CB         -1.1316  -16.1083  -40.6914 C.3       7 UNK        -0.1800 
     39 N          -0.5537  -15.0096  -42.8615 N.am      7 UNK        -0.5000 
     40 C           0.6118  -14.3823  -42.6397 C.2       6 UNK         0.5000 
     41 O           1.4412  -14.7579  -41.8109 O.2       6 UNK        -0.5000 
     42 CA          0.9157  -13.1173  -43.4851 C.3       6 UNK         0.1400 
     43 CB          2.2965  -13.2220  -44.1548 C.3       6 UNK        -0.1800 
     44 N          -0.0748  -12.8356  -44.5288 N.am      6 UNK        -0.5000 
     45 C          -1.3418  -12.4371  -44.3385 C.2       5 UNK         0.5000 
     46 O          -1.7829  -12.0830  -43.2455 O.2       5 UNK        -0.5000 
     47 CA         -2.2990  -12.5143  -45.5497 C.3       5 UNK         0.1400 
     48 CB         -2.6304  -11.1041  -46.0617 C.3       5 UNK        -0.1800 
     49 N          -1.7942  -13.3105  -46.6731 N.am      5 UNK        -0.5000 
     50 C          -1.4214  -14.6002  -46.6590 C.2       4 UNK         0.5000 
     51 O          -1.5626  -15.3465  -45.6881 O.2       4 UNK        -0.5000 
     52 CA         -0.7006  -15.1242  -47.9195 C.3       4 UNK         0.1400 
     53 CB         -1.6166  -16.0704  -48.7057 C.3       4 UNK        -0.1800 
     54 N          -0.2067  -14.0743  -48.8218 N.am      4 UNK        -0.5000 
     55 C           0.7087  -13.1457  -48.5093 C.2       3 UNK         0.5000 
     56 O           1.2611  -13.0736  -47.4069 O.2       3 UNK        -0.5000 
     57 CA          0.9937  -12.0841  -49.5819 C.3       3 UNK         0.1400 
     58 CB         -0.2460  -11.1909  -49.8003 C.3       3 UNK        -0.1800 
     59 N           2.1248  -11.2763  -49.1413 N.am      3 UNK        -0.5000 
     60 C           2.8112  -10.3918  -49.8740 C.2       2 UNK         0.5000 
     61 O           2.5815  -10.1564  -51.0608 O.2       2 UNK        -0.5000 
     62 CA          3.9508   -9.6413  -49.1580 C.3       2 UNK         0.1400 
     63 CB          3.4230   -8.3463  -48.5211 C.3       2 UNK        -0.1800 
     64 N           4.5971  -10.4551  -48.1256 N.am      2 UNK        -0.5000 
     65 C           5.4541  -11.4503  -48.3883 C.2       1 UNK         0.5000 
     66 O           5.8315  -11.7423  -49.5267 O.2       1 UNK        -0.5000 
     67 C           0.1050  -23.4636  -48.2103 C.2       11 UNK         0.5000 
     68 O           0.1103  -24.2621  -49.1464 O.2       11 UNK        -0.5000 
     69 N          -0.9583  -22.7225  -47.8670 N.am      12 UNK        -0.5000 
     70 CA         -2.2449  -22.7638  -48.5556 C.3       12 UNK         0.1400 
     71 CB         -3.1519  -21.6446  -48.0300 C.3       12 UNK        -0.1800 
     72 C          -2.9319  -24.1358  -48.4471 C.2       12 UNK         0.5000 
     73 O          -3.5100  -24.5923  -49.4314 O.2       12 UNK        -0.5000 
     74 N          -2.8294  -24.7897  -47.2818 N.am      13 UNK        -0.5000 
     75 CA         -3.3064  -26.1546  -47.0558 C.3       13 UNK         0.1400 
     76 CB         -3.2294  -26.4970  -45.5609 C.3       13 UNK        -0.1800 
     77 C          -2.5423  -27.1919  -47.8960 C.2       13 UNK         0.5000 
     78 O          -3.1747  -28.0581  -48.5002 O.2       13 UNK        -0.5000 
     79 N          -1.2088  -27.0616  -47.9599 N.am      14 UNK        -0.5000 
     80 CA         -0.3340  -27.9038  -48.7811 C.3       14 UNK         0.1400 
     81 CB          1.1336  -27.6202  -48.4268 C.3       14 UNK        -0.1800 
     82 C          -0.5789  -27.7279  -50.2930 C.2       14 UNK         0.5000 
     83 O          -0.5479  -28.7107  -51.0342 O.2       14 UNK        -0.5000 
     84 N          -0.8517  -26.4861  -50.7144 N.am      15 UNK        -0.5000 
     85 CA         -1.2113  -26.1188  -52.0855 C.3       15 UNK         0.1400 
     86 CB         -1.0102  -24.6035  -52.2538 C.3       15 UNK        -0.1800 
     87 C          -2.6531  -26.5059  -52.4763 C.2       15 UNK         0.5000 
     88 O          -2.9788  -26.4617  -53.6631 O.2       15 UNK        -0.5000 
     89 N          -3.4908  -26.8414  -51.4821 N.am      16 UNK        -0.5000 
     90 CA         -4.9370  -27.0805  -51.5708 C.3       16 UNK         0.1400 
     91 CB         -5.2458  -28.3322  -52.4179 C.3       16 UNK        -0.1800 
     92 C          -5.7145  -25.8246  -52.0265 C.2       16 UNK         0.5000 
     93 O          -6.7095  -25.9291  -52.7458 O.2       16 UNK        -0.5000 
     94 N          -5.2313  -24.6557  -51.5906 N.am      17 UNK        -0.5000 
     95 CA         -5.7433  -23.3269  -51.9166 C.3       17 UNK         0.1400 
     96 CB         -4.5556  -22.4496  -52.3499 C.3       17 UNK        -0.1800 
     97 C          -6.4658  -22.6732  -50.7255 C.2       17 UNK         0.5000 
     98 O          -7.0018  -21.5786  -50.8880 O.2       17 UNK        -0.5000 
     99 N          -6.4645  -23.3240  -49.5516 N.am      18 UNK        -0.5000 
    100 CA        -6.9200  -22.8118  -48.2496 C.3       18 UNK         0.1400 
    101 CB        -6.7400  -23.9143  -47.1950 C.3       18 UNK        -0.1800 
    102 C         -8.3494  -22.2321  -48.1873 C.2       18 UNK         0.5000 
    103 O         -8.6396  -21.4583  -47.2746 O.2       18 UNK        -0.5000 
    104 N         -9.2056  -22.5824  -49.1556 N.am      19 UNK        -0.5000 
    105 CA       -10.5388  -22.0055  -49.3382 C.3       19 UNK         0.1400 
    106 CB       -11.3022  -22.8395  -50.3785 C.3       19 UNK        -0.1800 
    107 C        -10.5183  -20.5173  -49.7524 C.2       19 UNK         0.5000 
    108 O        -11.4716  -19.8001  -49.4455 O.2       19 UNK        -0.5000 
    109 N         -9.4506  -20.0843  -50.4379 N.am      20 UNK        -0.5000 
    110 CA        -9.2608  -18.7144  -50.9280 C.3       20 UNK         0.1400 
    111 CB        -9.3517  -18.7296  -52.4628 C.3       20 UNK        -0.1800 
    112 C         -7.9229  -18.0927  -50.4791 C.2       20 UNK         0.5000 
    113 O         -7.7878  -16.8700  -50.5421 O.2       20 UNK        -0.5000 
    114 N         -6.9746  -18.9375  -50.0477 N.am      21 UNK        -0.5000 
    115 CA        -5.5573  -18.6852  -49.7694 C.3       21 UNK         0.1400 
    116 CB        -5.3392  -17.4860  -48.8250 C.3       21 UNK        -0.1800 
    117 C         -4.7274  -18.5707  -51.0639 C.2       21 UNK         0.5000 
    118 O         -5.2695  -18.3269  -52.1441 O.2       21 UNK        -0.5000 
    119 N         -3.4118  -18.7739  -50.9316 N.am      22 UNK        -0.5000 
    120 CA        -2.4431  -18.7702  -52.0425 C.3       22 UNK         0.1400 
    121 C         -2.0284  -17.3639  -52.5735 C.2       22 UNK         0.5000 
    122 N         -2.5601  -16.2663  -52.0504 N.am      22 UNK        -0.7600 
    123 O         -1.2201  -17.2663  -53.4926 O.2       22 UNK        -0.5000 
    124 C124       -1.2235  -19.6796  -51.7381 C.3       23 UNK        -0.0398 
    125 S125       -0.3312  -19.2646  -50.1991 S.3       23 UNK        -0.2404 
    126 C126        1.1139  -18.3594  -50.8469 C.3       23 UNK        -0.0205 
    127 H127       10.1826  -12.2671  -48.5961 H         1 UNK         0.0600 
    128 H128        9.5886  -13.7750  -47.8950 H         1 UNK         0.0600 
    129 H129       10.4271  -12.6000  -46.8780 H         1 UNK         0.0600 
    130 H130        7.3719  -13.7435  -47.6290 H         1 UNK         0.3000 
    131 H131        5.9837  -11.5845  -46.3190 H         1 UNK         0.0600 
    132 H132        3.9548  -13.0121  -46.6849 H         1 UNK         0.0800 
    133 H133        5.2405  -13.8208  -45.8392 H         1 UNK         0.0800 
    134 H134        3.9310  -16.0689  -46.2347 H         1 UNK         0.0800 
    135 H135        2.7065  -15.2524  -47.1732 H         1 UNK         0.0800 
    136 H136        1.8747  -16.2160  -49.3011 H         1 UNK         0.1150 
    137 H137        2.7712  -20.3267  -50.0701 H         1 UNK         0.1150 
    138 H138        4.8306  -18.2417  -46.9403 H         1 UNK         0.1150 
    139 H139        4.7661  -21.3327  -48.9633 H         1 UNK         0.0800 
    140 H140        5.5794  -20.4919  -47.6691 H         1 UNK         0.0800 
    141 H141        1.4605  -21.1403  -47.6682 H         1 UNK         0.0800 
    142 H142        2.3616  -22.1000  -48.8194 H         1 UNK         0.0800 
    143 H143        2.0207  -24.1496  -47.5486 H         1 UNK         0.0600 
    144 H144        1.0908  -22.4665  -45.4179 H         1 UNK         0.3000 
    145 H145       -0.4930  -25.0610  -43.5308 H         1 UNK         0.0600 
    146 H146        1.1309  -24.2388  -41.8483 H         1 UNK         0.0600 
    147 H147        1.9531  -25.2276  -43.0446 H         1 UNK         0.0600 
    148 H148        2.0994  -23.4754  -43.1095 H         1 UNK         0.0600 
    149 H149       -0.0788  -22.2777  -43.0234 H         1 UNK         0.3000 
    150 H150       -3.0606  -21.0819  -44.5659 H         1 UNK         0.0600 
    151 H151       -3.8011  -22.0147  -42.3642 H         1 UNK         0.0600 
    152 H152       -3.5061  -20.2858  -42.2675 H         1 UNK         0.0600 
    153 H153       -2.3270  -21.4196  -41.6086 H         1 UNK         0.0600 
    154 H154       -1.1576  -19.7009  -43.0083 H         1 UNK         0.3000 
    155 H155        1.2434  -19.0228  -44.2519 H         1 UNK         0.0600 
    156 H156        1.4146  -17.2871  -46.0701 H         1 UNK         0.0600 
    157 H157       -0.0344  -17.9614  -46.8190 H         1 UNK         0.0600 
    158 H158        1.4218  -18.9337  -46.6828 H         1 UNK         0.0600 
    159 H159       -0.6530  -16.8423  -44.6466 H         1 UNK         0.3000 
    160 H160       -2.1200  -16.2964  -42.5719 H         1 UNK         0.0600 
    161 H161       -0.1357  -16.1213  -40.2485 H         1 UNK         0.0600 
    162 H162       -1.6857  -16.9430  -40.2607 H         1 UNK         0.0600 
    163 H163       -1.6292  -15.1913  -40.3758 H         1 UNK         0.0600 
    164 H164       -1.1175  -14.6537  -43.6222 H         1 UNK         0.3000 
    165 H165        0.9325  -12.2701  -42.7968 H         1 UNK         0.0600 
    166 H166        2.3408  -14.0634  -44.8474 H         1 UNK         0.0600 
    167 H167        2.5320  -12.3155  -44.7127 H         1 UNK         0.0600 
    168 H168        3.0873  -13.3605  -43.4166 H         1 UNK         0.0600 
    169 H169        0.2105  -13.0661  -45.4733 H         1 UNK         0.3000 
    170 H170       -3.2216  -12.9834  -45.2028 H         1 UNK         0.0600 
    171 H171       -3.0469  -10.4855  -45.2655 H         1 UNK         0.0600 
    172 H172       -1.7428  -10.5963  -46.4415 H         1 UNK         0.0600 
    173 H173       -3.3682  -11.1374  -46.8635 H         1 UNK         0.0600 
    174 H174       -1.6291  -12.8003  -47.5273 H         1 UNK         0.3000 
    175 H175        0.1666  -15.6896  -47.5771 H         1 UNK         0.0600 
    176 H176       -2.5174  -15.5629  -49.0523 H         1 UNK         0.0600 
    177 H177       -1.1022  -16.4761  -49.5754 H         1 UNK         0.0600 
    178 H178       -1.9276  -16.9155  -48.0906 H         1 UNK         0.0600 
    179 H179       -0.6209  -14.0546  -49.7426 H         1 UNK         0.3000 
    180 H180        1.2588  -12.5930  -50.5106 H         1 UNK         0.0600 
    181 H181       -0.5223  -10.6603  -48.8882 H         1 UNK         0.0600 
    182 H182       -1.1105  -11.7760  -50.1157 H         1 UNK         0.0600 
    183 H183       -0.0724  -10.4461  -50.5766 H         1 UNK         0.0600 
    184 H184        2.3922  -11.4488  -48.1805 H         1 UNK         0.3000 
    185 H185        4.6958   -9.3696  -49.9092 H         1 UNK         0.0600 
    186 H186        4.2307   -7.7731  -48.0655 H         1 UNK         0.0600 
    187 H187        2.9544   -7.7066  -49.2702 H         1 UNK         0.0600 
    188 H188        2.6778   -8.5492  -47.7509 H         1 UNK         0.0600 
    189 H189        4.3449  -10.2535  -47.1687 H         1 UNK         0.3000 
    190 H190       -0.8700  -22.0562  -47.1029 H         1 UNK         0.3000 
    191 H191       -2.0548  -22.5708  -49.6131 H         1 UNK         0.0600 
    192 H192       -4.0675  -21.5913  -48.6169 H         1 UNK         0.0600 
    193 H193       -2.6621  -20.6731  -48.1016 H         1 UNK         0.0600 
    194 H194       -3.4292  -21.8047  -46.9876 H         1 UNK         0.0600 
    195 H195       -2.4058  -24.3202  -46.4862 H         1 UNK         0.3000 
    196 H196       -4.3549  -26.1988  -47.3569 H         1 UNK         0.0600 
    197 H197       -3.5691  -27.5165  -45.3740 H         1 UNK         0.0600 
    198 H198       -3.8622  -25.8318  -44.9734 H         1 UNK         0.0600 
    199 H199       -2.2111  -26.4133  -45.1799 H         1 UNK         0.0600 
    200 H200       -0.7584  -26.3366  -47.4121 H         1 UNK         0.3000 
    201 H201       -0.5458  -28.9457  -48.5322 H         1 UNK         0.0600 
    202 H202        1.3286  -27.8158  -47.3722 H         1 UNK         0.0600 
    203 H203        1.4057  -26.5842  -48.6292 H         1 UNK         0.0600 
    204 H204        1.8050  -28.2555  -49.0055 H         1 UNK         0.0600 
    205 H205       -0.7703  -25.7220  -50.0488 H         1 UNK         0.3000 
    206 H206       -0.5348  -26.6332  -52.7709 H         1 UNK         0.0600 
    207 H207        0.0174  -24.3140  -52.0331 H         1 UNK         0.0600 
    208 H208       -1.2239  -24.2887  -53.2760 H         1 UNK         0.0600 
    209 H209       -1.6666  -24.0370  -51.5928 H         1 UNK         0.0600 
    210 H210       -3.1156  -26.8327  -50.5426 H         1 UNK         0.3000 
    211 H211       -5.2683  -27.2856  -50.5519 H         1 UNK         0.0600 
    212 H212       -5.0103  -28.1801  -53.4714 H         1 UNK         0.0600 
    213 H213       -6.3026  -28.5940  -52.3553 H         1 UNK         0.0600 
    214 H214       -4.6776  -29.1939  -52.0674 H         1 UNK         0.0600 
    215 H215       -4.4382  -24.6795  -50.9506 H         1 UNK         0.3000 
    216 H216       -6.4544  -23.3830  -52.7429 H         1 UNK         0.0600 
    217 H217       -4.8887  -21.4554  -52.6516 H         1 UNK         0.0600 
    218 H218       -4.0329  -22.8878  -53.2004 H         1 UNK         0.0600 
    219 H219       -3.8325  -22.3229  -51.5431 H         1 UNK         0.0600 
    220 H220       -5.9992  -24.2199  -49.5303 H         1 UNK         0.3000 
    221 H221       -6.2568  -21.9877  -47.9840 H         1 UNK         0.0600 
    222 H222       -7.3013  -24.8129  -47.4534 H         1 UNK         0.0600 
    223 H223       -5.6917  -24.1886  -47.0882 H         1 UNK         0.0600 
    224 H224       -7.0825  -23.5834  -46.2135 H         1 UNK         0.0600 
    225 H225       -8.8839  -23.2217  -49.8672 H         1 UNK         0.3000 
    226 H226      -11.0713  -22.0752  -48.3873 H         1 UNK         0.0600 
    227 H227      -11.3927  -23.8789  -50.0622 H         1 UNK         0.0600 
    228 H228      -12.3131  -22.4555  -50.5216 H         1 UNK         0.0600 
    229 H229      -10.8049  -22.8247  -51.3492 H         1 UNK         0.0600 
    230 H230       -8.7103  -20.7461  -50.6505 H         1 UNK         0.3000 
    231 H231      -10.0479  -18.0611  -50.5464 H         1 UNK         0.0600 
    232 H232       -9.2299  -17.7265  -52.8735 H         1 UNK         0.0600 
    233 H233      -10.3203  -19.1023  -52.7966 H         1 UNK         0.0600 
    234 H234       -8.5783  -19.3612  -52.9022 H         1 UNK         0.0600 
    235 H235       -7.1810  -19.9258  -50.1526 H         1 UNK         0.3000 
    236 H236       -5.2121  -19.5789  -49.2493 H         1 UNK         0.0600 
    237 H237       -6.0014  -17.5376  -47.9608 H         1 UNK         0.0600 
    238 H238       -4.3175  -17.4717  -48.4464 H         1 UNK         0.0600 
    239 H239       -5.5108  -16.5328  -49.3254 H         1 UNK         0.0600 
    240 H240       -3.0167  -18.9403  -50.0178 H         1 UNK         0.3000 
    241 H241       -2.9457  -19.2324  -52.8945 H         1 UNK         0.0600 
    242 H242       -3.2587  -16.3317  -51.3297 H         1 UNK         0.3800 
    243 H243       -2.2989  -15.3673  -52.4220 H         1 UNK         0.3800 
    244 H244       -1.5699  -20.7089  -51.6355 H         1 UNK         0.0800 
    245 H245       -0.5305  -19.6993  -52.5805 H         1 UNK         0.0800 
    246 H246        0.8076  -17.3617  -51.1646 H         1 UNK         0.0800 
    247 H247        1.5066  -18.8633  -51.7310 H         1 UNK         0.0800 
@<TRIPOS>BOND
     1    1    2 1    
     2    1  127 1    
     3    1  128 1    
     4    1  129 1    
     5    2    3 2    
     6    2    4 am   BACKBONE|DICT|INTERRES
     7    4    5 1    
     8    4  130 1    
     9    5    6 1    
    10    5   65 1    
    11    5  131 1    
    12    6    7 1    
    13    6  132 1    
    14    6  133 1    
    15    7    8 1    
    16    8    9 1    
    17    8  134 1    
    18    8  135 1    
    19    9   10 ar   
    20    9   14 ar   
    21   10   11 ar   
    22   10  136 1    
    23   11   12 ar   
    24   11  126 1    
    25   12   13 ar   
    26   12  137 1    
    27   13   14 ar   
    28   13   15 1    
    29   14  138 1    
    30   15   16 1    
    31   15  139 1    
    32   15  140 1    
    33   16   17 1    
    34   17   18 1    
    35   17  141 1    
    36   17  142 1    
    37   18   19 1    
    38   18   67 1    
    39   18  143 1    
    40   19   20 am   BACKBONE|DICT|INTERRES
    41   19  144 1    
    42   20   21 2    
    43   20   22 1    
    44   22   23 1    
    45   22   24 1    
    46   22  145 1    
    47   23  146 1    
    48   23  147 1    
    49   23  148 1    
    50   24   25 am   BACKBONE|DICT|INTERRES
    51   24  149 1    
    52   25   26 2    
    53   25   27 1    
    54   27   28 1    
    55   27   29 1    
    56   27  150 1    
    57   28  151 1    
    58   28  152 1    
    59   28  153 1    
    60   29   30 am   BACKBONE|DICT|INTERRES
    61   29  154 1    
    62   30   31 2    
    63   30   32 1    
    64   32   33 1    
    65   32   34 1    
    66   32  155 1    
    67   33  156 1    
    68   33  157 1    
    69   33  158 1    
    70   34   35 am   BACKBONE|DICT|INTERRES
    71   34  159 1    
    72   35   36 2    
    73   35   37 1    
    74   37   38 1    
    75   37   39 1    
    76   37  160 1    
    77   38  161 1    
    78   38  162 1    
    79   38  163 1    
    80   39   40 am   BACKBONE|DICT|INTERRES
    81   39  164 1    
    82   40   41 2    
    83   40   42 1    
    84   42   43 1    
    85   42   44 1    
    86   42  165 1    
    87   43  166 1    
    88   43  167 1    
    89   43  168 1    
    90   44   45 am   BACKBONE|DICT|INTERRES
    91   44  169 1    
    92   45   46 2    
    93   45   47 1    
    94   47   48 1    
    95   47   49 1    
    96   47  170 1    
    97   48  171 1    
    98   48  172 1    
    99   48  173 1    
   100   49   50 am   BACKBONE|DICT|INTERRES
   101   49  174 1    
   102   50   51 2    
   103   50   52 1    
   104   52   53 1    
   105   52   54 1    
   106   52  175 1    
   107   53  176 1    
   108   53  177 1    
   109   53  178 1    
   110   54   55 am   BACKBONE|DICT|INTERRES
   111   54  179 1    
   112   55   56 2    
   113   55   57 1    
   114   57   58 1    
   115   57   59 1    
   116   57  180 1    
   117   58  181 1    
   118   58  182 1    
   119   58  183 1    
   120   59   60 am   BACKBONE|DICT|INTERRES
   121   59  184 1    
   122   60   61 2    
   123   60   62 1    
   124   62   63 1    
   125   62   64 1    
   126   62  185 1    
   127   63  186 1    
   128   63  187 1    
   129   63  188 1    
   130   64   65 am   BACKBONE|DICT|INTERRES
   131   64  189 1    
   132   65   66 2    
   133   67   68 2    
   134   67   69 am   BACKBONE|DICT|INTERRES
   135   69   70 1    
   136   69  190 1    
   137   70   71 1    
   138   70   72 1    
   139   70  191 1    
   140   71  192 1    
   141   71  193 1    
   142   71  194 1    
   143   72   73 2    
   144   72   74 am   BACKBONE|DICT|INTERRES
   145   74   75 1    
   146   74  195 1    
   147   75   76 1    
   148   75   77 1    
   149   75  196 1    
   150   76  197 1    
   151   76  198 1    
   152   76  199 1    
   153   77   78 2    
   154   77   79 am   BACKBONE|DICT|INTERRES
   155   79   80 1    
   156   79  200 1    
   157   80   81 1    
   158   80   82 1    
   159   80  201 1    
   160   81  202 1    
   161   81  203 1    
   162   81  204 1    
   163   82   83 2    
   164   82   84 am   BACKBONE|DICT|INTERRES
   165   84   85 1    
   166   84  205 1    
   167   85   86 1    
   168   85   87 1    
   169   85  206 1    
   170   86  207 1    
   171   86  208 1    
   172   86  209 1    
   173   87   88 2    
   174   87   89 am   BACKBONE|DICT|INTERRES
   175   89   90 1    
   176   89  210 1    
   177   90   91 1    
   178   90   92 1    
   179   90  211 1    
   180   91  212 1    
   181   91  213 1    
   182   91  214 1    
   183   92   93 2    
   184   92   94 am   BACKBONE|DICT|INTERRES
   185   94   95 1    
   186   94  215 1    
   187   95   96 1    
   188   95   97 1    
   189   95  216 1    
   190   96  217 1    
   191   96  218 1    
   192   96  219 1    
   193   97   98 2    
   194   97   99 am   BACKBONE|DICT|INTERRES
   195   99  100 1    
   196   99  220 1    
   197  100  101 1    
   198  100  102 1    
   199  100  221 1    
   200  101  222 1    
   201  101  223 1    
   202  101  224 1    
   203  102  103 2    
   204  102  104 am   BACKBONE|DICT|INTERRES
   205  104  105 1    
   206  104  225 1    
   207  105  106 1    
   208  105  107 1    
   209  105  226 1    
   210  106  227 1    
   211  106  228 1    
   212  106  229 1    
   213  107  108 2    
   214  107  109 am   BACKBONE|DICT|INTERRES
   215  109  110 1    
   216  109  230 1    
   217  110  111 1    
   218  110  112 1    
   219  110  231 1    
   220  111  232 1    
   221  111  233 1    
   222  111  234 1    
   223  112  113 2    
   224  112  114 am   BACKBONE|DICT|INTERRES
   225  114  115 1    
   226  114  235 1    
   227  115  116 1    
   228  115  117 1    
   229  115  236 1    
   230  116  237 1    
   231  116  238 1    
   232  116  239 1    
   233  117  118 2    
   234  117  119 am   BACKBONE|DICT|INTERRES
   235  119  120 1    
   236  119  240 1    
   237  120  121 1    
   238  120  124 1    
   239  120  241 1    
   240  121  122 am   BACKBONE|DICT|INTERRES
   241  121  123 2    
   242  122  242 1    
   243  122  243 1    
   244  124  125 1    
   245  124  244 1    
   246  124  245 1    
   247  125  126 1    
   248  126  246 1    
   249  126  247 1    
@<TRIPOS>SUBSTRUCTURE
     1 UNK         1 GROUP             0       ****    0 ROOT    
