@<TRIPOS>MOLECULE
3R540
247   249    1
SMALL
USER_CHARGES


@<TRIPOS>ATOM
      1 CA         -2.1840  -15.6650  -44.4361 C.3       0 UNK        -0.1800 
      2 C          -2.2472  -14.6341  -45.5563 C.2       0 UNK         0.5000 
      3 O          -2.6404  -13.4917  -45.3221 O.2       0 UNK        -0.5000 
      4 N          -1.8912  -15.0462  -46.7794 N.am      1 UNK        -0.5000 
      5 CA         -2.0016  -14.2353  -47.9982 C.3       1 UNK         0.1400 
      6 C6         -2.0133  -15.1051  -49.2794 C.3       23 UNK        -0.0398 
      7 S7         -3.4689  -16.2013  -49.3646 S.3       23 UNK        -0.2404 
      8 C8         -2.8091  -17.7715  -48.7214 C.3       23 UNK        -0.0205 
      9 C9         -1.8567  -18.4503  -49.6920 C.ar      23 UNK        -0.0193 
     10 C10        -2.3605  -19.0581  -50.8429 C.ar      23 UNK        -0.1150 
     11 C11        -1.5068  -19.6944  -51.7457 C.ar      23 UNK        -0.0193 
     12 C12        -0.1344  -19.7308  -51.4822 C.ar      23 UNK        -0.1150 
     13 C13         0.3850  -19.1234  -50.3340 C.ar      23 UNK        -0.0193 
     14 C14        -0.4819  -18.4880  -49.4388 C.ar      23 UNK        -0.1150 
     15 C15         1.8870  -19.1221  -50.0889 C.3       23 UNK        -0.0205 
     16 S16         2.4783  -20.6857  -49.3681 S.3       23 UNK        -0.2404 
     17 C17         2.0209  -20.4889  -47.6131 C.3       23 UNK        -0.0398 
     18 CA          1.3182  -21.7386  -47.0319 C.3       11 UNK         0.1400 
     19 N           1.4206  -21.7927  -45.5710 N.am      11 UNK        -0.5000 
     20 C           1.0599  -22.8407  -44.8165 C.2       10 UNK         0.5000 
     21 O           0.6695  -23.9119  -45.2774 O.2       10 UNK        -0.5000 
     22 CA          1.0830  -22.6435  -43.2904 C.3       10 UNK         0.1400 
     23 CB          2.4914  -22.8831  -42.7277 C.3       10 UNK        -0.1800 
     24 N           0.6030  -21.3188  -42.8940 N.am      10 UNK        -0.5000 
     25 C          -0.6471  -20.8768  -43.0927 C.2       9 UNK         0.5000 
     26 O          -1.5459  -21.5763  -43.5590 O.2       9 UNK        -0.5000 
     27 CA         -0.9267  -19.3958  -42.7717 C.3       9 UNK         0.1400 
     28 CB         -1.1993  -19.1972  -41.2741 C.3       9 UNK        -0.1800 
     29 N           0.1658  -18.5174  -43.1927 N.am      9 UNK        -0.5000 
     30 C           0.5279  -18.3154  -44.4676 C.2       8 UNK         0.5000 
     31 O          -0.0720  -18.7881  -45.4330 O.2       8 UNK        -0.5000 
     32 CA          1.8006  -17.4849  -44.7035 C.3       8 UNK         0.1400 
     33 CB          1.4932  -15.9833  -44.6829 C.3       8 UNK        -0.1800 
     34 N           2.8338  -17.7811  -43.7131 N.am      8 UNK        -0.5000 
     35 C           3.5327  -18.9232  -43.6750 C.2       7 UNK         0.5000 
     36 O           3.3960  -19.8326  -44.4928 O.2       7 UNK        -0.5000 
     37 CA          4.5173  -19.0895  -42.5031 C.3       7 UNK         0.1400 
     38 CB          5.8532  -18.3998  -42.8164 C.3       7 UNK        -0.1800 
     39 N           3.9846  -18.5670  -41.2430 N.am      7 UNK        -0.5000 
     40 C           2.9369  -19.0913  -40.5914 C.2       6 UNK         0.5000 
     41 O           2.3291  -20.0899  -40.9719 O.2       6 UNK        -0.5000 
     42 CA          2.4582  -18.3533  -39.3282 C.3       6 UNK         0.1400 
     43 CB          3.2108  -18.8617  -38.0898 C.3       6 UNK        -0.1800 
     44 N           2.5935  -16.8970  -39.4156 N.am      6 UNK        -0.5000 
     45 C           1.9613  -16.1221  -40.3062 C.2       5 UNK         0.5000 
     46 O           1.2187  -16.5569  -41.1911 O.2       5 UNK        -0.5000 
     47 CA          2.2591  -14.6202  -40.2211 C.3       5 UNK         0.1400 
     48 CB          3.4994  -14.2788  -41.0636 C.3       5 UNK        -0.1800 
     49 N           1.1269  -13.8610  -40.7382 N.am      5 UNK        -0.5000 
     50 C           0.4936  -12.8635  -40.1136 C.2       4 UNK         0.5000 
     51 O           0.7826  -12.4732  -38.9805 O.2       4 UNK        -0.5000 
     52 CA         -0.6133  -12.1534  -40.9250 C.3       4 UNK         0.1400 
     53 CB         -1.4001  -11.1268  -40.0901 C.3       4 UNK        -0.1800 
     54 N          -0.0459  -11.4756  -42.0939 N.am      4 UNK        -0.5000 
     55 C           0.3248  -12.0916  -43.2217 C.2       3 UNK         0.5000 
     56 O           0.1430  -13.2943  -43.4272 O.2       3 UNK        -0.5000 
     57 CA          1.0755  -11.2501  -44.2620 C.3       3 UNK         0.1400 
     58 CB          2.5046  -10.9461  -43.7654 C.3       3 UNK        -0.1800 
     59 N           1.1153  -12.0229  -45.4979 N.am      3 UNK        -0.5000 
     60 C           1.5670  -11.6283  -46.6916 C.2       2 UNK         0.5000 
     61 O           2.0011  -10.5004  -46.9284 O.2       2 UNK        -0.5000 
     62 CA          1.5194  -12.6789  -47.8156 C.3       2 UNK         0.1400 
     63 CB          2.7881  -13.5461  -47.8002 C.3       2 UNK        -0.1800 
     64 N           0.3424  -13.5474  -47.7317 N.am      2 UNK        -0.5000 
     65 C          -0.8931  -13.1690  -48.0894 C.2       1 UNK         0.5000 
     66 O          -1.1710  -12.0398  -48.4959 O.2       1 UNK        -0.5000 
     67 C          -0.1458  -21.8637  -47.5061 C.2       11 UNK         0.5000 
     68 O          -0.4210  -22.6589  -48.4035 O.2       11 UNK        -0.5000 
     69 N          -1.0643  -21.1384  -46.8483 N.am      12 UNK        -0.5000 
     70 CA         -2.5090  -21.2150  -47.0806 C.3       12 UNK         0.1400 
     71 CB         -3.2354  -20.1853  -46.1986 C.3       12 UNK        -0.1800 
     72 C          -3.0758  -22.6235  -46.8258 C.2       12 UNK         0.5000 
     73 O          -3.8592  -23.1197  -47.6362 O.2       12 UNK        -0.5000 
     74 N          -2.6468  -23.2479  -45.7199 N.am      13 UNK        -0.5000 
     75 CA         -3.0051  -24.6137  -45.3415 C.3       13 UNK         0.1400 
     76 CB         -2.5200  -24.8997  -43.9125 C.3       13 UNK        -0.1800 
     77 C          -2.4654  -25.6618  -46.3310 C.2       13 UNK         0.5000 
     78 O          -3.2183  -26.5445  -46.7422 O.2       13 UNK        -0.5000 
     79 N          -1.1936  -25.5237  -46.7331 N.am      14 UNK        -0.5000 
     80 CA         -0.5315  -26.3730  -47.7282 C.3       14 UNK         0.1400 
     81 CB          0.9636  -26.0257  -47.7879 C.3       14 UNK        -0.1800 
     82 C          -1.1692  -26.2704  -49.1266 C.2       14 UNK         0.5000 
     83 O          -1.2796  -27.2806  -49.8220 O.2       14 UNK        -0.5000 
     84 N          -1.6164  -25.0622  -49.4918 N.am      15 UNK        -0.5000 
     85 CA         -2.3700  -24.7735  -50.7117 C.3       15 UNK         0.1400 
     86 CB         -2.2657  -23.2701  -51.0109 C.3       15 UNK        -0.1800 
     87 C          -3.8500  -25.2056  -50.6444 C.2       15 UNK         0.5000 
     88 O          -4.5483  -25.0787  -51.6494 O.2       15 UNK        -0.5000 
     89 N          -4.3146  -25.6770  -49.4767 N.am      16 UNK        -0.5000 
     90 CA         -5.6861  -26.0962  -49.1684 C.3       16 UNK         0.1400 
     91 CB         -6.0570  -27.3722  -49.9526 C.3       16 UNK        -0.1800 
     92 C          -6.7135  -24.9564  -49.3379 C.2       16 UNK         0.5000 
     93 O          -7.8255  -25.1890  -49.8157 O.2       16 UNK        -0.5000 
     94 N          -6.3073  -23.7405  -48.9430 N.am      17 UNK        -0.5000 
     95 CA         -7.0591  -22.4834  -49.0035 C.3       17 UNK         0.1400 
     96 CB         -8.2819  -22.5279  -48.0632 C.3       17 UNK        -0.1800 
     97 C          -7.4129  -22.0274  -50.4370 C.2       17 UNK         0.5000 
     98 O          -8.4046  -21.3198  -50.6274 O.2       17 UNK        -0.5000 
     99 N          -6.5874  -22.4149  -51.4202 N.am      18 UNK        -0.5000 
    100 CA        -6.6466  -21.9240  -52.7986 C.3       18 UNK         0.1400 
    101 CB        -5.7555  -22.8109  -53.6834 C.3       18 UNK        -0.1800 
    102 C         -6.2161  -20.4468  -52.9067 C.2       18 UNK         0.5000 
    103 O         -5.6184  -19.9016  -51.9764 O.2       18 UNK        -0.5000 
    104 N         -6.5063  -19.8345  -54.0567 N.am      19 UNK        -0.5000 
    105 CA        -6.1223  -18.4711  -54.4031 C.3       19 UNK         0.1400 
    106 CB        -7.2323  -17.4979  -53.9703 C.3       19 UNK        -0.1800 
    107 C         -5.8755  -18.3973  -55.9160 C.2       19 UNK         0.5000 
    108 O         -6.3526  -19.2632  -56.6564 O.2       19 UNK        -0.5000 
    109 N         -5.1422  -17.3597  -56.3409 N.am      20 UNK        -0.5000 
    110 CA        -4.7458  -17.0072  -57.7120 C.3       20 UNK         0.1400 
    111 CB        -5.9706  -16.7573  -58.6133 C.3       20 UNK        -0.1800 
    112 C         -3.7614  -17.9988  -58.3618 C.2       20 UNK         0.5000 
    113 O         -2.6897  -17.5863  -58.8063 O.2       20 UNK        -0.5000 
    114 N         -4.1094  -19.2898  -58.3730 N.am      21 UNK        -0.5000 
    115 CA        -3.3210  -20.4010  -58.9128 C.3       21 UNK         0.1400 
    116 CB        -4.2865  -21.5298  -59.3171 C.3       21 UNK        -0.1800 
    117 C         -2.2253  -20.8798  -57.9326 C.2       21 UNK         0.5000 
    118 O         -2.0305  -22.0844  -57.7598 O.2       21 UNK        -0.5000 
    119 N         -1.5424  -19.9255  -57.2929 N.am      22 UNK        -0.5000 
    120 CA        -0.5233  -20.1474  -56.2542 C.3       22 UNK         0.1400 
    121 C          0.9334  -20.1990  -56.7998 C.2       22 UNK         0.5000 
    122 N          1.1705  -20.0085  -58.0922 N.am      22 UNK        -0.7600 
    123 O          1.8684  -20.4309  -56.0385 O.2       22 UNK        -0.5000 
    124 C124       -0.6580  -19.1166  -55.1028 C.3       23 UNK        -0.0398 
    125 S125       -2.3172  -19.1413  -54.3401 S.3       23 UNK        -0.2404 
    126 C126       -2.0817  -20.3434  -52.9949 C.3       23 UNK        -0.0205 
    127 H127       -1.9925  -16.6670  -44.8197 H         1 UNK         0.0600 
    128 H128       -3.1306  -15.6895  -43.8966 H         1 UNK         0.0600 
    129 H129       -1.3973  -15.4140  -43.7261 H         1 UNK         0.0600 
    130 H130       -1.5899  -15.9994  -46.9090 H         1 UNK         0.3000 
    131 H131       -2.9524  -13.6985  -47.9572 H         1 UNK         0.0600 
    132 H132       -1.0971  -15.6900  -49.3670 H         1 UNK         0.0800 
    133 H133       -2.0470  -14.4700  -50.1667 H         1 UNK         0.0800 
    134 H134       -2.3220  -17.5991  -47.7629 H         1 UNK         0.0800 
    135 H135       -3.6482  -18.4400  -48.5249 H         1 UNK         0.0800 
    136 H136       -3.4220  -19.0248  -51.0405 H         1 UNK         0.1150 
    137 H137        0.5338  -20.2256  -52.1726 H         1 UNK         0.1150 
    138 H138       -0.0870  -18.0184  -48.5493 H         1 UNK         0.1150 
    139 H139        2.4023  -18.9617  -51.0371 H         1 UNK         0.0800 
    140 H140        2.1750  -18.2873  -49.4480 H         1 UNK         0.0800 
    141 H141        1.4150  -19.5945  -47.4706 H         1 UNK         0.0800 
    142 H142        2.9513  -20.3045  -47.0753 H         1 UNK         0.0800 
    143 H143        1.8497  -22.6187  -47.4008 H         1 UNK         0.0600 
    144 H144        1.7915  -20.9695  -45.1100 H         1 UNK         0.3000 
    145 H145        0.4138  -23.3853  -42.8502 H         1 UNK         0.0600 
    146 H146        2.4959  -22.8217  -41.6394 H         1 UNK         0.0600 
    147 H147        2.8561  -23.8746  -42.9988 H         1 UNK         0.0600 
    148 H148        3.2081  -22.1547  -43.1065 H         1 UNK         0.0600 
    149 H149        1.2712  -20.7140  -42.4243 H         1 UNK         0.3000 
    150 H150       -1.8227  -19.1000  -43.3216 H         1 UNK         0.0600 
    151 H151       -2.0532  -19.7942  -40.9518 H         1 UNK         0.0600 
    152 H152       -1.4256  -18.1546  -41.0494 H         1 UNK         0.0600 
    153 H153       -0.3447  -19.4926  -40.6661 H         1 UNK         0.0600 
    154 H154        0.6781  -18.0378  -42.4595 H         1 UNK         0.3000 
    155 H155        2.1876  -17.7380  -45.6929 H         1 UNK         0.0600 
    156 H156        0.7604  -15.7217  -45.4456 H         1 UNK         0.0600 
    157 H157        1.0903  -15.6774  -43.7184 H         1 UNK         0.0600 
    158 H158        2.3890  -15.3919  -44.8704 H         1 UNK         0.0600 
    159 H159        2.9622  -17.1069  -42.9734 H         1 UNK         0.3000 
    160 H160        4.7058  -20.1577  -42.3760 H         1 UNK         0.0600 
    161 H161        5.7353  -17.3212  -42.9283 H         1 UNK         0.0600 
    162 H162        6.2808  -18.7816  -43.7445 H         1 UNK         0.0600 
    163 H163        6.5832  -18.5777  -42.0266 H         1 UNK         0.0600 
    164 H164        4.4304  -17.7469  -40.8598 H         1 UNK         0.3000 
    165 H165        1.3982  -18.5795  -39.1975 H         1 UNK         0.0600 
    166 H166        2.8178  -18.4132  -37.1772 H         1 UNK         0.0600 
    167 H167        3.1091  -19.9432  -37.9882 H         1 UNK         0.0600 
    168 H168        4.2765  -18.6359  -38.1441 H         1 UNK         0.0600 
    169 H169        3.1977  -16.4632  -38.7323 H         1 UNK         0.3000 
    170 H170        2.4517  -14.3635  -39.1774 H         1 UNK         0.0600 
    171 H171        3.3530  -14.5282  -42.1157 H         1 UNK         0.0600 
    172 H172        3.7320  -13.2153  -41.0045 H         1 UNK         0.0600 
    173 H173        4.3775  -14.8227  -40.7135 H         1 UNK         0.0600 
    174 H174        0.8054  -14.1264  -41.6640 H         1 UNK         0.3000 
    175 H175       -1.3179  -12.9182  -41.2594 H         1 UNK         0.0600 
    176 H176       -2.2080  -10.6832  -40.6724 H         1 UNK         0.0600 
    177 H177       -0.7604  -10.3181  -39.7345 H         1 UNK         0.0600 
    178 H178       -1.8522  -11.5981  -39.2165 H         1 UNK         0.0600 
    179 H179        0.1681  -10.4955  -41.9789 H         1 UNK         0.3000 
    180 H180        0.5262  -10.3229  -44.4346 H         1 UNK         0.0600 
    181 H181        3.0543  -10.3239  -44.4710 H         1 UNK         0.0600 
    182 H182        3.0768  -11.8622  -43.6115 H         1 UNK         0.0600 
    183 H183        2.4881  -10.4081  -42.8169 H         1 UNK         0.0600 
    184 H184        0.7370  -12.9561  -45.3894 H         1 UNK         0.3000 
    185 H185        1.4901  -12.1449  -48.7681 H         1 UNK         0.0600 
    186 H186        3.6824  -12.9286  -47.8937 H         1 UNK         0.0600 
    187 H187        2.8792  -14.1146  -46.8747 H         1 UNK         0.0600 
    188 H188        2.7939  -14.2522  -48.6307 H         1 UNK         0.0600 
    189 H189        0.4901  -14.4897  -47.4052 H         1 UNK         0.3000 
    190 H190       -0.7500  -20.4755  -46.1463 H         1 UNK         0.3000 
    191 H191       -2.6830  -20.9610  -48.1281 H         1 UNK         0.0600 
    192 H192       -2.7464  -19.2135  -46.2226 H         1 UNK         0.0600 
    193 H193       -4.2635  -20.0479  -46.5349 H         1 UNK         0.0600 
    194 H194       -3.2782  -20.4960  -45.1553 H         1 UNK         0.0600 
    195 H195       -2.0442  -22.7386  -45.0802 H         1 UNK         0.3000 
    196 H196       -4.0949  -24.6830  -45.3472 H         1 UNK         0.0600 
    197 H197       -2.8146  -25.9002  -43.5938 H         1 UNK         0.0600 
    198 H198       -2.9479  -24.1917  -43.2025 H         1 UNK         0.0600 
    199 H199       -1.4349  -24.8364  -43.8329 H         1 UNK         0.0600 
    200 H200       -0.6237  -24.7925  -46.3136 H         1 UNK         0.3000 
    201 H201       -0.6272  -27.4088  -47.3965 H         1 UNK         0.0600 
    202 H202        1.4416  -26.1744  -46.8196 H         1 UNK         0.0600 
    203 H203        1.1235  -24.9886  -48.0840 H         1 UNK         0.0600 
    204 H204        1.4839  -26.6579  -48.5084 H         1 UNK         0.0600 
    205 H205       -1.4128  -24.2665  -48.8927 H         1 UNK         0.3000 
    206 H206       -1.9109  -25.3169  -51.5398 H         1 UNK         0.0600 
    207 H207       -2.7626  -23.0275  -51.9494 H         1 UNK         0.0600 
    208 H208       -2.7274  -22.6683  -50.2271 H         1 UNK         0.0600 
    209 H209       -1.2262  -22.9548  -51.1045 H         1 UNK         0.0600 
    210 H210       -3.6683  -25.7290  -48.6989 H         1 UNK         0.3000 
    211 H211       -5.6930  -26.3506  -48.1078 H         1 UNK         0.0600 
    212 H212       -6.1292  -27.1839  -51.0241 H         1 UNK         0.0600 
    213 H213       -7.0193  -27.7665  -49.6246 H         1 UNK         0.0600 
    214 H214       -5.3165  -28.1572  -49.7988 H         1 UNK         0.0600 
    215 H215       -5.3685  -23.6546  -48.5554 H         1 UNK         0.3000 
    216 H216       -6.3820  -21.7211  -48.6152 H         1 UNK         0.0600 
    217 H217       -8.7478  -21.5454  -47.9796 H         1 UNK         0.0600 
    218 H218       -7.9945  -22.8344  -47.0575 H         1 UNK         0.0600 
    219 H219       -9.0439  -23.2205  -48.4213 H         1 UNK         0.0600 
    220 H220       -5.8097  -23.0170  -51.1895 H         1 UNK         0.3000 
    221 H221       -7.6777  -22.0058  -53.1484 H         1 UNK         0.0600 
    222 H222       -4.7099  -22.7607  -53.3790 H         1 UNK         0.0600 
    223 H223       -6.0684  -23.8541  -53.6361 H         1 UNK         0.0600 
    224 H224       -5.8060  -22.5075  -54.7298 H         1 UNK         0.0600 
    225 H225       -6.9355  -20.3482  -54.8163 H         1 UNK         0.3000 
    226 H226       -5.1918  -18.2088  -53.8952 H         1 UNK         0.0600 
    227 H227       -7.3962  -17.5420  -52.8934 H         1 UNK         0.0600 
    228 H228       -6.9713  -16.4679  -54.2160 H         1 UNK         0.0600 
    229 H229       -8.1787  -17.7247  -54.4627 H         1 UNK         0.0600 
    230 H230       -4.7816  -16.7329  -55.6347 H         1 UNK         0.3000 
    231 H231       -4.2148  -16.0578  -57.6250 H         1 UNK         0.0600 
    232 H232       -6.5571  -17.6624  -58.7727 H         1 UNK         0.0600 
    233 H233       -5.6617  -16.3953  -59.5946 H         1 UNK         0.0600 
    234 H234       -6.6292  -16.0035  -58.1818 H         1 UNK         0.0600 
    235 H235       -4.9837  -19.5319  -57.9136 H         1 UNK         0.3000 
    236 H236       -2.8111  -20.0615  -59.8166 H         1 UNK         0.0600 
    237 H237       -5.0295  -21.1752  -60.0318 H         1 UNK         0.0600 
    238 H238       -3.7532  -22.3551  -59.7905 H         1 UNK         0.0600 
    239 H239       -4.8178  -21.9307  -58.4529 H         1 UNK         0.0600 
    240 H240       -1.7486  -18.9615  -57.5244 H         1 UNK         0.3000 
    241 H241       -0.6920  -21.1320  -55.8143 H         1 UNK         0.0600 
    242 H242        0.4129  -19.8234  -58.7302 H         1 UNK         0.3800 
    243 H243        2.1174  -20.0505  -58.4358 H         1 UNK         0.3800 
    244 H244        0.0918  -19.2919  -54.3310 H         1 UNK         0.0800 
    245 H245       -0.4734  -18.1083  -55.4766 H         1 UNK         0.0800 
    246 H246       -1.4498  -21.1667  -53.3308 H         1 UNK         0.0800 
    247 H247       -3.0512  -20.7820  -52.7567 H         1 UNK         0.0800 
@<TRIPOS>BOND
     1    1    2 1    
     2    1  127 1    
     3    1  128 1    
     4    1  129 1    
     5    2    3 2    
     6    2    4 am   BACKBONE|DICT|INTERRES
     7    4    5 1    
     8    4  130 1    
     9    5    6 1    
    10    5   65 1    
    11    5  131 1    
    12    6    7 1    
    13    6  132 1    
    14    6  133 1    
    15    7    8 1    
    16    8    9 1    
    17    8  134 1    
    18    8  135 1    
    19    9   10 ar   
    20    9   14 ar   
    21   10   11 ar   
    22   10  136 1    
    23   11   12 ar   
    24   11  126 1    
    25   12   13 ar   
    26   12  137 1    
    27   13   14 ar   
    28   13   15 1    
    29   14  138 1    
    30   15   16 1    
    31   15  139 1    
    32   15  140 1    
    33   16   17 1    
    34   17   18 1    
    35   17  141 1    
    36   17  142 1    
    37   18   19 1    
    38   18   67 1    
    39   18  143 1    
    40   19   20 am   BACKBONE|DICT|INTERRES
    41   19  144 1    
    42   20   21 2    
    43   20   22 1    
    44   22   23 1    
    45   22   24 1    
    46   22  145 1    
    47   23  146 1    
    48   23  147 1    
    49   23  148 1    
    50   24   25 am   BACKBONE|DICT|INTERRES
    51   24  149 1    
    52   25   26 2    
    53   25   27 1    
    54   27   28 1    
    55   27   29 1    
    56   27  150 1    
    57   28  151 1    
    58   28  152 1    
    59   28  153 1    
    60   29   30 am   BACKBONE|DICT|INTERRES
    61   29  154 1    
    62   30   31 2    
    63   30   32 1    
    64   32   33 1    
    65   32   34 1    
    66   32  155 1    
    67   33  156 1    
    68   33  157 1    
    69   33  158 1    
    70   34   35 am   BACKBONE|DICT|INTERRES
    71   34  159 1    
    72   35   36 2    
    73   35   37 1    
    74   37   38 1    
    75   37   39 1    
    76   37  160 1    
    77   38  161 1    
    78   38  162 1    
    79   38  163 1    
    80   39   40 am   BACKBONE|DICT|INTERRES
    81   39  164 1    
    82   40   41 2    
    83   40   42 1    
    84   42   43 1    
    85   42   44 1    
    86   42  165 1    
    87   43  166 1    
    88   43  167 1    
    89   43  168 1    
    90   44   45 am   BACKBONE|DICT|INTERRES
    91   44  169 1    
    92   45   46 2    
    93   45   47 1    
    94   47   48 1    
    95   47   49 1    
    96   47  170 1    
    97   48  171 1    
    98   48  172 1    
    99   48  173 1    
   100   49   50 am   BACKBONE|DICT|INTERRES
   101   49  174 1    
   102   50   51 2    
   103   50   52 1    
   104   52   53 1    
   105   52   54 1    
   106   52  175 1    
   107   53  176 1    
   108   53  177 1    
   109   53  178 1    
   110   54   55 am   BACKBONE|DICT|INTERRES
   111   54  179 1    
   112   55   56 2    
   113   55   57 1    
   114   57   58 1    
   115   57   59 1    
   116   57  180 1    
   117   58  181 1    
   118   58  182 1    
   119   58  183 1    
   120   59   60 am   BACKBONE|DICT|INTERRES
   121   59  184 1    
   122   60   61 2    
   123   60   62 1    
   124   62   63 1    
   125   62   64 1    
   126   62  185 1    
   127   63  186 1    
   128   63  187 1    
   129   63  188 1    
   130   64   65 am   BACKBONE|DICT|INTERRES
   131   64  189 1    
   132   65   66 2    
   133   67   68 2    
   134   67   69 am   BACKBONE|DICT|INTERRES
   135   69   70 1    
   136   69  190 1    
   137   70   71 1    
   138   70   72 1    
   139   70  191 1    
   140   71  192 1    
   141   71  193 1    
   142   71  194 1    
   143   72   73 2    
   144   72   74 am   BACKBONE|DICT|INTERRES
   145   74   75 1    
   146   74  195 1    
   147   75   76 1    
   148   75   77 1    
   149   75  196 1    
   150   76  197 1    
   151   76  198 1    
   152   76  199 1    
   153   77   78 2    
   154   77   79 am   BACKBONE|DICT|INTERRES
   155   79   80 1    
   156   79  200 1    
   157   80   81 1    
   158   80   82 1    
   159   80  201 1    
   160   81  202 1    
   161   81  203 1    
   162   81  204 1    
   163   82   83 2    
   164   82   84 am   BACKBONE|DICT|INTERRES
   165   84   85 1    
   166   84  205 1    
   167   85   86 1    
   168   85   87 1    
   169   85  206 1    
   170   86  207 1    
   171   86  208 1    
   172   86  209 1    
   173   87   88 2    
   174   87   89 am   BACKBONE|DICT|INTERRES
   175   89   90 1    
   176   89  210 1    
   177   90   91 1    
   178   90   92 1    
   179   90  211 1    
   180   91  212 1    
   181   91  213 1    
   182   91  214 1    
   183   92   93 2    
   184   92   94 am   BACKBONE|DICT|INTERRES
   185   94   95 1    
   186   94  215 1    
   187   95   96 1    
   188   95   97 1    
   189   95  216 1    
   190   96  217 1    
   191   96  218 1    
   192   96  219 1    
   193   97   98 2    
   194   97   99 am   BACKBONE|DICT|INTERRES
   195   99  100 1    
   196   99  220 1    
   197  100  101 1    
   198  100  102 1    
   199  100  221 1    
   200  101  222 1    
   201  101  223 1    
   202  101  224 1    
   203  102  103 2    
   204  102  104 am   BACKBONE|DICT|INTERRES
   205  104  105 1    
   206  104  225 1    
   207  105  106 1    
   208  105  107 1    
   209  105  226 1    
   210  106  227 1    
   211  106  228 1    
   212  106  229 1    
   213  107  108 2    
   214  107  109 am   BACKBONE|DICT|INTERRES
   215  109  110 1    
   216  109  230 1    
   217  110  111 1    
   218  110  112 1    
   219  110  231 1    
   220  111  232 1    
   221  111  233 1    
   222  111  234 1    
   223  112  113 2    
   224  112  114 am   BACKBONE|DICT|INTERRES
   225  114  115 1    
   226  114  235 1    
   227  115  116 1    
   228  115  117 1    
   229  115  236 1    
   230  116  237 1    
   231  116  238 1    
   232  116  239 1    
   233  117  118 2    
   234  117  119 am   BACKBONE|DICT|INTERRES
   235  119  120 1    
   236  119  240 1    
   237  120  121 1    
   238  120  124 1    
   239  120  241 1    
   240  121  122 am   BACKBONE|DICT|INTERRES
   241  121  123 2    
   242  122  242 1    
   243  122  243 1    
   244  124  125 1    
   245  124  244 1    
   246  124  245 1    
   247  125  126 1    
   248  126  246 1    
   249  126  247 1    
@<TRIPOS>SUBSTRUCTURE
     1 UNK         1 GROUP             0       ****    0 ROOT    
