@<TRIPOS>MOLECULE
3R540
247   249    1
SMALL
USER_CHARGES


@<TRIPOS>ATOM
      1 CA         -4.4001  -13.2625  -47.2389 C.3       0 UNK        -0.1800 
      2 C          -3.2384  -13.9403  -46.5280 C.2       0 UNK         0.5000 
      3 O          -2.7430  -13.4218  -45.5297 O.2       0 UNK        -0.5000 
      4 N          -2.8137  -15.1105  -47.0211 N.am      1 UNK        -0.5000 
      5 CA         -1.6507  -15.8766  -46.5399 C.3       1 UNK         0.1400 
      6 C6         -1.2320  -16.9925  -47.5316 C.3       23 UNK        -0.0398 
      7 S7         -1.0598  -16.3602  -49.2375 S.3       23 UNK        -0.2404 
      8 C8          0.7335  -16.0895  -49.3766 C.3       23 UNK        -0.0205 
      9 C9          1.3834  -17.1806  -50.2098 C.ar      23 UNK        -0.0193 
     10 C10         1.5787  -16.9943  -51.5816 C.ar      23 UNK        -0.1150 
     11 C11         2.1660  -17.9958  -52.3609 C.ar      23 UNK        -0.0193 
     12 C12         2.5504  -19.1954  -51.7535 C.ar      23 UNK        -0.1150 
     13 C13         2.3312  -19.4050  -50.3894 C.ar      23 UNK        -0.0193 
     14 C14         1.7708  -18.3837  -49.6168 C.ar      23 UNK        -0.1150 
     15 C15         2.6695  -20.7474  -49.7597 C.3       23 UNK        -0.0205 
     16 S16         1.2879  -21.9231  -49.9365 S.3       23 UNK        -0.2404 
     17 C17         0.0227  -21.1223  -48.8946 C.3       23 UNK        -0.0398 
     18 CA         -1.0045  -22.1154  -48.3126 C.3       11 UNK         0.1400 
     19 N          -0.3652  -23.1524  -47.4989 N.am      11 UNK        -0.5000 
     20 C          -0.9709  -24.1780  -46.8822 C.2       10 UNK         0.5000 
     21 O          -2.1897  -24.3473  -46.8750 O.2       10 UNK        -0.5000 
     22 CA         -0.0606  -25.1773  -46.1404 C.3       10 UNK         0.1400 
     23 CB          0.1853  -26.4186  -47.0107 C.3       10 UNK        -0.1800 
     24 N           1.2281  -24.5807  -45.7798 N.am      10 UNK        -0.5000 
     25 C           1.3963  -23.7238  -44.7644 C.2       9 UNK         0.5000 
     26 O           0.5313  -23.5121  -43.9107 O.2       9 UNK        -0.5000 
     27 CA          2.7376  -22.9529  -44.7066 C.3       9 UNK         0.1400 
     28 CB          3.4779  -22.8968  -46.0632 C.3       9 UNK        -0.1800 
     29 N           2.5775  -21.5933  -44.1746 N.am      9 UNK        -0.5000 
     30 C           1.7359  -20.6490  -44.6254 C.2       8 UNK         0.5000 
     31 O           0.9991  -20.7814  -45.6028 O.2       8 UNK        -0.5000 
     32 CA          1.7344  -19.3274  -43.8523 C.3       8 UNK         0.1400 
     33 CB          1.2651  -19.5366  -42.3965 C.3       8 UNK        -0.1800 
     34 N           3.0699  -18.7335  -43.9220 N.am      8 UNK        -0.5000 
     35 C           3.4317  -17.4652  -43.6826 C.2       7 UNK         0.5000 
     36 O           4.5866  -17.0861  -43.8831 O.2       7 UNK        -0.5000 
     37 CA          2.4162  -16.4598  -43.0934 C.3       7 UNK         0.1400 
     38 CB          2.6306  -16.3057  -41.5794 C.3       7 UNK        -0.1800 
     39 N           2.5010  -15.1391  -43.7118 N.am      7 UNK        -0.5000 
     40 C           2.1955  -14.8611  -44.9865 C.2       6 UNK         0.5000 
     41 O           1.8856  -15.7169  -45.8163 O.2       6 UNK        -0.5000 
     42 CA          2.2290  -13.3768  -45.4000 C.3       6 UNK         0.1400 
     43 CB          1.1254  -13.0166  -46.4131 C.3       6 UNK        -0.1800 
     44 N           2.1069  -12.4895  -44.2411 N.am      6 UNK        -0.5000 
     45 C           2.8582  -11.4019  -44.0223 C.2       5 UNK         0.5000 
     46 O           3.7777  -11.0509  -44.7632 O.2       5 UNK        -0.5000 
     47 CA          2.5330  -10.5406  -42.7830 C.3       5 UNK         0.1400 
     48 CB          1.7984   -9.2573  -43.2035 C.3       5 UNK        -0.1800 
     49 N           1.7285  -11.2242  -41.7696 N.am      5 UNK        -0.5000 
     50 C           2.1556  -12.2253  -40.9891 C.2       4 UNK         0.5000 
     51 O           3.2964  -12.6863  -41.0305 O.2       4 UNK        -0.5000 
     52 CA          1.1218  -12.8350  -40.0207 C.3       4 UNK         0.1400 
     53 CB          1.2069  -12.1469  -38.6499 C.3       4 UNK        -0.1800 
     54 N          -0.2684  -12.7877  -40.4928 N.am      4 UNK        -0.5000 
     55 C          -0.7232  -13.3088  -41.6407 C.2       3 UNK         0.5000 
     56 O           0.0026  -13.8088  -42.5018 O.2       3 UNK        -0.5000 
     57 CA         -2.2367  -13.2001  -41.8886 C.3       3 UNK         0.1400 
     58 CB         -2.5600  -11.8900  -42.6231 C.3       3 UNK        -0.1800 
     59 N          -2.7195  -14.3335  -42.6785 N.am      3 UNK        -0.5000 
     60 C          -2.9120  -15.5660  -42.1826 C.2       2 UNK         0.5000 
     61 O          -2.7802  -15.8405  -40.9889 O.2       2 UNK        -0.5000 
     62 CA         -3.3297  -16.6863  -43.1591 C.3       2 UNK         0.1400 
     63 CB         -4.8278  -16.9996  -43.0279 C.3       2 UNK        -0.1800 
     64 N          -3.0366  -16.3739  -44.5564 N.am      2 UNK        -0.5000 
     65 C          -1.8179  -16.4369  -45.1082 C.2       1 UNK         0.5000 
     66 O          -0.8456  -16.9103  -44.5264 O.2       1 UNK        -0.5000 
     67 C          -2.1069  -21.3496  -47.5564 C.2       11 UNK         0.5000 
     68 O          -3.1525  -21.0669  -48.1404 O.2       11 UNK        -0.5000 
     69 N          -1.8663  -21.0582  -46.2710 N.am      12 UNK        -0.5000 
     70 CA         -2.8147  -20.4236  -45.3542 C.3       12 UNK         0.1400 
     71 CB         -2.1453  -20.2537  -43.9834 C.3       12 UNK        -0.1800 
     72 C          -4.1401  -21.1940  -45.2062 C.2       12 UNK         0.5000 
     73 O          -5.2024  -20.5721  -45.1801 O.2       12 UNK        -0.5000 
     74 N          -4.0514  -22.5289  -45.1336 N.am      13 UNK        -0.5000 
     75 CA         -5.2041  -23.4264  -45.0795 C.3       13 UNK         0.1400 
     76 CB         -4.7790  -24.7665  -44.4597 C.3       13 UNK        -0.1800 
     77 C          -5.8206  -23.6396  -46.4722 C.2       13 UNK         0.5000 
     78 O          -7.0451  -23.6676  -46.6013 O.2       13 UNK        -0.5000 
     79 N          -4.9646  -23.7603  -47.4949 N.am      14 UNK        -0.5000 
     80 CA         -5.3124  -23.9925  -48.8970 C.3       14 UNK         0.1400 
     81 CB         -4.0965  -24.6143  -49.5999 C.3       14 UNK        -0.1800 
     82 C          -5.8327  -22.7281  -49.6169 C.2       14 UNK         0.5000 
     83 O          -5.3378  -22.3748  -50.6914 O.2       14 UNK        -0.5000 
     84 N          -6.8500  -22.0934  -49.0193 N.am      15 UNK        -0.5000 
     85 CA         -7.6326  -20.9663  -49.5352 C.3       15 UNK         0.1400 
     86 CB         -8.4928  -21.4266  -50.7315 C.3       15 UNK        -0.1800 
     87 C          -6.7885  -19.7140  -49.8515 C.2       15 UNK         0.5000 
     88 O          -7.0385  -19.0463  -50.8551 O.2       15 UNK        -0.5000 
     89 N          -5.7967  -19.4263  -48.9944 N.am      16 UNK        -0.5000 
     90 CA         -4.8138  -18.3439  -49.1287 C.3       16 UNK         0.1400 
     91 CB         -5.4775  -16.9602  -48.9694 C.3       16 UNK        -0.1800 
     92 C          -3.9935  -18.4859  -50.4274 C.2       16 UNK         0.5000 
     93 O          -3.9903  -17.5921  -51.2743 O.2       16 UNK        -0.5000 
     94 N          -3.3597  -19.6579  -50.5558 N.am      17 UNK        -0.5000 
     95 CA         -2.5246  -20.1504  -51.6549 C.3       17 UNK         0.1400 
     96 CB         -1.3819  -19.1694  -51.9825 C.3       17 UNK        -0.1800 
     97 C          -3.2883  -20.5376  -52.9334 C.2       17 UNK         0.5000 
     98 O          -2.6757  -21.1443  -53.8123 O.2       17 UNK        -0.5000 
     99 N          -4.5833  -20.2085  -53.0349 N.am      18 UNK        -0.5000 
    100 CA        -5.3919  -20.3963  -54.2392 C.3       18 UNK         0.1400 
    101 CB        -6.7170  -19.6343  -54.0985 C.3       18 UNK        -0.1800 
    102 C         -5.6517  -21.8708  -54.5898 C.2       18 UNK         0.5000 
    103 O         -5.6306  -22.2145  -55.7721 O.2       18 UNK        -0.5000 
    104 N         -5.8726  -22.7188  -53.5747 N.am      19 UNK        -0.5000 
    105 CA        -6.0967  -24.1549  -53.7677 C.3       19 UNK         0.1400 
    106 CB        -6.9574  -24.7106  -52.6233 C.3       19 UNK        -0.1800 
    107 C         -4.7732  -24.9306  -53.8957 C.2       19 UNK         0.5000 
    108 O         -4.7470  -25.9809  -54.5379 O.2       19 UNK        -0.5000 
    109 N         -3.6969  -24.3932  -53.3040 N.am      20 UNK        -0.5000 
    110 CA        -2.3381  -24.9274  -53.4162 C.3       20 UNK         0.1400 
    111 CB        -1.4918  -24.4116  -52.2391 C.3       20 UNK        -0.1800 
    112 C         -1.6572  -24.5572  -54.7465 C.2       20 UNK         0.5000 
    113 O         -0.6771  -25.2041  -55.1168 O.2       20 UNK        -0.5000 
    114 N         -2.1368  -23.4869  -55.3993 N.am      21 UNK        -0.5000 
    115 CA        -1.5319  -22.7999  -56.5470 C.3       21 UNK         0.1400 
    116 CB        -1.6149  -23.6751  -57.8144 C.3       21 UNK        -0.1800 
    117 C         -0.0996  -22.3140  -56.2297 C.2       21 UNK         0.5000 
    118 O          0.8003  -22.4440  -57.0611 O.2       21 UNK        -0.5000 
    119 N          0.0814  -21.8196  -54.9961 N.am      22 UNK        -0.5000 
    120 CA         1.3678  -21.4904  -54.3539 C.3       22 UNK         0.1400 
    121 C          2.3057  -22.7098  -54.0790 C.2       22 UNK         0.5000 
    122 N          1.8834  -23.9547  -54.2674 N.am      22 UNK        -0.7600 
    123 O          3.4406  -22.5284  -53.6467 O.2       22 UNK        -0.5000 
    124 C124        2.1187  -20.3192  -55.0519 C.3       23 UNK        -0.0398 
    125 S125        1.2440  -18.7233  -54.8965 S.3       23 UNK        -0.2404 
    126 C126        2.3944  -17.7671  -53.8501 C.3       23 UNK        -0.0205 
    127 H127       -4.1101  -12.2609  -47.5564 H         1 UNK         0.0600 
    128 H128       -4.7190  -13.8189  -48.1204 H         1 UNK         0.0600 
    129 H129       -5.2517  -13.1740  -46.5644 H         1 UNK         0.0600 
    130 H130       -3.2409  -15.4689  -47.8622 H         1 UNK         0.3000 
    131 H131       -0.8177  -15.1756  -46.4840 H         1 UNK         0.0600 
    132 H132       -0.2939  -17.4545  -47.2174 H         1 UNK         0.0800 
    133 H133       -1.9705  -17.7944  -47.5422 H         1 UNK         0.0800 
    134 H134        1.1964  -16.0386  -48.3907 H         1 UNK         0.0800 
    135 H135        0.9044  -15.1161  -49.8385 H         1 UNK         0.0800 
    136 H136        1.2699  -16.0666  -52.0427 H         1 UNK         0.1150 
    137 H137        3.0035  -19.9790  -52.3419 H         1 UNK         0.1150 
    138 H138        1.6092  -18.5326  -48.5587 H         1 UNK         0.1150 
    139 H139        3.5552  -21.1682  -50.2381 H         1 UNK         0.0800 
    140 H140        2.9199  -20.6251  -48.7047 H         1 UNK         0.0800 
    141 H141        0.5204  -20.5838  -48.0889 H         1 UNK         0.0800 
    142 H142       -0.4760  -20.3649  -49.4967 H         1 UNK         0.0800 
    143 H143       -1.4833  -22.6222  -49.1509 H         1 UNK         0.0600 
    144 H144        0.6383  -23.0845  -47.4276 H         1 UNK         0.3000 
    145 H145       -0.5795  -25.4920  -45.2323 H         1 UNK         0.0600 
    146 H146        0.7874  -27.1578  -46.4821 H         1 UNK         0.0600 
    147 H147       -0.7567  -26.8993  -47.2787 H         1 UNK         0.0600 
    148 H148        0.7000  -26.1660  -47.9387 H         1 UNK         0.0600 
    149 H149        1.9937  -24.7341  -46.4202 H         1 UNK         0.3000 
    150 H150        3.3702  -23.4909  -43.9993 H         1 UNK         0.0600 
    151 H151        3.7744  -23.8905  -46.4004 H         1 UNK         0.0600 
    152 H152        4.3916  -22.3078  -45.9837 H         1 UNK         0.0600 
    153 H153        2.8646  -22.4458  -46.8443 H         1 UNK         0.0600 
    154 H154        3.1015  -21.3969  -43.3337 H         1 UNK         0.3000 
    155 H155        1.0286  -18.6792  -44.3719 H         1 UNK         0.0600 
    156 H156        0.4380  -20.2461  -42.3466 H         1 UNK         0.0600 
    157 H157        0.9015  -18.6140  -41.9480 H         1 UNK         0.0600 
    158 H158        2.0637  -19.9264  -41.7647 H         1 UNK         0.0600 
    159 H159        3.7706  -19.3503  -44.3084 H         1 UNK         0.3000 
    160 H160        1.3981  -16.8037  -43.2555 H         1 UNK         0.0600 
    161 H161        3.5529  -15.7686  -41.3545 H         1 UNK         0.0600 
    162 H162        2.6893  -17.2742  -41.0821 H         1 UNK         0.0600 
    163 H163        1.8020  -15.7624  -41.1280 H         1 UNK         0.0600 
    164 H164        2.7712  -14.3770  -43.1081 H         1 UNK         0.3000 
    165 H165        3.1961  -13.2331  -45.8865 H         1 UNK         0.0600 
    166 H166        1.2385  -11.9912  -46.7654 H         1 UNK         0.0600 
    167 H167        1.1579  -13.6624  -47.2912 H         1 UNK         0.0600 
    168 H168        0.1338  -13.1049  -45.9672 H         1 UNK         0.0600 
    169 H169        1.3787  -12.7373  -43.5772 H         1 UNK         0.3000 
    170 H170        3.4838  -10.2564  -42.3266 H         1 UNK         0.0600 
    171 H171        2.3796   -8.6946  -43.9352 H         1 UNK         0.0600 
    172 H172        0.8295   -9.4785  -43.6538 H         1 UNK         0.0600 
    173 H173        1.6311   -8.5994  -42.3502 H         1 UNK         0.0600 
    174 H174        0.7710  -10.9205  -41.6717 H         1 UNK         0.3000 
    175 H175        1.3838  -13.8846  -39.8838 H         1 UNK         0.0600 
    176 H176        0.9163  -11.0971  -38.7078 H         1 UNK         0.0600 
    177 H177        0.5599  -12.6357  -37.9212 H         1 UNK         0.0600 
    178 H178        2.2232  -12.1850  -38.2553 H         1 UNK         0.0600 
    179 H179       -0.9337  -12.3720  -39.8567 H         1 UNK         0.3000 
    180 H180       -2.7573  -13.1956  -40.9285 H         1 UNK         0.0600 
    181 H181       -2.0004  -11.8012  -43.5552 H         1 UNK         0.0600 
    182 H182       -3.6215  -11.8207  -42.8615 H         1 UNK         0.0600 
    183 H183       -2.3074  -11.0251  -42.0086 H         1 UNK         0.0600 
    184 H184       -2.7799  -14.1816  -43.6802 H         1 UNK         0.3000 
    185 H185       -2.7704  -17.5782  -42.8737 H         1 UNK         0.0600 
    186 H186       -5.1106  -17.8419  -43.6602 H         1 UNK         0.0600 
    187 H187       -5.0833  -17.2659  -42.0014 H         1 UNK         0.0600 
    188 H188       -5.4439  -16.1446  -43.3089 H         1 UNK         0.0600 
    189 H189       -3.7835  -15.9647  -45.0978 H         1 UNK         0.3000 
    190 H190       -0.9453  -21.2701  -45.8993 H         1 UNK         0.3000 
    191 H191       -3.0520  -19.4334  -45.7480 H         1 UNK         0.0600 
    192 H192       -2.8523  -19.8819  -43.2413 H         1 UNK         0.0600 
    193 H193       -1.3235  -19.5415  -44.0372 H         1 UNK         0.0600 
    194 H194       -1.7470  -21.1981  -43.6097 H         1 UNK         0.0600 
    195 H195       -3.1424  -22.9620  -45.2218 H         1 UNK         0.3000 
    196 H196       -5.9685  -22.9848  -44.4363 H         1 UNK         0.0600 
    197 H197       -5.6282  -25.4468  -44.3838 H         1 UNK         0.0600 
    198 H198       -4.3836  -24.6270  -43.4535 H         1 UNK         0.0600 
    199 H199       -4.0126  -25.2646  -45.0545 H         1 UNK         0.0600 
    200 H200       -3.9707  -23.7492  -47.2851 H         1 UNK         0.3000 
    201 H201       -6.1190  -24.7275  -48.9297 H         1 UNK         0.0600 
    202 H202       -3.7423  -25.5004  -49.0728 H         1 UNK         0.0600 
    203 H203       -3.2724  -23.9058  -49.6549 H         1 UNK         0.0600 
    204 H204       -4.3397  -24.9210  -50.6161 H         1 UNK         0.0600 
    205 H205       -7.1586  -22.4759  -48.1300 H         1 UNK         0.3000 
    206 H206       -8.3130  -20.6745  -48.7341 H         1 UNK         0.0600 
    207 H207       -9.1083  -22.2862  -50.4664 H         1 UNK         0.0600 
    208 H208       -9.1682  -20.6354  -51.0592 H         1 UNK         0.0600 
    209 H209       -7.8786  -21.7080  -51.5865 H         1 UNK         0.0600 
    210 H210       -5.6362  -20.0689  -48.2302 H         1 UNK         0.3000 
    211 H211       -4.1119  -18.4629  -48.3031 H         1 UNK         0.0600 
    212 H212       -6.2192  -16.7696  -49.7453 H         1 UNK         0.0600 
    213 H213       -4.7352  -16.1651  -49.0338 H         1 UNK         0.0600 
    214 H214       -5.9724  -16.8695  -48.0024 H         1 UNK         0.0600 
    215 H215       -3.4754  -20.3151  -49.7865 H         1 UNK         0.3000 
    216 H216       -2.0738  -21.0709  -51.2831 H         1 UNK         0.0600 
    217 H217       -1.7404  -18.2899  -52.5178 H         1 UNK         0.0600 
    218 H218       -0.6305  -19.6442  -52.6124 H         1 UNK         0.0600 
    219 H219       -0.8762  -18.8207  -51.0846 H         1 UNK         0.0600 
    220 H220       -5.0208  -19.7260  -52.2616 H         1 UNK         0.3000 
    221 H221       -4.8411  -19.9542  -55.0723 H         1 UNK         0.0600 
    222 H222       -7.3419  -20.0551  -53.3111 H         1 UNK         0.0600 
    223 H223       -6.5474  -18.5828  -53.8660 H         1 UNK         0.0600 
    224 H224       -7.2899  -19.6754  -55.0257 H         1 UNK         0.0600 
    225 H225       -5.8214  -22.3821  -52.6170 H         1 UNK         0.3000 
    226 H226       -6.6555  -24.3057  -54.6940 H         1 UNK         0.0600 
    227 H227       -7.8870  -24.1511  -52.5188 H         1 UNK         0.0600 
    228 H228       -7.2241  -25.7513  -52.8116 H         1 UNK         0.0600 
    229 H229       -6.4370  -24.6799  -51.6690 H         1 UNK         0.0600 
    230 H230       -3.8121  -23.5286  -52.7954 H         1 UNK         0.3000 
    231 H231       -2.3754  -26.0173  -53.3580 H         1 UNK         0.0600 
    232 H232       -1.4968  -23.3230  -52.1801 H         1 UNK         0.0600 
    233 H233       -1.8528  -24.8067  -51.2916 H         1 UNK         0.0600 
    234 H234       -0.4515  -24.7265  -52.3330 H         1 UNK         0.0600 
    235 H235       -2.8933  -22.9801  -54.9577 H         1 UNK         0.3000 
    236 H236       -2.1297  -21.9037  -56.7201 H         1 UNK         0.0600 
    237 H237       -2.6397  -23.9935  -58.0052 H         1 UNK         0.0600 
    238 H238       -1.2779  -23.1228  -58.6923 H         1 UNK         0.0600 
    239 H239       -0.9956  -24.5687  -57.7327 H         1 UNK         0.0600 
    240 H240       -0.7420  -21.7176  -54.4135 H         1 UNK         0.3000 
    241 H241        1.0974  -21.1524  -53.3537 H         1 UNK         0.0600 
    242 H242        0.9638  -24.1617  -54.6391 H         1 UNK         0.3800 
    243 H243        2.5135  -24.7145  -54.0667 H         1 UNK         0.3800 
    244 H244        2.2652  -20.5292  -56.1113 H         1 UNK         0.0800 
    245 H245        3.1248  -20.2011  -54.6496 H         1 UNK         0.0800 
    246 H246        3.4291  -17.9972  -54.1071 H         1 UNK         0.0800 
    247 H247        2.2626  -16.7103  -54.0869 H         1 UNK         0.0800 
@<TRIPOS>BOND
     1    1    2 1    
     2    1  127 1    
     3    1  128 1    
     4    1  129 1    
     5    2    3 2    
     6    2    4 am   BACKBONE|DICT|INTERRES
     7    4    5 1    
     8    4  130 1    
     9    5    6 1    
    10    5   65 1    
    11    5  131 1    
    12    6    7 1    
    13    6  132 1    
    14    6  133 1    
    15    7    8 1    
    16    8    9 1    
    17    8  134 1    
    18    8  135 1    
    19    9   10 ar   
    20    9   14 ar   
    21   10   11 ar   
    22   10  136 1    
    23   11   12 ar   
    24   11  126 1    
    25   12   13 ar   
    26   12  137 1    
    27   13   14 ar   
    28   13   15 1    
    29   14  138 1    
    30   15   16 1    
    31   15  139 1    
    32   15  140 1    
    33   16   17 1    
    34   17   18 1    
    35   17  141 1    
    36   17  142 1    
    37   18   19 1    
    38   18   67 1    
    39   18  143 1    
    40   19   20 am   BACKBONE|DICT|INTERRES
    41   19  144 1    
    42   20   21 2    
    43   20   22 1    
    44   22   23 1    
    45   22   24 1    
    46   22  145 1    
    47   23  146 1    
    48   23  147 1    
    49   23  148 1    
    50   24   25 am   BACKBONE|DICT|INTERRES
    51   24  149 1    
    52   25   26 2    
    53   25   27 1    
    54   27   28 1    
    55   27   29 1    
    56   27  150 1    
    57   28  151 1    
    58   28  152 1    
    59   28  153 1    
    60   29   30 am   BACKBONE|DICT|INTERRES
    61   29  154 1    
    62   30   31 2    
    63   30   32 1    
    64   32   33 1    
    65   32   34 1    
    66   32  155 1    
    67   33  156 1    
    68   33  157 1    
    69   33  158 1    
    70   34   35 am   BACKBONE|DICT|INTERRES
    71   34  159 1    
    72   35   36 2    
    73   35   37 1    
    74   37   38 1    
    75   37   39 1    
    76   37  160 1    
    77   38  161 1    
    78   38  162 1    
    79   38  163 1    
    80   39   40 am   BACKBONE|DICT|INTERRES
    81   39  164 1    
    82   40   41 2    
    83   40   42 1    
    84   42   43 1    
    85   42   44 1    
    86   42  165 1    
    87   43  166 1    
    88   43  167 1    
    89   43  168 1    
    90   44   45 am   BACKBONE|DICT|INTERRES
    91   44  169 1    
    92   45   46 2    
    93   45   47 1    
    94   47   48 1    
    95   47   49 1    
    96   47  170 1    
    97   48  171 1    
    98   48  172 1    
    99   48  173 1    
   100   49   50 am   BACKBONE|DICT|INTERRES
   101   49  174 1    
   102   50   51 2    
   103   50   52 1    
   104   52   53 1    
   105   52   54 1    
   106   52  175 1    
   107   53  176 1    
   108   53  177 1    
   109   53  178 1    
   110   54   55 am   BACKBONE|DICT|INTERRES
   111   54  179 1    
   112   55   56 2    
   113   55   57 1    
   114   57   58 1    
   115   57   59 1    
   116   57  180 1    
   117   58  181 1    
   118   58  182 1    
   119   58  183 1    
   120   59   60 am   BACKBONE|DICT|INTERRES
   121   59  184 1    
   122   60   61 2    
   123   60   62 1    
   124   62   63 1    
   125   62   64 1    
   126   62  185 1    
   127   63  186 1    
   128   63  187 1    
   129   63  188 1    
   130   64   65 am   BACKBONE|DICT|INTERRES
   131   64  189 1    
   132   65   66 2    
   133   67   68 2    
   134   67   69 am   BACKBONE|DICT|INTERRES
   135   69   70 1    
   136   69  190 1    
   137   70   71 1    
   138   70   72 1    
   139   70  191 1    
   140   71  192 1    
   141   71  193 1    
   142   71  194 1    
   143   72   73 2    
   144   72   74 am   BACKBONE|DICT|INTERRES
   145   74   75 1    
   146   74  195 1    
   147   75   76 1    
   148   75   77 1    
   149   75  196 1    
   150   76  197 1    
   151   76  198 1    
   152   76  199 1    
   153   77   78 2    
   154   77   79 am   BACKBONE|DICT|INTERRES
   155   79   80 1    
   156   79  200 1    
   157   80   81 1    
   158   80   82 1    
   159   80  201 1    
   160   81  202 1    
   161   81  203 1    
   162   81  204 1    
   163   82   83 2    
   164   82   84 am   BACKBONE|DICT|INTERRES
   165   84   85 1    
   166   84  205 1    
   167   85   86 1    
   168   85   87 1    
   169   85  206 1    
   170   86  207 1    
   171   86  208 1    
   172   86  209 1    
   173   87   88 2    
   174   87   89 am   BACKBONE|DICT|INTERRES
   175   89   90 1    
   176   89  210 1    
   177   90   91 1    
   178   90   92 1    
   179   90  211 1    
   180   91  212 1    
   181   91  213 1    
   182   91  214 1    
   183   92   93 2    
   184   92   94 am   BACKBONE|DICT|INTERRES
   185   94   95 1    
   186   94  215 1    
   187   95   96 1    
   188   95   97 1    
   189   95  216 1    
   190   96  217 1    
   191   96  218 1    
   192   96  219 1    
   193   97   98 2    
   194   97   99 am   BACKBONE|DICT|INTERRES
   195   99  100 1    
   196   99  220 1    
   197  100  101 1    
   198  100  102 1    
   199  100  221 1    
   200  101  222 1    
   201  101  223 1    
   202  101  224 1    
   203  102  103 2    
   204  102  104 am   BACKBONE|DICT|INTERRES
   205  104  105 1    
   206  104  225 1    
   207  105  106 1    
   208  105  107 1    
   209  105  226 1    
   210  106  227 1    
   211  106  228 1    
   212  106  229 1    
   213  107  108 2    
   214  107  109 am   BACKBONE|DICT|INTERRES
   215  109  110 1    
   216  109  230 1    
   217  110  111 1    
   218  110  112 1    
   219  110  231 1    
   220  111  232 1    
   221  111  233 1    
   222  111  234 1    
   223  112  113 2    
   224  112  114 am   BACKBONE|DICT|INTERRES
   225  114  115 1    
   226  114  235 1    
   227  115  116 1    
   228  115  117 1    
   229  115  236 1    
   230  116  237 1    
   231  116  238 1    
   232  116  239 1    
   233  117  118 2    
   234  117  119 am   BACKBONE|DICT|INTERRES
   235  119  120 1    
   236  119  240 1    
   237  120  121 1    
   238  120  124 1    
   239  120  241 1    
   240  121  122 am   BACKBONE|DICT|INTERRES
   241  121  123 2    
   242  122  242 1    
   243  122  243 1    
   244  124  125 1    
   245  124  244 1    
   246  124  245 1    
   247  125  126 1    
   248  126  246 1    
   249  126  247 1    
@<TRIPOS>SUBSTRUCTURE
     1 UNK         1 GROUP             0       ****    0 ROOT    
