@<TRIPOS>MOLECULE
3R540
247   249    1
SMALL
USER_CHARGES


@<TRIPOS>ATOM
      1 CA          1.9842  -18.6840  -47.7140 C.3       0 UNK        -0.1800 
      2 C           2.2269  -17.1847  -47.7982 C.2       0 UNK         0.5000 
      3 O           2.5189  -16.6668  -48.8747 O.2       0 UNK        -0.5000 
      4 N           2.1006  -16.4914  -46.6576 N.am      1 UNK        -0.5000 
      5 CA          2.1817  -15.0301  -46.4753 C.3       1 UNK         0.1400 
      6 C6          1.0634  -14.2565  -47.2325 C.3       23 UNK        -0.0398 
      7 S7         -0.6154  -14.5445  -46.5691 S.3       23 UNK        -0.2404 
      8 C8         -1.0422  -16.1416  -47.3226 C.3       23 UNK        -0.0205 
      9 C9         -2.5391  -16.3141  -47.5102 C.ar      23 UNK        -0.0193 
     10 C10        -3.1121  -16.0927  -48.7638 C.ar      23 UNK        -0.1150 
     11 C11        -4.4697  -16.3373  -48.9789 C.ar      23 UNK        -0.0193 
     12 C12        -5.2644  -16.7844  -47.9194 C.ar      23 UNK        -0.1150 
     13 C13        -4.7098  -16.9841  -46.6501 C.ar      23 UNK        -0.0193 
     14 C14        -3.3450  -16.7435  -46.4531 C.ar      23 UNK        -0.1150 
     15 C15        -5.5964  -17.4360  -45.4945 C.3       23 UNK        -0.0205 
     16 S16        -4.9470  -18.8836  -44.5955 S.3       23 UNK        -0.2404 
     17 C17        -4.9424  -20.1765  -45.8841 C.3       23 UNK        -0.0398 
     18 CA         -3.5293  -20.4527  -46.4535 C.3       11 UNK         0.1400 
     19 N          -2.5372  -20.7163  -45.4044 N.am      11 UNK        -0.5000 
     20 C          -1.2233  -20.8726  -45.6024 C.2       10 UNK         0.5000 
     21 O          -0.7076  -20.8505  -46.7219 O.2       10 UNK        -0.5000 
     22 CA         -0.3658  -21.1203  -44.3451 C.3       10 UNK         0.1400 
     23 CB          1.1431  -21.1597  -44.6462 C.3       10 UNK        -0.1800 
     24 N          -0.6246  -20.1284  -43.2984 N.am      10 UNK        -0.5000 
     25 C          -1.6167  -20.1960  -42.3970 C.2       9 UNK         0.5000 
     26 O          -2.4670  -21.0869  -42.4045 O.2       9 UNK        -0.5000 
     27 CA         -1.6827  -19.1064  -41.3069 C.3       9 UNK         0.1400 
     28 CB         -1.1728  -19.6604  -39.9678 C.3       9 UNK        -0.1800 
     29 N          -0.9059  -17.9156  -41.6465 N.am      9 UNK        -0.5000 
     30 C          -1.3272  -16.9477  -42.4733 C.2       8 UNK         0.5000 
     31 O          -2.4645  -16.9005  -42.9375 O.2       8 UNK        -0.5000 
     32 CA         -0.3070  -15.8606  -42.8693 C.3       8 UNK         0.1400 
     33 CB         -0.6055  -14.5382  -42.1509 C.3       8 UNK        -0.1800 
     34 N           1.0843  -16.2507  -42.6218 N.am      8 UNK        -0.5000 
     35 C           1.7185  -17.2225  -43.2911 C.2       7 UNK         0.5000 
     36 O           1.2245  -17.7987  -44.2592 O.2       7 UNK        -0.5000 
     37 CA          3.1226  -17.6378  -42.8190 C.3       7 UNK         0.1400 
     38 CB          4.1617  -17.3028  -43.8988 C.3       7 UNK        -0.1800 
     39 N           3.5315  -17.0398  -41.5447 N.am      7 UNK        -0.5000 
     40 C           3.0401  -17.3841  -40.3455 C.2       6 UNK         0.5000 
     41 O           2.1009  -18.1684  -40.2046 O.2       6 UNK        -0.5000 
     42 CA          3.6796  -16.7370  -39.1059 C.3       6 UNK         0.1400 
     43 CB          4.9450  -17.5018  -38.6866 C.3       6 UNK        -0.1800 
     44 N           4.0141  -15.3300  -39.3331 N.am      6 UNK        -0.5000 
     45 C           3.7614  -14.3339  -38.4712 C.2       5 UNK         0.5000 
     46 O           3.2556  -14.5026  -37.3607 O.2       5 UNK        -0.5000 
     47 CA          4.1225  -12.8987  -38.9176 C.3       5 UNK         0.1400 
     48 CB          5.4936  -12.4928  -38.3559 C.3       5 UNK        -0.1800 
     49 N           4.1370  -12.7222  -40.3713 N.am      5 UNK        -0.5000 
     50 C           3.0747  -12.8738  -41.1723 C.2       4 UNK         0.5000 
     51 O           1.9311  -13.0346  -40.7490 O.2       4 UNK        -0.5000 
     52 CA          3.3187  -12.9032  -42.6966 C.3       4 UNK         0.1400 
     53 CB          2.7556  -11.6357  -43.3567 C.3       4 UNK        -0.1800 
     54 N           4.7065  -13.0929  -43.1443 N.am      4 UNK        -0.5000 
     55 C           5.5393  -14.0860  -42.8029 C.2       3 UNK         0.5000 
     56 O           5.2863  -14.9291  -41.9405 O.2       3 UNK        -0.5000 
     57 CA          6.8135  -14.2072  -43.6461 C.3       3 UNK         0.1400 
     58 CB          7.8535  -15.1591  -43.0284 C.3       3 UNK        -0.1800 
     59 N           6.3894  -14.7266  -44.9394 N.am      3 UNK        -0.5000 
     60 C           6.7064  -14.2257  -46.1364 C.2       2 UNK         0.5000 
     61 O           7.5083  -13.3078  -46.3118 O.2       2 UNK        -0.5000 
     62 CA          5.9709  -14.8466  -47.3399 C.3       2 UNK         0.1400 
     63 CB          6.7466  -16.0578  -47.8793 C.3       2 UNK        -0.1800 
     64 N           4.5958  -15.2587  -47.0317 N.am      2 UNK        -0.5000 
     65 C           3.5846  -14.4240  -46.7454 C.2       1 UNK         0.5000 
     66 O           3.7355  -13.2052  -46.6568 O.2       1 UNK        -0.5000 
     67 C          -3.5819  -21.5835  -47.5006 C.2       11 UNK         0.5000 
     68 O          -3.7453  -21.3025  -48.6846 O.2       11 UNK        -0.5000 
     69 N          -3.3792  -22.8314  -47.0536 N.am      12 UNK        -0.5000 
     70 CA         -3.3143  -24.0290  -47.8944 C.3       12 UNK         0.1400 
     71 CB         -3.5055  -25.2658  -47.0031 C.3       12 UNK        -0.1800 
     72 C          -2.0148  -24.1521  -48.7184 C.2       12 UNK         0.5000 
     73 O          -1.9624  -24.9888  -49.6207 O.2       12 UNK        -0.5000 
     74 N          -0.9905  -23.3453  -48.4029 N.am      13 UNK        -0.5000 
     75 CA          0.2244  -23.2223  -49.2089 C.3       13 UNK         0.1400 
     76 CB          1.4280  -22.9086  -48.3058 C.3       13 UNK        -0.1800 
     77 C           0.0479  -22.1368  -50.2830 C.2       13 UNK         0.5000 
     78 O           0.4861  -22.3328  -51.4165 O.2       13 UNK        -0.5000 
     79 N          -0.6038  -21.0234  -49.9132 N.am      14 UNK        -0.5000 
     80 CA         -0.9430  -19.9196  -50.8122 C.3       14 UNK         0.1400 
     81 CB         -1.4100  -18.7168  -49.9847 C.3       14 UNK        -0.1800 
     82 C          -2.0008  -20.3325  -51.8510 C.2       14 UNK         0.5000 
     83 O          -1.7661  -20.2050  -53.0534 O.2       14 UNK        -0.5000 
     84 N          -3.1174  -20.8904  -51.3702 N.am      15 UNK        -0.5000 
     85 CA         -4.0990  -21.6127  -52.1661 C.3       15 UNK         0.1400 
     86 CB         -5.5072  -21.3960  -51.5825 C.3       15 UNK        -0.1800 
     87 C          -3.6857  -23.0894  -52.1682 C.2       15 UNK         0.5000 
     88 O          -4.2770  -23.8938  -51.4475 O.2       15 UNK        -0.5000 
     89 N          -2.6385  -23.3952  -52.9465 N.am      16 UNK        -0.5000 
     90 CA         -2.0352  -24.7164  -53.1221 C.3       16 UNK         0.1400 
     91 CB         -0.9651  -24.6334  -54.2214 C.3       16 UNK        -0.1800 
     92 C          -3.0799  -25.8003  -53.4461 C.2       16 UNK         0.5000 
     93 O          -3.7173  -25.7382  -54.5007 O.2       16 UNK        -0.5000 
     94 N          -3.2674  -26.7271  -52.4950 N.am      17 UNK        -0.5000 
     95 CA         -4.2588  -27.8108  -52.4953 C.3       17 UNK         0.1400 
     96 CB         -3.9211  -28.8509  -53.5840 C.3       17 UNK        -0.1800 
     97 C          -5.7197  -27.3116  -52.5829 C.2       17 UNK         0.5000 
     98 O          -6.5752  -28.0120  -53.1269 O.2       17 UNK        -0.5000 
     99 N          -5.9717  -26.0933  -52.0795 N.am      18 UNK        -0.5000 
    100 CA        -7.2092  -25.3029  -52.1060 C.3       18 UNK         0.1400 
    101 CB        -8.3722  -26.0357  -51.4118 C.3       18 UNK        -0.1800 
    102 C         -7.6134  -24.8123  -53.5102 C.2       18 UNK         0.5000 
    103 O         -8.0031  -23.6532  -53.6539 O.2       18 UNK        -0.5000 
    104 N         -7.4965  -25.6871  -54.5167 N.am      19 UNK        -0.5000 
    105 CA        -7.9127  -25.4984  -55.9076 C.3       19 UNK         0.1400 
    106 CB        -7.6209  -26.7903  -56.6859 C.3       19 UNK        -0.1800 
    107 C         -7.2832  -24.2890  -56.6241 C.2       19 UNK         0.5000 
    108 O         -7.9185  -23.7283  -57.5181 O.2       19 UNK        -0.5000 
    109 N         -6.0647  -23.8969  -56.2237 N.am      20 UNK        -0.5000 
    110 CA        -5.3719  -22.7189  -56.7526 C.3       20 UNK         0.1400 
    111 CB        -3.8984  -22.7638  -56.3291 C.3       20 UNK        -0.1800 
    112 C         -6.0149  -21.3828  -56.3262 C.2       20 UNK         0.5000 
    113 O         -5.8401  -20.3869  -57.0293 O.2       20 UNK        -0.5000 
    114 N         -6.7339  -21.3803  -55.1903 N.am      21 UNK        -0.5000 
    115 CA        -7.5592  -20.2869  -54.6539 C.3       21 UNK         0.1400 
    116 CB        -8.8509  -20.1665  -55.4878 C.3       21 UNK        -0.1800 
    117 C         -6.8355  -18.9283  -54.4919 C.2       21 UNK         0.5000 
    118 O         -7.4743  -17.8796  -54.5934 O.2       21 UNK        -0.5000 
    119 N         -5.5158  -18.9743  -54.2628 N.am      22 UNK        -0.5000 
    120 CA        -4.5926  -17.8245  -54.2202 C.3       22 UNK         0.1400 
    121 C         -4.3856  -17.1162  -55.5970 C.2       22 UNK         0.5000 
    122 N         -4.7437  -17.7223  -56.7233 N.am      22 UNK        -0.7600 
    123 O         -3.8595  -16.0079  -55.6564 O.2       22 UNK        -0.5000 
    124 C124       -4.8990  -16.8189  -53.0716 C.3       23 UNK        -0.0398 
    125 S125       -4.7827  -17.5772  -51.4186 S.3       23 UNK        -0.2404 
    126 C126       -5.0606  -16.1231  -50.3624 C.3       23 UNK        -0.0205 
    127 H127        2.8698  -19.1933  -47.3346 H         1 UNK         0.0600 
    128 H128        1.7459  -19.0943  -48.6955 H         1 UNK         0.0600 
    129 H129        1.1478  -18.9003  -47.0500 H         1 UNK         0.0600 
    130 H130        1.8236  -17.0054  -45.8240 H         1 UNK         0.3000 
    131 H131        2.0182  -14.8650  -45.4094 H         1 UNK         0.0600 
    132 H132        1.2229  -13.1796  -47.1575 H         1 UNK         0.0800 
    133 H133        1.0823  -14.4775  -48.3003 H         1 UNK         0.0800 
    134 H134       -0.6613  -16.9494  -46.6958 H         1 UNK         0.0800 
    135 H135       -0.5420  -16.2328  -48.2870 H         1 UNK         0.0800 
    136 H136       -2.4941  -15.7590  -49.5855 H         1 UNK         0.1150 
    137 H137       -6.3160  -16.9721  -48.0848 H         1 UNK         0.1150 
    138 H138       -2.9054  -16.9083  -45.4802 H         1 UNK         0.1150 
    139 H139       -5.6935  -16.6078  -44.7916 H         1 UNK         0.0800 
    140 H140       -6.6052  -17.6629  -45.8426 H         1 UNK         0.0800 
    141 H141       -5.6265  -19.8888  -46.6847 H         1 UNK         0.0800 
    142 H142       -5.3587  -21.0824  -45.4399 H         1 UNK         0.0800 
    143 H143       -3.1988  -19.5554  -46.9802 H         1 UNK         0.0600 
    144 H144       -2.8816  -20.7426  -44.4515 H         1 UNK         0.3000 
    145 H145       -0.6409  -22.1077  -43.9688 H         1 UNK         0.0600 
    146 H146        1.7229  -21.3296  -43.7390 H         1 UNK         0.0600 
    147 H147        1.3809  -21.9691  -45.3368 H         1 UNK         0.0600 
    148 H148        1.4937  -20.2333  -45.0980 H         1 UNK         0.0600 
    149 H149       -0.0177  -19.3191  -43.2998 H         1 UNK         0.3000 
    150 H150       -2.7310  -18.8266  -41.1826 H         1 UNK         0.0600 
    151 H151       -1.7517  -20.5316  -39.6584 H         1 UNK         0.0600 
    152 H152       -1.2572  -18.9167  -39.1752 H         1 UNK         0.0600 
    153 H153       -0.1274  -19.9658  -40.0307 H         1 UNK         0.0600 
    154 H154        0.0372  -17.8738  -41.2815 H         1 UNK         0.3000 
    155 H155       -0.4258  -15.6961  -43.9404 H         1 UNK         0.0600 
    156 H156       -0.4347  -14.6150  -41.0766 H         1 UNK         0.0600 
    157 H157       -1.6430  -14.2361  -42.2994 H         1 UNK         0.0600 
    158 H158        0.0198  -13.7339  -42.5380 H         1 UNK         0.0600 
    159 H159        1.5451  -15.8249  -41.8310 H         1 UNK         0.3000 
    160 H160        3.1100  -18.7222  -42.6901 H         1 UNK         0.0600 
    161 H161        4.1162  -16.2507  -44.1746 H         1 UNK         0.0600 
    162 H162        3.9862  -17.8869  -44.8031 H         1 UNK         0.0600 
    163 H163        5.1742  -17.5263  -43.5617 H         1 UNK         0.0600 
    164 H164        4.2891  -16.3628  -41.5995 H         1 UNK         0.3000 
    165 H165        2.9469  -16.8218  -38.3006 H         1 UNK         0.0600 
    166 H166        5.3535  -17.1046  -37.7573 H         1 UNK         0.0600 
    167 H167        4.7283  -18.5581  -38.5216 H         1 UNK         0.0600 
    168 H168        5.7233  -17.4388  -39.4482 H         1 UNK         0.0600 
    169 H169        4.4484  -15.1000  -40.2218 H         1 UNK         0.3000 
    170 H170        3.3679  -12.2260  -38.5048 H         1 UNK         0.0600 
    171 H171        5.5134  -12.5842  -37.2691 H         1 UNK         0.0600 
    172 H172        6.2921  -13.1211  -38.7530 H         1 UNK         0.0600 
    173 H173        5.7286  -11.4561  -38.5977 H         1 UNK         0.0600 
    174 H174        5.0415  -12.6067  -40.8035 H         1 UNK         0.3000 
    175 H175        2.7517  -13.7546  -43.0776 H         1 UNK         0.0600 
    176 H176        3.3114  -10.7471  -43.0552 H         1 UNK         0.0600 
    177 H177        2.7949  -11.7048  -44.4440 H         1 UNK         0.0600 
    178 H178        1.7111  -11.4791  -43.0833 H         1 UNK         0.0600 
    179 H179        5.0063  -12.4695  -43.8808 H         1 UNK         0.3000 
    180 H180        7.2543  -13.2128  -43.7425 H         1 UNK         0.0600 
    181 H181        7.4654  -16.1732  -42.9239 H         1 UNK         0.0600 
    182 H182        8.1548  -14.8173  -42.0375 H         1 UNK         0.0600 
    183 H183        8.7517  -15.2088  -43.6439 H         1 UNK         0.0600 
    184 H184        5.7070  -15.4691  -44.9084 H         1 UNK         0.3000 
    185 H185        5.9275  -14.0903  -48.1265 H         1 UNK         0.0600 
    186 H186        7.7686  -15.7816  -48.1424 H         1 UNK         0.0600 
    187 H187        6.8024  -16.8614  -47.1439 H         1 UNK         0.0600 
    188 H188        6.2775  -16.4574  -48.7787 H         1 UNK         0.0600 
    189 H189        4.3840  -16.2413  -47.1223 H         1 UNK         0.3000 
    190 H190       -3.2343  -22.9680  -46.0638 H         1 UNK         0.3000 
    191 H191       -4.1417  -23.9911  -48.6065 H         1 UNK         0.0600 
    192 H192       -2.7090  -25.3556  -46.2635 H         1 UNK         0.0600 
    193 H193       -3.5065  -26.1806  -47.5975 H         1 UNK         0.0600 
    194 H194       -4.4565  -25.2262  -46.4716 H         1 UNK         0.0600 
    195 H195       -1.1019  -22.6725  -47.6546 H         1 UNK         0.3000 
    196 H196        0.4292  -24.1691  -49.7135 H         1 UNK         0.0600 
    197 H197        2.3549  -22.9297  -48.8799 H         1 UNK         0.0600 
    198 H198        1.5244  -23.6422  -47.5053 H         1 UNK         0.0600 
    199 H199        1.3549  -21.9210  -47.8511 H         1 UNK         0.0600 
    200 H200       -0.9010  -20.9339  -48.9500 H         1 UNK         0.3000 
    201 H201       -0.0380  -19.6291  -51.3498 H         1 UNK         0.0600 
    202 H202       -0.6408  -18.4062  -49.2792 H         1 UNK         0.0600 
    203 H203       -2.3142  -18.9383  -49.4164 H         1 UNK         0.0600 
    204 H204       -1.6270  -17.8655  -50.6305 H         1 UNK         0.0600 
    205 H205       -3.2325  -20.9794  -50.3611 H         1 UNK         0.3000 
    206 H206       -4.0997  -21.2527  -53.1958 H         1 UNK         0.0600 
    207 H207       -5.7878  -20.3442  -51.6023 H         1 UNK         0.0600 
    208 H208       -6.2542  -21.9425  -52.1583 H         1 UNK         0.0600 
    209 H209       -5.5793  -21.7377  -50.5498 H         1 UNK         0.0600 
    210 H210       -2.1921  -22.6418  -53.4507 H         1 UNK         0.3000 
    211 H211       -1.5319  -24.9732  -52.1894 H         1 UNK         0.0600 
    212 H212       -1.3901  -24.3225  -55.1765 H         1 UNK         0.0600 
    213 H213       -0.4870  -25.6017  -54.3741 H         1 UNK         0.0600 
    214 H214       -0.1818  -23.9231  -53.9550 H         1 UNK         0.0600 
    215 H215       -2.7319  -26.6345  -51.6412 H         1 UNK         0.3000 
    216 H216       -4.1693  -28.3054  -51.5273 H         1 UNK         0.0600 
    217 H217       -4.5599  -29.7307  -53.4980 H         1 UNK         0.0600 
    218 H218       -2.8896  -29.1922  -53.4973 H         1 UNK         0.0600 
    219 H219       -4.0573  -28.4456  -54.5872 H         1 UNK         0.0600 
    220 H220       -5.1764  -25.5695  -51.7214 H         1 UNK         0.3000 
    221 H221       -6.9947  -24.4099  -51.5172 H         1 UNK         0.0600 
    222 H222       -8.6812  -26.9272  -51.9578 H         1 UNK         0.0600 
    223 H223       -8.0994  -26.3381  -50.4007 H         1 UNK         0.0600 
    224 H224       -9.2451  -25.3866  -51.3327 H         1 UNK         0.0600 
    225 H225       -7.1635  -26.6146  -54.2690 H         1 UNK         0.3000 
    226 H226       -8.9929  -25.3403  -55.9001 H         1 UNK         0.0600 
    227 H227       -8.1499  -27.6399  -56.2534 H         1 UNK         0.0600 
    228 H228       -7.9406  -26.7042  -57.7253 H         1 UNK         0.0600 
    229 H229       -6.5554  -27.0243  -56.6866 H         1 UNK         0.0600 
    230 H230       -5.5871  -24.4365  -55.5132 H         1 UNK         0.3000 
    231 H231       -5.4096  -22.7650  -57.8431 H         1 UNK         0.0600 
    232 H232       -3.4168  -23.6811  -56.6685 H         1 UNK         0.0600 
    233 H233       -3.7976  -22.7122  -55.2478 H         1 UNK         0.0600 
    234 H234       -3.3417  -21.9266  -56.7522 H         1 UNK         0.0600 
    235 H235       -6.8553  -22.2665  -54.7121 H         1 UNK         0.3000 
    236 H236       -7.8477  -20.5923  -53.6473 H         1 UNK         0.0600 
    237 H237       -8.6433  -19.8202  -56.5008 H         1 UNK         0.0600 
    238 H238       -9.3617  -21.1270  -55.5606 H         1 UNK         0.0600 
    239 H239       -9.5510  -19.4633  -55.0354 H         1 UNK         0.0600 
    240 H240       -5.0794  -19.8809  -54.2260 H         1 UNK         0.3000 
    241 H241       -3.6155  -18.2575  -54.0036 H         1 UNK         0.0600 
    242 H242       -4.5921  -17.2539  -57.6022 H         1 UNK         0.3800 
    243 H243       -5.1673  -18.6468  -56.7195 H         1 UNK         0.3800 
    244 H244       -5.8846  -16.3689  -53.1930 H         1 UNK         0.0800 
    245 H245       -4.1851  -15.9940  -53.0928 H         1 UNK         0.0800 
    246 H246       -6.1309  -15.9212  -50.2987 H         1 UNK         0.0800 
    247 H247       -4.6060  -15.2403  -50.8144 H         1 UNK         0.0800 
@<TRIPOS>BOND
     1    1    2 1    
     2    1  127 1    
     3    1  128 1    
     4    1  129 1    
     5    2    3 2    
     6    2    4 am   BACKBONE|DICT|INTERRES
     7    4    5 1    
     8    4  130 1    
     9    5    6 1    
    10    5   65 1    
    11    5  131 1    
    12    6    7 1    
    13    6  132 1    
    14    6  133 1    
    15    7    8 1    
    16    8    9 1    
    17    8  134 1    
    18    8  135 1    
    19    9   10 ar   
    20    9   14 ar   
    21   10   11 ar   
    22   10  136 1    
    23   11   12 ar   
    24   11  126 1    
    25   12   13 ar   
    26   12  137 1    
    27   13   14 ar   
    28   13   15 1    
    29   14  138 1    
    30   15   16 1    
    31   15  139 1    
    32   15  140 1    
    33   16   17 1    
    34   17   18 1    
    35   17  141 1    
    36   17  142 1    
    37   18   19 1    
    38   18   67 1    
    39   18  143 1    
    40   19   20 am   BACKBONE|DICT|INTERRES
    41   19  144 1    
    42   20   21 2    
    43   20   22 1    
    44   22   23 1    
    45   22   24 1    
    46   22  145 1    
    47   23  146 1    
    48   23  147 1    
    49   23  148 1    
    50   24   25 am   BACKBONE|DICT|INTERRES
    51   24  149 1    
    52   25   26 2    
    53   25   27 1    
    54   27   28 1    
    55   27   29 1    
    56   27  150 1    
    57   28  151 1    
    58   28  152 1    
    59   28  153 1    
    60   29   30 am   BACKBONE|DICT|INTERRES
    61   29  154 1    
    62   30   31 2    
    63   30   32 1    
    64   32   33 1    
    65   32   34 1    
    66   32  155 1    
    67   33  156 1    
    68   33  157 1    
    69   33  158 1    
    70   34   35 am   BACKBONE|DICT|INTERRES
    71   34  159 1    
    72   35   36 2    
    73   35   37 1    
    74   37   38 1    
    75   37   39 1    
    76   37  160 1    
    77   38  161 1    
    78   38  162 1    
    79   38  163 1    
    80   39   40 am   BACKBONE|DICT|INTERRES
    81   39  164 1    
    82   40   41 2    
    83   40   42 1    
    84   42   43 1    
    85   42   44 1    
    86   42  165 1    
    87   43  166 1    
    88   43  167 1    
    89   43  168 1    
    90   44   45 am   BACKBONE|DICT|INTERRES
    91   44  169 1    
    92   45   46 2    
    93   45   47 1    
    94   47   48 1    
    95   47   49 1    
    96   47  170 1    
    97   48  171 1    
    98   48  172 1    
    99   48  173 1    
   100   49   50 am   BACKBONE|DICT|INTERRES
   101   49  174 1    
   102   50   51 2    
   103   50   52 1    
   104   52   53 1    
   105   52   54 1    
   106   52  175 1    
   107   53  176 1    
   108   53  177 1    
   109   53  178 1    
   110   54   55 am   BACKBONE|DICT|INTERRES
   111   54  179 1    
   112   55   56 2    
   113   55   57 1    
   114   57   58 1    
   115   57   59 1    
   116   57  180 1    
   117   58  181 1    
   118   58  182 1    
   119   58  183 1    
   120   59   60 am   BACKBONE|DICT|INTERRES
   121   59  184 1    
   122   60   61 2    
   123   60   62 1    
   124   62   63 1    
   125   62   64 1    
   126   62  185 1    
   127   63  186 1    
   128   63  187 1    
   129   63  188 1    
   130   64   65 am   BACKBONE|DICT|INTERRES
   131   64  189 1    
   132   65   66 2    
   133   67   68 2    
   134   67   69 am   BACKBONE|DICT|INTERRES
   135   69   70 1    
   136   69  190 1    
   137   70   71 1    
   138   70   72 1    
   139   70  191 1    
   140   71  192 1    
   141   71  193 1    
   142   71  194 1    
   143   72   73 2    
   144   72   74 am   BACKBONE|DICT|INTERRES
   145   74   75 1    
   146   74  195 1    
   147   75   76 1    
   148   75   77 1    
   149   75  196 1    
   150   76  197 1    
   151   76  198 1    
   152   76  199 1    
   153   77   78 2    
   154   77   79 am   BACKBONE|DICT|INTERRES
   155   79   80 1    
   156   79  200 1    
   157   80   81 1    
   158   80   82 1    
   159   80  201 1    
   160   81  202 1    
   161   81  203 1    
   162   81  204 1    
   163   82   83 2    
   164   82   84 am   BACKBONE|DICT|INTERRES
   165   84   85 1    
   166   84  205 1    
   167   85   86 1    
   168   85   87 1    
   169   85  206 1    
   170   86  207 1    
   171   86  208 1    
   172   86  209 1    
   173   87   88 2    
   174   87   89 am   BACKBONE|DICT|INTERRES
   175   89   90 1    
   176   89  210 1    
   177   90   91 1    
   178   90   92 1    
   179   90  211 1    
   180   91  212 1    
   181   91  213 1    
   182   91  214 1    
   183   92   93 2    
   184   92   94 am   BACKBONE|DICT|INTERRES
   185   94   95 1    
   186   94  215 1    
   187   95   96 1    
   188   95   97 1    
   189   95  216 1    
   190   96  217 1    
   191   96  218 1    
   192   96  219 1    
   193   97   98 2    
   194   97   99 am   BACKBONE|DICT|INTERRES
   195   99  100 1    
   196   99  220 1    
   197  100  101 1    
   198  100  102 1    
   199  100  221 1    
   200  101  222 1    
   201  101  223 1    
   202  101  224 1    
   203  102  103 2    
   204  102  104 am   BACKBONE|DICT|INTERRES
   205  104  105 1    
   206  104  225 1    
   207  105  106 1    
   208  105  107 1    
   209  105  226 1    
   210  106  227 1    
   211  106  228 1    
   212  106  229 1    
   213  107  108 2    
   214  107  109 am   BACKBONE|DICT|INTERRES
   215  109  110 1    
   216  109  230 1    
   217  110  111 1    
   218  110  112 1    
   219  110  231 1    
   220  111  232 1    
   221  111  233 1    
   222  111  234 1    
   223  112  113 2    
   224  112  114 am   BACKBONE|DICT|INTERRES
   225  114  115 1    
   226  114  235 1    
   227  115  116 1    
   228  115  117 1    
   229  115  236 1    
   230  116  237 1    
   231  116  238 1    
   232  116  239 1    
   233  117  118 2    
   234  117  119 am   BACKBONE|DICT|INTERRES
   235  119  120 1    
   236  119  240 1    
   237  120  121 1    
   238  120  124 1    
   239  120  241 1    
   240  121  122 am   BACKBONE|DICT|INTERRES
   241  121  123 2    
   242  122  242 1    
   243  122  243 1    
   244  124  125 1    
   245  124  244 1    
   246  124  245 1    
   247  125  126 1    
   248  126  246 1    
   249  126  247 1    
@<TRIPOS>SUBSTRUCTURE
     1 UNK         1 GROUP             0       ****    0 ROOT    
