@<TRIPOS>MOLECULE
3R540
247   249    1
SMALL
USER_CHARGES


@<TRIPOS>ATOM
      1 CA         -6.7824  -18.0638  -49.0136 C.3       0 UNK        -0.1800 
      2 C          -6.0658  -16.7305  -48.8662 C.2       0 UNK         0.5000 
      3 O          -6.6946  -15.7326  -48.5152 O.2       0 UNK        -0.5000 
      4 N          -4.7530  -16.7163  -49.1317 N.am      1 UNK        -0.5000 
      5 CA         -3.8754  -15.5416  -49.0556 C.3       1 UNK         0.1400 
      6 C6         -2.5071  -15.8021  -49.7388 C.3       23 UNK        -0.0398 
      7 S7         -1.4026  -16.9855  -48.8839 S.3       23 UNK        -0.2404 
      8 C8         -1.5011  -18.4822  -49.9319 C.3       23 UNK        -0.0205 
      9 C9         -0.2496  -19.3659  -49.9334 C.ar      23 UNK        -0.0193 
     10 C10        -0.0437  -20.2356  -51.0109 C.ar      23 UNK        -0.1150 
     11 C11         1.1028  -21.0322  -51.0829 C.ar      23 UNK        -0.0193 
     12 C12         2.0413  -20.9771  -50.0507 C.ar      23 UNK        -0.1150 
     13 C13         1.8497  -20.1274  -48.9600 C.ar      23 UNK        -0.0193 
     14 C14         0.7015  -19.3325  -48.9047 C.ar      23 UNK        -0.1150 
     15 C15         2.9072  -20.0350  -47.8686 C.3       23 UNK        -0.0205 
     16 S16         2.3977  -20.8386  -46.3173 S.3       23 UNK        -0.2404 
     17 C17         2.4043  -22.6045  -46.7846 C.3       23 UNK        -0.0398 
     18 CA          1.1014  -23.3503  -46.4145 C.3       11 UNK         0.1400 
     19 N           0.8022  -23.2558  -44.9848 N.am      11 UNK        -0.5000 
     20 C          -0.1119  -23.9915  -44.3410 C.2       10 UNK         0.5000 
     21 O          -0.7785  -24.8721  -44.8837 O.2       10 UNK        -0.5000 
     22 CA         -0.3520  -23.6594  -42.8561 C.3       10 UNK         0.1400 
     23 CB          0.4876  -24.5801  -41.9591 C.3       10 UNK        -0.1800 
     24 N          -0.0668  -22.2643  -42.5076 N.am      10 UNK        -0.5000 
     25 C          -0.6875  -21.1898  -43.0091 C.2       9 UNK         0.5000 
     26 O          -1.5650  -21.2588  -43.8693 O.2       9 UNK        -0.5000 
     27 CA         -0.2324  -19.8061  -42.5048 C.3       9 UNK         0.1400 
     28 CB         -0.8819  -19.4585  -41.1529 C.3       9 UNK        -0.1800 
     29 N           1.2260  -19.6129  -42.4680 N.am      9 UNK        -0.5000 
     30 C           2.1433  -20.2046  -41.6865 C.2       8 UNK         0.5000 
     31 O           1.8791  -21.0703  -40.8515 O.2       8 UNK        -0.5000 
     32 CA          3.6106  -19.7783  -41.8860 C.3       8 UNK         0.1400 
     33 CB          4.3595  -20.8244  -42.7257 C.3       8 UNK        -0.1800 
     34 N           3.7438  -18.4714  -42.5320 N.am      8 UNK        -0.5000 
     35 C           3.6016  -17.2881  -41.9225 C.2       7 UNK         0.5000 
     36 O           3.3728  -17.1667  -40.7189 O.2       7 UNK        -0.5000 
     37 CA          3.7076  -16.0290  -42.8071 C.3       7 UNK         0.1400 
     38 CB          5.1610  -15.7547  -43.2390 C.3       7 UNK        -0.1800 
     39 N           2.7869  -16.0381  -43.9523 N.am      7 UNK        -0.5000 
     40 C           2.7888  -16.8460  -45.0232 C.2       6 UNK         0.5000 
     41 O           3.6504  -17.6980  -45.2380 O.2       6 UNK        -0.5000 
     42 CA          1.5994  -16.7250  -45.9895 C.3       6 UNK         0.1400 
     43 CB          0.4517  -17.6286  -45.5158 C.3       6 UNK        -0.1800 
     44 N           1.0864  -15.3666  -46.1312 N.am      6 UNK        -0.5000 
     45 C           1.7211  -14.3658  -46.7548 C.2       5 UNK         0.5000 
     46 O           2.8609  -14.4527  -47.2125 O.2       5 UNK        -0.5000 
     47 CA          0.9419  -13.0503  -46.9030 C.3       5 UNK         0.1400 
     48 CB         -0.0361  -13.1481  -48.0829 C.3       5 UNK        -0.1800 
     49 N           0.1947  -12.7426  -45.6839 N.am      5 UNK        -0.5000 
     50 C           0.6016  -11.8779  -44.7450 C.2       4 UNK         0.5000 
     51 O           1.6246  -11.1980  -44.8363 O.2       4 UNK        -0.5000 
     52 CA         -0.2729  -11.7494  -43.4809 C.3       4 UNK         0.1400 
     53 CB         -1.3184  -10.6384  -43.6627 C.3       4 UNK        -0.1800 
     54 N          -0.9565  -12.9884  -43.1067 N.am      4 UNK        -0.5000 
     55 C          -0.3455  -14.1214  -42.7352 C.2       3 UNK         0.5000 
     56 O           0.8751  -14.2430  -42.6420 O.2       3 UNK        -0.5000 
     57 CA         -1.2437  -15.3427  -42.4629 C.3       3 UNK         0.1400 
     58 CB         -1.5985  -15.4236  -40.9711 C.3       3 UNK        -0.1800 
     59 N          -2.4796  -15.3912  -43.2535 N.am      3 UNK        -0.5000 
     60 C          -2.5690  -15.3356  -44.5904 C.2       2 UNK         0.5000 
     61 O          -1.6012  -15.1431  -45.3292 O.2       2 UNK        -0.5000 
     62 CA         -3.9821  -15.5333  -45.1682 C.3       2 UNK         0.1400 
     63 CB         -4.9146  -14.3598  -44.8022 C.3       2 UNK        -0.1800 
     64 N          -3.9944  -15.7966  -46.6109 N.am      2 UNK        -0.5000 
     65 C          -3.7337  -14.9581  -47.6275 C.2       1 UNK         0.5000 
     66 O          -3.4348  -13.7706  -47.4926 O.2       1 UNK        -0.5000 
     67 C          -0.0912  -22.9358  -47.3054 C.2       11 UNK         0.5000 
     68 O          -0.2766  -23.5311  -48.3653 O.2       11 UNK        -0.5000 
     69 N          -0.9121  -21.9786  -46.8436 N.am      12 UNK        -0.5000 
     70 CA         -2.1310  -21.5510  -47.5324 C.3       12 UNK         0.1400 
     71 CB         -2.6234  -20.2182  -46.9476 C.3       12 UNK        -0.1800 
     72 C          -3.2335  -22.6203  -47.4575 C.2       12 UNK         0.5000 
     73 O          -3.9556  -22.8205  -48.4348 O.2       12 UNK        -0.5000 
     74 N          -3.3169  -23.3163  -46.3145 N.am      13 UNK        -0.5000 
     75 CA         -4.2087  -24.4568  -46.1081 C.3       13 UNK         0.1400 
     76 CB         -4.2799  -24.8027  -44.6132 C.3       13 UNK        -0.1800 
     77 C          -3.7798  -25.6741  -46.9465 C.2       13 UNK         0.5000 
     78 O          -4.6303  -26.3038  -47.5751 O.2       13 UNK        -0.5000 
     79 N          -2.4667  -25.9453  -46.9964 N.am      14 UNK        -0.5000 
     80 CA         -1.8563  -26.9817  -47.8361 C.3       14 UNK         0.1400 
     81 CB         -0.3645  -27.1058  -47.4941 C.3       14 UNK        -0.1800 
     82 C          -2.0498  -26.7290  -49.3452 C.2       14 UNK         0.5000 
     83 O          -2.2227  -27.6823  -50.1046 O.2       14 UNK        -0.5000 
     84 N          -2.0717  -25.4491  -49.7416 N.am      15 UNK        -0.5000 
     85 CA         -2.3926  -24.9765  -51.0902 C.3       15 UNK         0.1400 
     86 CB         -1.8129  -23.5641  -51.2686 C.3       15 UNK        -0.1800 
     87 C          -3.9031  -24.9966  -51.4166 C.2       15 UNK         0.5000 
     88 O          -4.2775  -24.5842  -52.5146 O.2       15 UNK        -0.5000 
     89 N          -4.7394  -25.4630  -50.4758 N.am      16 UNK        -0.5000 
     90 CA         -6.1975  -25.5863  -50.5556 C.3       16 UNK         0.1400 
     91 CB         -6.6136  -26.5824  -51.6591 C.3       16 UNK        -0.1800 
     92 C          -6.9058  -24.2213  -50.6592 C.2       16 UNK         0.5000 
     93 O          -7.8589  -24.0757  -51.4267 O.2       16 UNK        -0.5000 
     94 N          -6.4246  -23.2529  -49.8652 N.am      17 UNK        -0.5000 
     95 CA         -6.9038  -21.8735  -49.7578 C.3       17 UNK         0.1400 
     96 CB         -8.3454  -21.8187  -49.2096 C.3       17 UNK        -0.1800 
     97 C          -6.7109  -21.0851  -51.0671 C.2       17 UNK         0.5000 
     98 O          -7.6397  -20.4331  -51.5484 O.2       17 UNK        -0.5000 
     99 N          -5.4894  -21.1545  -51.6130 N.am      18 UNK        -0.5000 
    100 CA        -5.0398  -20.3485  -52.7472 C.3       18 UNK         0.1400 
    101 CB        -3.6574  -20.8413  -53.1977 C.3       18 UNK        -0.1800 
    102 C         -4.9892  -18.8584  -52.3640 C.2       18 UNK         0.5000 
    103 O         -4.4007  -18.5222  -51.3353 O.2       18 UNK        -0.5000 
    104 N         -5.6226  -18.0037  -53.1774 N.am      19 UNK        -0.5000 
    105 CA        -5.7774  -16.5680  -52.9192 C.3       19 UNK         0.1400 
    106 CB        -6.8893  -16.0181  -53.8253 C.3       19 UNK        -0.1800 
    107 C         -4.4825  -15.7539  -53.1033 C.2       19 UNK         0.5000 
    108 O         -4.3648  -14.6689  -52.5331 O.2       19 UNK        -0.5000 
    109 N         -3.5415  -16.2917  -53.8841 N.am      20 UNK        -0.5000 
    110 CA        -2.1931  -15.7713  -54.0833 C.3       20 UNK         0.1400 
    111 CB        -1.9821  -15.5044  -55.5819 C.3       20 UNK        -0.1800 
    112 C         -1.1911  -16.8171  -53.5767 C.2       20 UNK         0.5000 
    113 O         -1.5368  -17.9973  -53.4936 O.2       20 UNK        -0.5000 
    114 N          0.0281  -16.3692  -53.2620 N.am      21 UNK        -0.5000 
    115 CA         1.1199  -17.1957  -52.7536 C.3       21 UNK         0.1400 
    116 CB         1.7069  -16.5116  -51.5045 C.3       21 UNK        -0.1800 
    117 C          2.1807  -17.3826  -53.8589 C.2       21 UNK         0.5000 
    118 O          3.0705  -16.5389  -53.9667 O.2       21 UNK        -0.5000 
    119 N          2.1265  -18.4183  -54.7089 N.am      22 UNK        -0.5000 
    120 CA         1.0912  -19.4619  -54.8576 C.3       22 UNK         0.1400 
    121 C          0.1751  -19.2323  -56.0979 C.2       22 UNK         0.5000 
    122 N          0.3237  -18.1442  -56.8454 N.am      22 UNK        -0.7600 
    123 O         -0.6925  -20.0510  -56.3876 O.2       22 UNK        -0.5000 
    124 C124        1.7091  -20.8835  -54.8820 C.3       23 UNK        -0.0398 
    125 S125        2.6447  -21.2862  -53.3672 S.3       23 UNK        -0.2404 
    126 C126        1.3456  -21.9488  -52.2724 C.3       23 UNK        -0.0205 
    127 H127       -6.0731  -18.8888  -49.0739 H         1 UNK         0.0600 
    128 H128       -7.3903  -18.0651  -49.9183 H         1 UNK         0.0600 
    129 H129       -7.4353  -18.2419  -48.1592 H         1 UNK         0.0600 
    130 H130       -4.3331  -17.5472  -49.5349 H         1 UNK         0.3000 
    131 H131       -4.3690  -14.7634  -49.6417 H         1 UNK         0.0600 
    132 H132       -1.9658  -14.8603  -49.8369 H         1 UNK         0.0800 
    133 H133       -2.6706  -16.1373  -50.7624 H         1 UNK         0.0800 
    134 H134       -2.3571  -19.0793  -49.6200 H         1 UNK         0.0800 
    135 H135       -1.7042  -18.1759  -50.9555 H         1 UNK         0.0800 
    136 H136       -0.7651  -20.2679  -51.8143 H         1 UNK         0.1150 
    137 H137        2.9323  -21.5861  -50.1100 H         1 UNK         0.1150 
    138 H138        0.5627  -18.6810  -48.0585 H         1 UNK         0.1150 
    139 H139        3.8496  -20.4710  -48.2036 H         1 UNK         0.0800 
    140 H140        3.1217  -18.9857  -47.6675 H         1 UNK         0.0800 
    141 H141        3.2457  -23.0743  -46.2738 H         1 UNK         0.0800 
    142 H142        2.6147  -22.7170  -47.8487 H         1 UNK         0.0800 
    143 H143        1.2803  -24.4070  -46.6218 H         1 UNK         0.0600 
    144 H144        1.2957  -22.5402  -44.4721 H         1 UNK         0.3000 
    145 H145       -1.4077  -23.8444  -42.6480 H         1 UNK         0.0600 
    146 H146        0.2605  -24.4176  -40.9053 H         1 UNK         0.0600 
    147 H147        0.2853  -25.6298  -42.1766 H         1 UNK         0.0600 
    148 H148        1.5562  -24.4137  -42.1014 H         1 UNK         0.0600 
    149 H149        0.6514  -22.0977  -41.8068 H         1 UNK         0.3000 
    150 H150       -0.6108  -19.0843  -43.2277 H         1 UNK         0.0600 
    151 H151       -1.9697  -19.4845  -41.2270 H         1 UNK         0.0600 
    152 H152       -0.6017  -18.4563  -40.8286 H         1 UNK         0.0600 
    153 H153       -0.5932  -20.1572  -40.3674 H         1 UNK         0.0600 
    154 H154        1.5843  -18.9456  -43.1342 H         1 UNK         0.3000 
    155 H155        4.0779  -19.7337  -40.9001 H         1 UNK         0.0600 
    156 H156        5.4168  -20.5741  -42.8140 H         1 UNK         0.0600 
    157 H157        3.9495  -20.9014  -43.7328 H         1 UNK         0.0600 
    158 H158        4.2974  -21.8130  -42.2687 H         1 UNK         0.0600 
    159 H159        3.9115  -18.4615  -43.5356 H         1 UNK         0.3000 
    160 H160        3.3947  -15.1868  -42.1882 H         1 UNK         0.0600 
    161 H161        5.2303  -14.8356  -43.8209 H         1 UNK         0.0600 
    162 H162        5.5741  -16.5640  -43.8413 H         1 UNK         0.0600 
    163 H163        5.8071  -15.6380  -42.3682 H         1 UNK         0.0600 
    164 H164        2.0169  -15.3837  -43.8564 H         1 UNK         0.3000 
    165 H165        1.9282  -17.0619  -46.9737 H         1 UNK         0.0600 
    166 H166       -0.3974  -17.5863  -46.1959 H         1 UNK         0.0600 
    167 H167        0.7617  -18.6697  -45.4478 H         1 UNK         0.0600 
    168 H168        0.0942  -17.3256  -44.5347 H         1 UNK         0.0600 
    169 H169        0.1258  -15.2211  -45.8269 H         1 UNK         0.3000 
    170 H170        1.6572  -12.2555  -47.1249 H         1 UNK         0.0600 
    171 H171        0.4914  -13.3589  -49.0141 H         1 UNK         0.0600 
    172 H172       -0.7617  -13.9467  -47.9293 H         1 UNK         0.0600 
    173 H173       -0.5868  -12.2175  -48.2199 H         1 UNK         0.0600 
    174 H174       -0.6380  -13.2956  -45.5150 H         1 UNK         0.3000 
    175 H175        0.3840  -11.4694  -42.6548 H         1 UNK         0.0600 
    176 H176       -1.8866  -10.4767  -42.7465 H         1 UNK         0.0600 
    177 H177       -0.8417   -9.6914  -43.9194 H         1 UNK         0.0600 
    178 H178       -2.0242  -10.8773  -44.4594 H         1 UNK         0.0600 
    179 H179       -1.9638  -12.9881  -43.1680 H         1 UNK         0.3000 
    180 H180       -0.6627  -16.2311  -42.7109 H         1 UNK         0.0600 
    181 H181       -2.2090  -14.5763  -40.6565 H         1 UNK         0.0600 
    182 H182       -0.6983  -15.4274  -40.3548 H         1 UNK         0.0600 
    183 H183       -2.1482  -16.3372  -40.7438 H         1 UNK         0.0600 
    184 H184       -3.3275  -15.5370  -42.7250 H         1 UNK         0.3000 
    185 H185       -4.3859  -16.4359  -44.7072 H         1 UNK         0.0600 
    186 H186       -5.8985  -14.4828  -45.2554 H         1 UNK         0.0600 
    187 H187       -5.0634  -14.2951  -43.7240 H         1 UNK         0.0600 
    188 H188       -4.5128  -13.4006  -45.1297 H         1 UNK         0.0600 
    189 H189       -4.2012  -16.7503  -46.8687 H         1 UNK         0.3000 
    190 H190       -0.7333  -21.5679  -45.9368 H         1 UNK         0.3000 
    191 H191       -1.8895  -21.3927  -48.5852 H         1 UNK         0.0600 
    192 H192       -1.8438  -19.4582  -46.9885 H         1 UNK         0.0600 
    193 H193       -3.4782  -19.8397  -47.5094 H         1 UNK         0.0600 
    194 H194       -2.9370  -20.3198  -45.9088 H         1 UNK         0.0600 
    195 H195       -2.6769  -23.0913  -45.5659 H         1 UNK         0.3000 
    196 H196       -5.2099  -24.1650  -46.4330 H         1 UNK         0.0600 
    197 H197       -4.9839  -25.6170  -44.4374 H         1 UNK         0.0600 
    198 H198       -4.6186  -23.9483  -44.0270 H         1 UNK         0.0600 
    199 H199       -3.3139  -25.1170  -44.2192 H         1 UNK         0.0600 
    200 H200       -1.8387  -25.4159  -46.3980 H         1 UNK         0.3000 
    201 H201       -2.3411  -27.9296  -47.5940 H         1 UNK         0.0600 
    202 H202       -0.2159  -27.3030  -46.4322 H         1 UNK         0.0600 
    203 H203        0.1815  -26.1977  -47.7475 H         1 UNK         0.0600 
    204 H204        0.0939  -27.9273  -48.0460 H         1 UNK         0.0600 
    205 H205       -1.8354  -24.7323  -49.0645 H         1 UNK         0.3000 
    206 H206       -1.9008  -25.6344  -51.8094 H         1 UNK         0.0600 
    207 H207       -2.3032  -22.8394  -50.6188 H         1 UNK         0.0600 
    208 H208       -0.7478  -23.5481  -51.0409 H         1 UNK         0.0600 
    209 H209       -1.9279  -23.2180  -52.2959 H         1 UNK         0.0600 
    210 H210       -4.3402  -25.7569  -49.5923 H         1 UNK         0.3000 
    211 H211       -6.5143  -26.0129  -49.6030 H         1 UNK         0.0600 
    212 H212       -6.3949  -26.2013  -52.6568 H         1 UNK         0.0600 
    213 H213       -7.6842  -26.7856  -51.6164 H         1 UNK         0.0600 
    214 H214       -6.0987  -27.5360  -51.5432 H         1 UNK         0.0600 
    215 H215       -5.5902  -23.4489  -49.3190 H         1 UNK         0.3000 
    216 H216       -6.2631  -21.3905  -49.0189 H         1 UNK         0.0600 
    217 H217       -8.4311  -22.3669  -48.2715 H         1 UNK         0.0600 
    218 H218       -9.0667  -22.2380  -49.9113 H         1 UNK         0.0600 
    219 H219       -8.6459  -20.7890  -49.0119 H         1 UNK         0.0600 
    220 H220       -4.7881  -21.7137  -51.1509 H         1 UNK         0.3000 
    221 H221       -5.7443  -20.4884  -53.5696 H         1 UNK         0.0600 
    222 H222       -2.9274  -20.7661  -52.3922 H         1 UNK         0.0600 
    223 H223       -3.6959  -21.8813  -53.5219 H         1 UNK         0.0600 
    224 H224       -3.2823  -20.2515  -54.0353 H         1 UNK         0.0600 
    225 H225       -6.0896  -18.3627  -53.9976 H         1 UNK         0.3000 
    226 H226       -6.0943  -16.4413  -51.8824 H         1 UNK         0.0600 
    227 H227       -7.8347  -16.5303  -53.6450 H         1 UNK         0.0600 
    228 H228       -7.0566  -14.9563  -53.6388 H         1 UNK         0.0600 
    229 H229       -6.6405  -16.1306  -54.8813 H         1 UNK         0.0600 
    230 H230       -3.6895  -17.2311  -54.2254 H         1 UNK         0.3000 
    231 H231       -2.0439  -14.8445  -53.5255 H         1 UNK         0.0600 
    232 H232       -2.6961  -14.7695  -55.9539 H         1 UNK         0.0600 
    233 H233       -2.0999  -16.4138  -56.1726 H         1 UNK         0.0600 
    234 H234       -0.9825  -15.1138  -55.7756 H         1 UNK         0.0600 
    235 H235        0.2499  -15.3950  -53.4104 H         1 UNK         0.3000 
    236 H236        0.7635  -18.1634  -52.4166 H         1 UNK         0.0600 
    237 H237        2.5390  -17.0898  -51.1008 H         1 UNK         0.0600 
    238 H238        2.0729  -15.5066  -51.7177 H         1 UNK         0.0600 
    239 H239        0.9598  -16.4314  -50.7152 H         1 UNK         0.0600 
    240 H240        2.8622  -18.4811  -55.3964 H         1 UNK         0.3000 
    241 H241        0.4126  -19.4589  -54.0118 H         1 UNK         0.0600 
    242 H242        1.0311  -17.4605  -56.6285 H         1 UNK         0.3800 
    243 H243       -0.2716  -18.0123  -57.6477 H         1 UNK         0.3800 
    244 H244        2.3884  -20.9808  -55.7303 H         1 UNK         0.0800 
    245 H245        0.9415  -21.6452  -55.0293 H         1 UNK         0.0800 
    246 H246        1.6569  -22.9297  -51.9102 H         1 UNK         0.0800 
    247 H247        0.4196  -22.1107  -52.8249 H         1 UNK         0.0800 
@<TRIPOS>BOND
     1    1    2 1    
     2    1  127 1    
     3    1  128 1    
     4    1  129 1    
     5    2    3 2    
     6    2    4 am   BACKBONE|DICT|INTERRES
     7    4    5 1    
     8    4  130 1    
     9    5    6 1    
    10    5   65 1    
    11    5  131 1    
    12    6    7 1    
    13    6  132 1    
    14    6  133 1    
    15    7    8 1    
    16    8    9 1    
    17    8  134 1    
    18    8  135 1    
    19    9   10 ar   
    20    9   14 ar   
    21   10   11 ar   
    22   10  136 1    
    23   11   12 ar   
    24   11  126 1    
    25   12   13 ar   
    26   12  137 1    
    27   13   14 ar   
    28   13   15 1    
    29   14  138 1    
    30   15   16 1    
    31   15  139 1    
    32   15  140 1    
    33   16   17 1    
    34   17   18 1    
    35   17  141 1    
    36   17  142 1    
    37   18   19 1    
    38   18   67 1    
    39   18  143 1    
    40   19   20 am   BACKBONE|DICT|INTERRES
    41   19  144 1    
    42   20   21 2    
    43   20   22 1    
    44   22   23 1    
    45   22   24 1    
    46   22  145 1    
    47   23  146 1    
    48   23  147 1    
    49   23  148 1    
    50   24   25 am   BACKBONE|DICT|INTERRES
    51   24  149 1    
    52   25   26 2    
    53   25   27 1    
    54   27   28 1    
    55   27   29 1    
    56   27  150 1    
    57   28  151 1    
    58   28  152 1    
    59   28  153 1    
    60   29   30 am   BACKBONE|DICT|INTERRES
    61   29  154 1    
    62   30   31 2    
    63   30   32 1    
    64   32   33 1    
    65   32   34 1    
    66   32  155 1    
    67   33  156 1    
    68   33  157 1    
    69   33  158 1    
    70   34   35 am   BACKBONE|DICT|INTERRES
    71   34  159 1    
    72   35   36 2    
    73   35   37 1    
    74   37   38 1    
    75   37   39 1    
    76   37  160 1    
    77   38  161 1    
    78   38  162 1    
    79   38  163 1    
    80   39   40 am   BACKBONE|DICT|INTERRES
    81   39  164 1    
    82   40   41 2    
    83   40   42 1    
    84   42   43 1    
    85   42   44 1    
    86   42  165 1    
    87   43  166 1    
    88   43  167 1    
    89   43  168 1    
    90   44   45 am   BACKBONE|DICT|INTERRES
    91   44  169 1    
    92   45   46 2    
    93   45   47 1    
    94   47   48 1    
    95   47   49 1    
    96   47  170 1    
    97   48  171 1    
    98   48  172 1    
    99   48  173 1    
   100   49   50 am   BACKBONE|DICT|INTERRES
   101   49  174 1    
   102   50   51 2    
   103   50   52 1    
   104   52   53 1    
   105   52   54 1    
   106   52  175 1    
   107   53  176 1    
   108   53  177 1    
   109   53  178 1    
   110   54   55 am   BACKBONE|DICT|INTERRES
   111   54  179 1    
   112   55   56 2    
   113   55   57 1    
   114   57   58 1    
   115   57   59 1    
   116   57  180 1    
   117   58  181 1    
   118   58  182 1    
   119   58  183 1    
   120   59   60 am   BACKBONE|DICT|INTERRES
   121   59  184 1    
   122   60   61 2    
   123   60   62 1    
   124   62   63 1    
   125   62   64 1    
   126   62  185 1    
   127   63  186 1    
   128   63  187 1    
   129   63  188 1    
   130   64   65 am   BACKBONE|DICT|INTERRES
   131   64  189 1    
   132   65   66 2    
   133   67   68 2    
   134   67   69 am   BACKBONE|DICT|INTERRES
   135   69   70 1    
   136   69  190 1    
   137   70   71 1    
   138   70   72 1    
   139   70  191 1    
   140   71  192 1    
   141   71  193 1    
   142   71  194 1    
   143   72   73 2    
   144   72   74 am   BACKBONE|DICT|INTERRES
   145   74   75 1    
   146   74  195 1    
   147   75   76 1    
   148   75   77 1    
   149   75  196 1    
   150   76  197 1    
   151   76  198 1    
   152   76  199 1    
   153   77   78 2    
   154   77   79 am   BACKBONE|DICT|INTERRES
   155   79   80 1    
   156   79  200 1    
   157   80   81 1    
   158   80   82 1    
   159   80  201 1    
   160   81  202 1    
   161   81  203 1    
   162   81  204 1    
   163   82   83 2    
   164   82   84 am   BACKBONE|DICT|INTERRES
   165   84   85 1    
   166   84  205 1    
   167   85   86 1    
   168   85   87 1    
   169   85  206 1    
   170   86  207 1    
   171   86  208 1    
   172   86  209 1    
   173   87   88 2    
   174   87   89 am   BACKBONE|DICT|INTERRES
   175   89   90 1    
   176   89  210 1    
   177   90   91 1    
   178   90   92 1    
   179   90  211 1    
   180   91  212 1    
   181   91  213 1    
   182   91  214 1    
   183   92   93 2    
   184   92   94 am   BACKBONE|DICT|INTERRES
   185   94   95 1    
   186   94  215 1    
   187   95   96 1    
   188   95   97 1    
   189   95  216 1    
   190   96  217 1    
   191   96  218 1    
   192   96  219 1    
   193   97   98 2    
   194   97   99 am   BACKBONE|DICT|INTERRES
   195   99  100 1    
   196   99  220 1    
   197  100  101 1    
   198  100  102 1    
   199  100  221 1    
   200  101  222 1    
   201  101  223 1    
   202  101  224 1    
   203  102  103 2    
   204  102  104 am   BACKBONE|DICT|INTERRES
   205  104  105 1    
   206  104  225 1    
   207  105  106 1    
   208  105  107 1    
   209  105  226 1    
   210  106  227 1    
   211  106  228 1    
   212  106  229 1    
   213  107  108 2    
   214  107  109 am   BACKBONE|DICT|INTERRES
   215  109  110 1    
   216  109  230 1    
   217  110  111 1    
   218  110  112 1    
   219  110  231 1    
   220  111  232 1    
   221  111  233 1    
   222  111  234 1    
   223  112  113 2    
   224  112  114 am   BACKBONE|DICT|INTERRES
   225  114  115 1    
   226  114  235 1    
   227  115  116 1    
   228  115  117 1    
   229  115  236 1    
   230  116  237 1    
   231  116  238 1    
   232  116  239 1    
   233  117  118 2    
   234  117  119 am   BACKBONE|DICT|INTERRES
   235  119  120 1    
   236  119  240 1    
   237  120  121 1    
   238  120  124 1    
   239  120  241 1    
   240  121  122 am   BACKBONE|DICT|INTERRES
   241  121  123 2    
   242  122  242 1    
   243  122  243 1    
   244  124  125 1    
   245  124  244 1    
   246  124  245 1    
   247  125  126 1    
   248  126  246 1    
   249  126  247 1    
@<TRIPOS>SUBSTRUCTURE
     1 UNK         1 GROUP             0       ****    0 ROOT    
