@<TRIPOS>MOLECULE
3R540
247   249    1
SMALL
USER_CHARGES


@<TRIPOS>ATOM
      1 CA          4.6181   -9.9032  -48.7163 C.3       0 UNK        -0.1800 
      2 C           3.7019  -10.8600  -47.9690 C.2       0 UNK         0.5000 
      3 O           3.3834  -10.6206  -46.8046 O.2       0 UNK        -0.5000 
      4 N           3.2523  -11.9321  -48.6351 N.am      1 UNK        -0.5000 
      5 CA          2.3970  -12.9852  -48.0639 C.3       1 UNK         0.1400 
      6 C6          2.3383  -14.2386  -48.9780 C.3       23 UNK        -0.0398 
      7 S7          2.5163  -15.7838  -48.0232 S.3       23 UNK        -0.2404 
      8 C8          3.6574  -16.7636  -49.0513 C.3       23 UNK        -0.0205 
      9 C9          2.9173  -17.5348  -50.1349 C.ar      23 UNK        -0.0193 
     10 C10         2.3330  -16.8567  -51.2064 C.ar      23 UNK        -0.1150 
     11 C11         1.6085  -17.5441  -52.1832 C.ar      23 UNK        -0.0193 
     12 C12         1.5241  -18.9386  -52.1153 C.ar      23 UNK        -0.1150 
     13 C13         2.1410  -19.6365  -51.0702 C.ar      23 UNK        -0.0193 
     14 C14         2.8194  -18.9278  -50.0736 C.ar      23 UNK        -0.1150 
     15 C15         2.1045  -21.1575  -51.0377 C.3       23 UNK        -0.0205 
     16 S16         0.5281  -21.7930  -50.3972 S.3       23 UNK        -0.2404 
     17 C17         0.6642  -21.4668  -48.6027 C.3       23 UNK        -0.0398 
     18 CA          0.2707  -22.6516  -47.6783 C.3       11 UNK         0.1400 
     19 N           0.2981  -22.2484  -46.2682 N.am      11 UNK        -0.5000 
     20 C           0.0784  -23.0538  -45.2182 C.2       10 UNK         0.5000 
     21 O          -0.1072  -24.2663  -45.3082 O.2       10 UNK        -0.5000 
     22 CA         -0.0037  -22.3856  -43.8345 C.3       10 UNK         0.1400 
     23 CB          1.4005  -22.1085  -43.2785 C.3       10 UNK        -0.1800 
     24 N          -0.7931  -21.1520  -43.8469 N.am      10 UNK        -0.5000 
     25 C          -2.0976  -21.0908  -44.1557 C.2       9 UNK         0.5000 
     26 O          -2.7822  -22.0757  -44.4260 O.2       9 UNK        -0.5000 
     27 CA         -2.7394  -19.6948  -44.2274 C.3       9 UNK         0.1400 
     28 CB         -3.0520  -19.1594  -42.8225 C.3       9 UNK        -0.1800 
     29 N          -1.9066  -18.7358  -44.9497 N.am      9 UNK        -0.5000 
     30 C          -1.5571  -18.8467  -46.2393 C.2       8 UNK         0.5000 
     31 O          -1.9530  -19.7464  -46.9811 O.2       8 UNK        -0.5000 
     32 CA         -0.5444  -17.8138  -46.7643 C.3       8 UNK         0.1400 
     33 CB         -1.2334  -16.4827  -47.1014 C.3       8 UNK        -0.1800 
     34 N           0.5380  -17.5874  -45.8054 N.am      8 UNK        -0.5000 
     35 C           1.4562  -18.5068  -45.4749 C.2       7 UNK         0.5000 
     36 O           1.5169  -19.6252  -45.9859 O.2       7 UNK        -0.5000 
     37 CA          2.4326  -18.1406  -44.3435 C.3       7 UNK         0.1400 
     38 CB          3.6620  -17.3944  -44.8811 C.3       7 UNK        -0.1800 
     39 N           1.7861  -17.3470  -43.2978 N.am      7 UNK        -0.5000 
     40 C           0.9261  -17.8565  -42.4030 C.2       6 UNK         0.5000 
     41 O           0.6198  -19.0472  -42.3589 O.2       6 UNK        -0.5000 
     42 CA          0.2630  -16.8745  -41.4171 C.3       6 UNK         0.1400 
     43 CB          1.1404  -16.6870  -40.1709 C.3       6 UNK        -0.1800 
     44 N          -0.0179  -15.5676  -42.0101 N.am      6 UNK        -0.5000 
     45 C          -0.8371  -15.3622  -43.0501 C.2       5 UNK         0.5000 
     46 O          -1.5129  -16.2513  -43.5663 O.2       5 UNK        -0.5000 
     47 CA         -0.8793  -13.9430  -43.6457 C.3       5 UNK         0.1400 
     48 CB         -2.1136  -13.1814  -43.1421 C.3       5 UNK        -0.1800 
     49 N           0.3146  -13.1303  -43.3949 N.am      5 UNK        -0.5000 
     50 C           1.5701  -13.4281  -43.7571 C.2       4 UNK         0.5000 
     51 O           1.9015  -14.5142  -44.2353 O.2       4 UNK        -0.5000 
     52 CA          2.6161  -12.3131  -43.5492 C.3       4 UNK         0.1400 
     53 CB          4.0212  -12.7183  -44.0295 C.3       4 UNK        -0.1800 
     54 N           2.2180  -11.0825  -44.2346 N.am      4 UNK        -0.5000 
     55 C           1.3346  -10.1840  -43.7786 C.2       3 UNK         0.5000 
     56 O           0.7774  -10.2727  -42.6837 O.2       3 UNK        -0.5000 
     57 CA          0.9670   -9.0374  -44.7325 C.3       3 UNK         0.1400 
     58 CB          2.1069   -8.0115  -44.8349 C.3       3 UNK        -0.1800 
     59 N           0.6554   -9.5651  -46.0599 N.am      3 UNK        -0.5000 
     60 C          -0.5561   -9.9987  -46.4388 C.2       2 UNK         0.5000 
     61 O          -1.5632   -9.9147  -45.7353 O.2       2 UNK        -0.5000 
     62 CA         -0.6635  -10.6431  -47.8360 C.3       2 UNK         0.1400 
     63 CB         -0.9963   -9.5826  -48.8964 C.3       2 UNK        -0.1800 
     64 N           0.5604  -11.3433  -48.2265 N.am      2 UNK        -0.5000 
     65 C           0.9820  -12.4920  -47.6777 C.2       1 UNK         0.5000 
     66 O           0.3099  -13.1388  -46.8771 O.2       1 UNK        -0.5000 
     67 C          -1.0912  -23.2800  -48.0487 C.2       11 UNK         0.5000 
     68 O          -1.1290  -24.4026  -48.5569 O.2       11 UNK        -0.5000 
     69 N          -2.1832  -22.5633  -47.7460 N.am      12 UNK        -0.5000 
     70 CA         -3.5498  -23.0091  -48.0033 C.3       12 UNK         0.1400 
     71 CB         -4.5300  -21.8628  -47.7165 C.3       12 UNK        -0.1800 
     72 C          -3.9366  -24.2808  -47.2260 C.2       12 UNK         0.5000 
     73 O          -4.5604  -25.1703  -47.8051 O.2       12 UNK        -0.5000 
     74 N          -3.5359  -24.3591  -45.9497 N.am      13 UNK        -0.5000 
     75 CA         -3.7559  -25.5108  -45.0747 C.3       13 UNK         0.1400 
     76 CB         -3.3919  -25.1419  -43.6288 C.3       13 UNK        -0.1800 
     77 C          -2.9835  -26.7628  -45.5238 C.2       13 UNK         0.5000 
     78 O          -3.5479  -27.8565  -45.4971 O.2       13 UNK        -0.5000 
     79 N          -1.7243  -26.5836  -45.9495 N.am      14 UNK        -0.5000 
     80 CA         -0.8699  -27.6483  -46.4800 C.3       14 UNK         0.1400 
     81 CB          0.5698  -27.1334  -46.6281 C.3       14 UNK        -0.1800 
     82 C          -1.3858  -28.2074  -47.8173 C.2       14 UNK         0.5000 
     83 O          -1.3401  -29.4201  -48.0278 O.2       14 UNK        -0.5000 
     84 N          -1.8891  -27.3175  -48.6832 N.am      15 UNK        -0.5000 
     85 CA         -2.5253  -27.6699  -49.9522 C.3       15 UNK         0.1400 
     86 CB         -2.6229  -26.4103  -50.8194 C.3       15 UNK        -0.1800 
     87 C          -3.9162  -28.3091  -49.7775 C.2       15 UNK         0.5000 
     88 O          -4.3461  -29.0640  -50.6501 O.2       15 UNK        -0.5000 
     89 N          -4.6008  -27.9745  -48.6738 N.am      16 UNK        -0.5000 
     90 CA         -5.9339  -28.3986  -48.2233 C.3       16 UNK         0.1400 
     91 CB         -6.0188  -29.9276  -48.0616 C.3       16 UNK        -0.1800 
     92 C          -7.0929  -27.8564  -49.0826 C.2       16 UNK         0.5000 
     93 O          -8.0970  -27.4041  -48.5327 O.2       16 UNK        -0.5000 
     94 N          -6.9207  -27.8706  -50.4081 N.am      17 UNK        -0.5000 
     95 CA         -7.8319  -27.3125  -51.4092 C.3       17 UNK         0.1400 
     96 CB         -7.7441  -28.1843  -52.6739 C.3       17 UNK        -0.1800 
     97 C          -7.5304  -25.8303  -51.7279 C.2       17 UNK         0.5000 
     98 O          -8.0734  -25.3050  -52.7011 O.2       17 UNK        -0.5000 
     99 N          -6.6701  -25.1982  -50.9138 N.am      18 UNK        -0.5000 
    100 CA        -6.0717  -23.8664  -51.0538 C.3       18 UNK         0.1400 
    101 CB        -7.1313  -22.7640  -51.2575 C.3       18 UNK        -0.1800 
    102 C         -4.9696  -23.8209  -52.1320 C.2       18 UNK         0.5000 
    103 O         -4.8680  -24.7201  -52.9696 O.2       18 UNK        -0.5000 
    104 N         -4.1404  -22.7727  -52.0709 N.am      19 UNK        -0.5000 
    105 CA        -3.0044  -22.5575  -52.9713 C.3       19 UNK         0.1400 
    106 CB        -1.8410  -23.5035  -52.6266 C.3       19 UNK        -0.1800 
    107 C         -2.5390  -21.0947  -52.9730 C.2       19 UNK         0.5000 
    108 O         -2.0859  -20.6130  -54.0123 O.2       19 UNK        -0.5000 
    109 N         -2.6910  -20.3885  -51.8417 N.am      20 UNK        -0.5000 
    110 CA        -2.3594  -18.9683  -51.6810 C.3       20 UNK         0.1400 
    111 CB        -2.1493  -18.6659  -50.1885 C.3       20 UNK        -0.1800 
    112 C         -3.3971  -18.0323  -52.3428 C.2       20 UNK         0.5000 
    113 O         -3.9136  -17.1119  -51.7058 O.2       20 UNK        -0.5000 
    114 N         -3.6680  -18.2721  -53.6330 N.am      21 UNK        -0.5000 
    115 CA        -4.5733  -17.5029  -54.4948 C.3       21 UNK         0.1400 
    116 CB        -4.7505  -18.2598  -55.8199 C.3       21 UNK        -0.1800 
    117 C         -4.1040  -16.0553  -54.7504 C.2       21 UNK         0.5000 
    118 O         -4.8954  -15.2250  -55.1985 O.2       21 UNK        -0.5000 
    119 N         -2.8338  -15.7818  -54.4334 N.am      22 UNK        -0.5000 
    120 CA        -2.2250  -14.4517  -54.3280 C.3       22 UNK         0.1400 
    121 C         -2.8591  -13.5211  -53.2470 C.2       22 UNK         0.5000 
    122 N         -3.5827  -14.0396  -52.2594 N.am      22 UNK        -0.7600 
    123 O         -2.6961  -12.3059  -53.3146 O.2       22 UNK        -0.5000 
    124 C124       -0.6905  -14.5731  -54.1351 C.3       23 UNK        -0.0398 
    125 S125       -0.2246  -15.5249  -52.6408 S.3       23 UNK        -0.2404 
    126 C126        0.9326  -16.7666  -53.3057 C.3       23 UNK        -0.0205 
    127 H127        5.5790   -9.8324  -48.2069 H         1 UNK         0.0600 
    128 H128        4.7981  -10.2301  -49.7406 H         1 UNK         0.0600 
    129 H129        4.1742   -8.9082  -48.7484 H         1 UNK         0.0600 
    130 H130        3.5355  -12.0654  -49.5956 H         1 UNK         0.3000 
    131 H131        2.8744  -13.2677  -47.1236 H         1 UNK         0.0600 
    132 H132        3.1439  -14.2025  -49.7114 H         1 UNK         0.0800 
    133 H133        1.4161  -14.2842  -49.5612 H         1 UNK         0.0800 
    134 H134        4.1915  -17.4547  -48.3977 H         1 UNK         0.0800 
    135 H135        4.4192  -16.1242  -49.4986 H         1 UNK         0.0800 
    136 H136        2.4144  -15.7825  -51.2722 H         1 UNK         0.1150 
    137 H137        0.9852  -19.4855  -52.8767 H         1 UNK         0.1150 
    138 H138        3.2837  -19.4622  -49.2568 H         1 UNK         0.1150 
    139 H139        2.2468  -21.5400  -52.0494 H         1 UNK         0.0800 
    140 H140        2.9308  -21.5557  -50.4467 H         1 UNK         0.0800 
    141 H141        0.0477  -20.5965  -48.3855 H         1 UNK         0.0800 
    142 H142        1.6851  -21.1631  -48.3701 H         1 UNK         0.0800 
    143 H143        1.0245  -23.4318  -47.8018 H         1 UNK         0.0600 
    144 H144        0.4922  -21.2671  -46.0899 H         1 UNK         0.3000 
    145 H145       -0.4995  -23.0859  -43.1594 H         1 UNK         0.0600 
    146 H146        1.3519  -21.7183  -42.2619 H         1 UNK         0.0600 
    147 H147        1.9949  -23.0224  -43.2469 H         1 UNK         0.0600 
    148 H148        1.9413  -21.3864  -43.8897 H         1 UNK         0.0600 
    149 H149       -0.3091  -20.3011  -43.5783 H         1 UNK         0.3000 
    150 H150       -3.6812  -19.7897  -44.7717 H         1 UNK         0.0600 
    151 H151       -3.7009  -19.8469  -42.2787 H         1 UNK         0.0600 
    152 H152       -3.5639  -18.1982  -42.8722 H         1 UNK         0.0600 
    153 H153       -2.1466  -19.0250  -42.2309 H         1 UNK         0.0600 
    154 H154       -1.5824  -17.9281  -44.4238 H         1 UNK         0.3000 
    155 H155       -0.1050  -18.2076  -47.6833 H         1 UNK         0.0600 
    156 H156       -1.6622  -16.0099  -46.2185 H         1 UNK         0.0600 
    157 H157       -2.0438  -16.6325  -47.8152 H         1 UNK         0.0600 
    158 H158       -0.5327  -15.7786  -47.5498 H         1 UNK         0.0600 
    159 H159        0.5626  -16.6904  -45.3419 H         1 UNK         0.3000 
    160 H160        2.7844  -19.0739  -43.8991 H         1 UNK         0.0600 
    161 H161        4.4009  -17.2380  -44.0954 H         1 UNK         0.0600 
    162 H162        3.3982  -16.4187  -45.2872 H         1 UNK         0.0600 
    163 H163        4.1462  -17.9612  -45.6773 H         1 UNK         0.0600 
    164 H164        1.9327  -16.3435  -43.3355 H         1 UNK         0.3000 
    165 H165       -0.6877  -17.3102  -41.1038 H         1 UNK         0.0600 
    166 H166        0.6454  -16.0585  -39.4304 H         1 UNK         0.0600 
    167 H167        1.3500  -17.6455  -39.6940 H         1 UNK         0.0600 
    168 H168        2.0979  -16.2266  -40.4177 H         1 UNK         0.0600 
    169 H169        0.5017  -14.7806  -41.6513 H         1 UNK         0.3000 
    170 H170       -0.9707  -14.0574  -44.7269 H         1 UNK         0.0600 
    171 H171       -3.0278  -13.7433  -43.3380 H         1 UNK         0.0600 
    172 H172       -2.0623  -12.9990  -42.0680 H         1 UNK         0.0600 
    173 H173       -2.2124  -12.2178  -43.6431 H         1 UNK         0.0600 
    174 H174        0.1563  -12.2068  -43.0073 H         1 UNK         0.3000 
    175 H175        2.6760  -12.1205  -42.4761 H         1 UNK         0.0600 
    176 H176        4.0379  -12.9300  -45.0985 H         1 UNK         0.0600 
    177 H177        4.7461  -11.9276  -43.8357 H         1 UNK         0.0600 
    178 H178        4.3699  -13.6127  -43.5118 H         1 UNK         0.0600 
    179 H179        2.6206  -10.9375  -45.1580 H         1 UNK         0.3000 
    180 H180        0.0921   -8.5245  -44.3268 H         1 UNK         0.0600 
    181 H181        3.0217   -8.4528  -45.2315 H         1 UNK         0.0600 
    182 H182        2.3430   -7.5943  -43.8552 H         1 UNK         0.0600 
    183 H183        1.8293   -7.1804  -45.4834 H         1 UNK         0.0600 
    184 H184        1.4456   -9.7299  -46.6703 H         1 UNK         0.3000 
    185 H185       -1.4816  -11.3663  -47.8079 H         1 UNK         0.0600 
    186 H186       -1.9181   -9.0561  -48.6452 H         1 UNK         0.0600 
    187 H187       -0.2054   -8.8365  -48.9833 H         1 UNK         0.0600 
    188 H188       -1.1400  -10.0370  -49.8770 H         1 UNK         0.0600 
    189 H189        1.1633  -10.8778  -48.8888 H         1 UNK         0.3000 
    190 H190       -2.0725  -21.6406  -47.3328 H         1 UNK         0.3000 
    191 H191       -3.6049  -23.2482  -49.0659 H         1 UNK         0.0600 
    192 H192       -4.4830  -21.5483  -46.6732 H         1 UNK         0.0600 
    193 H193       -5.5578  -22.1628  -47.9243 H         1 UNK         0.0600 
    194 H194       -4.3115  -20.9922  -48.3352 H         1 UNK         0.0600 
    195 H195       -3.0730  -23.5558  -45.5303 H         1 UNK         0.3000 
    196 H196       -4.8207  -25.7514  -45.1036 H         1 UNK         0.0600 
    197 H197       -3.5549  -25.9849  -42.9561 H         1 UNK         0.0600 
    198 H198       -4.0038  -24.3152  -43.2676 H         1 UNK         0.0600 
    199 H199       -2.3457  -24.8473  -43.5406 H         1 UNK         0.0600 
    200 H200       -1.3096  -25.6569  -45.8944 H         1 UNK         0.3000 
    201 H201       -0.8646  -28.4670  -45.7575 H         1 UNK         0.0600 
    202 H202        0.9777  -26.8248  -45.6655 H         1 UNK         0.0600 
    203 H203        0.6238  -26.2786  -47.3036 H         1 UNK         0.0600 
    204 H204        1.2251  -27.9097  -47.0249 H         1 UNK         0.0600 
    205 H205       -1.8260  -26.3286  -48.4613 H         1 UNK         0.3000 
    206 H206       -1.8909  -28.3927  -50.4694 H         1 UNK         0.0600 
    207 H207       -1.6329  -25.9981  -51.0139 H         1 UNK         0.0600 
    208 H208       -3.0822  -26.6301  -51.7840 H         1 UNK         0.0600 
    209 H209       -3.2187  -25.6346  -50.3373 H         1 UNK         0.0600 
    210 H210       -4.1774  -27.2686  -48.0832 H         1 UNK         0.3000 
    211 H211       -6.0523  -27.9601  -47.2310 H         1 UNK         0.0600 
    212 H212       -5.9371  -30.4466  -49.0169 H         1 UNK         0.0600 
    213 H213       -6.9708  -30.2175  -47.6154 H         1 UNK         0.0600 
    214 H214       -5.2275  -30.2971  -47.4092 H         1 UNK         0.0600 
    215 H215       -6.0566  -28.2784  -50.7561 H         1 UNK         0.3000 
    216 H216       -8.8561  -27.3607  -51.0342 H         1 UNK         0.0600 
    217 H217       -8.4563  -27.8554  -53.4316 H         1 UNK         0.0600 
    218 H218       -7.9709  -29.2269  -52.4504 H         1 UNK         0.0600 
    219 H219       -6.7485  -28.1452  -53.1179 H         1 UNK         0.0600 
    220 H220       -6.2927  -25.7493  -50.1564 H         1 UNK         0.3000 
    221 H221       -5.5905  -23.6790  -50.0954 H         1 UNK         0.0600 
    222 H222       -7.5715  -22.7977  -52.2543 H         1 UNK         0.0600 
    223 H223       -7.9380  -22.8517  -50.5296 H         1 UNK         0.0600 
    224 H224       -6.6937  -21.7729  -51.1345 H         1 UNK         0.0600 
    225 H225       -4.3358  -22.0333  -51.4141 H         1 UNK         0.3000 
    226 H226       -3.3294  -22.7732  -53.9916 H         1 UNK         0.0600 
    227 H227       -2.0700  -24.5259  -52.9240 H         1 UNK         0.0600 
    228 H228       -0.9260  -23.2187  -53.1481 H         1 UNK         0.0600 
    229 H229       -1.6270  -23.5028  -51.5576 H         1 UNK         0.0600 
    230 H230       -3.0162  -20.8537  -51.0101 H         1 UNK         0.3000 
    231 H231       -1.4080  -18.7797  -52.1818 H         1 UNK         0.0600 
    232 H232       -1.3669  -19.2964  -49.7686 H         1 UNK         0.0600 
    233 H233       -3.0585  -18.8245  -49.6077 H         1 UNK         0.0600 
    234 H234       -1.8365  -17.6313  -50.0432 H         1 UNK         0.0600 
    235 H235       -3.1799  -19.0510  -54.0670 H         1 UNK         0.3000 
    236 H236       -5.5429  -17.4462  -53.9964 H         1 UNK         0.0600 
    237 H237       -5.4443  -17.7378  -56.4802 H         1 UNK         0.0600 
    238 H238       -3.8041  -18.3634  -56.3522 H         1 UNK         0.0600 
    239 H239       -5.1526  -19.2593  -55.6526 H         1 UNK         0.0600 
    240 H240       -2.2748  -16.5383  -54.0701 H         1 UNK         0.3000 
    241 H241       -2.3956  -13.9549  -55.2847 H         1 UNK         0.0600 
    242 H242       -3.9903  -13.4266  -51.5720 H         1 UNK         0.3800 
    243 H243       -3.7002  -15.0417  -52.1692 H         1 UNK         0.3800 
    244 H244       -0.2534  -15.0472  -55.0148 H         1 UNK         0.0800 
    245 H245       -0.2299  -13.5854  -54.0767 H         1 UNK         0.0800 
    246 H246        0.3946  -17.4379  -53.9769 H         1 UNK         0.0800 
    247 H247        1.6995  -16.2691  -53.9011 H         1 UNK         0.0800 
@<TRIPOS>BOND
     1    1    2 1    
     2    1  127 1    
     3    1  128 1    
     4    1  129 1    
     5    2    3 2    
     6    2    4 am   BACKBONE|DICT|INTERRES
     7    4    5 1    
     8    4  130 1    
     9    5    6 1    
    10    5   65 1    
    11    5  131 1    
    12    6    7 1    
    13    6  132 1    
    14    6  133 1    
    15    7    8 1    
    16    8    9 1    
    17    8  134 1    
    18    8  135 1    
    19    9   10 ar   
    20    9   14 ar   
    21   10   11 ar   
    22   10  136 1    
    23   11   12 ar   
    24   11  126 1    
    25   12   13 ar   
    26   12  137 1    
    27   13   14 ar   
    28   13   15 1    
    29   14  138 1    
    30   15   16 1    
    31   15  139 1    
    32   15  140 1    
    33   16   17 1    
    34   17   18 1    
    35   17  141 1    
    36   17  142 1    
    37   18   19 1    
    38   18   67 1    
    39   18  143 1    
    40   19   20 am   BACKBONE|DICT|INTERRES
    41   19  144 1    
    42   20   21 2    
    43   20   22 1    
    44   22   23 1    
    45   22   24 1    
    46   22  145 1    
    47   23  146 1    
    48   23  147 1    
    49   23  148 1    
    50   24   25 am   BACKBONE|DICT|INTERRES
    51   24  149 1    
    52   25   26 2    
    53   25   27 1    
    54   27   28 1    
    55   27   29 1    
    56   27  150 1    
    57   28  151 1    
    58   28  152 1    
    59   28  153 1    
    60   29   30 am   BACKBONE|DICT|INTERRES
    61   29  154 1    
    62   30   31 2    
    63   30   32 1    
    64   32   33 1    
    65   32   34 1    
    66   32  155 1    
    67   33  156 1    
    68   33  157 1    
    69   33  158 1    
    70   34   35 am   BACKBONE|DICT|INTERRES
    71   34  159 1    
    72   35   36 2    
    73   35   37 1    
    74   37   38 1    
    75   37   39 1    
    76   37  160 1    
    77   38  161 1    
    78   38  162 1    
    79   38  163 1    
    80   39   40 am   BACKBONE|DICT|INTERRES
    81   39  164 1    
    82   40   41 2    
    83   40   42 1    
    84   42   43 1    
    85   42   44 1    
    86   42  165 1    
    87   43  166 1    
    88   43  167 1    
    89   43  168 1    
    90   44   45 am   BACKBONE|DICT|INTERRES
    91   44  169 1    
    92   45   46 2    
    93   45   47 1    
    94   47   48 1    
    95   47   49 1    
    96   47  170 1    
    97   48  171 1    
    98   48  172 1    
    99   48  173 1    
   100   49   50 am   BACKBONE|DICT|INTERRES
   101   49  174 1    
   102   50   51 2    
   103   50   52 1    
   104   52   53 1    
   105   52   54 1    
   106   52  175 1    
   107   53  176 1    
   108   53  177 1    
   109   53  178 1    
   110   54   55 am   BACKBONE|DICT|INTERRES
   111   54  179 1    
   112   55   56 2    
   113   55   57 1    
   114   57   58 1    
   115   57   59 1    
   116   57  180 1    
   117   58  181 1    
   118   58  182 1    
   119   58  183 1    
   120   59   60 am   BACKBONE|DICT|INTERRES
   121   59  184 1    
   122   60   61 2    
   123   60   62 1    
   124   62   63 1    
   125   62   64 1    
   126   62  185 1    
   127   63  186 1    
   128   63  187 1    
   129   63  188 1    
   130   64   65 am   BACKBONE|DICT|INTERRES
   131   64  189 1    
   132   65   66 2    
   133   67   68 2    
   134   67   69 am   BACKBONE|DICT|INTERRES
   135   69   70 1    
   136   69  190 1    
   137   70   71 1    
   138   70   72 1    
   139   70  191 1    
   140   71  192 1    
   141   71  193 1    
   142   71  194 1    
   143   72   73 2    
   144   72   74 am   BACKBONE|DICT|INTERRES
   145   74   75 1    
   146   74  195 1    
   147   75   76 1    
   148   75   77 1    
   149   75  196 1    
   150   76  197 1    
   151   76  198 1    
   152   76  199 1    
   153   77   78 2    
   154   77   79 am   BACKBONE|DICT|INTERRES
   155   79   80 1    
   156   79  200 1    
   157   80   81 1    
   158   80   82 1    
   159   80  201 1    
   160   81  202 1    
   161   81  203 1    
   162   81  204 1    
   163   82   83 2    
   164   82   84 am   BACKBONE|DICT|INTERRES
   165   84   85 1    
   166   84  205 1    
   167   85   86 1    
   168   85   87 1    
   169   85  206 1    
   170   86  207 1    
   171   86  208 1    
   172   86  209 1    
   173   87   88 2    
   174   87   89 am   BACKBONE|DICT|INTERRES
   175   89   90 1    
   176   89  210 1    
   177   90   91 1    
   178   90   92 1    
   179   90  211 1    
   180   91  212 1    
   181   91  213 1    
   182   91  214 1    
   183   92   93 2    
   184   92   94 am   BACKBONE|DICT|INTERRES
   185   94   95 1    
   186   94  215 1    
   187   95   96 1    
   188   95   97 1    
   189   95  216 1    
   190   96  217 1    
   191   96  218 1    
   192   96  219 1    
   193   97   98 2    
   194   97   99 am   BACKBONE|DICT|INTERRES
   195   99  100 1    
   196   99  220 1    
   197  100  101 1    
   198  100  102 1    
   199  100  221 1    
   200  101  222 1    
   201  101  223 1    
   202  101  224 1    
   203  102  103 2    
   204  102  104 am   BACKBONE|DICT|INTERRES
   205  104  105 1    
   206  104  225 1    
   207  105  106 1    
   208  105  107 1    
   209  105  226 1    
   210  106  227 1    
   211  106  228 1    
   212  106  229 1    
   213  107  108 2    
   214  107  109 am   BACKBONE|DICT|INTERRES
   215  109  110 1    
   216  109  230 1    
   217  110  111 1    
   218  110  112 1    
   219  110  231 1    
   220  111  232 1    
   221  111  233 1    
   222  111  234 1    
   223  112  113 2    
   224  112  114 am   BACKBONE|DICT|INTERRES
   225  114  115 1    
   226  114  235 1    
   227  115  116 1    
   228  115  117 1    
   229  115  236 1    
   230  116  237 1    
   231  116  238 1    
   232  116  239 1    
   233  117  118 2    
   234  117  119 am   BACKBONE|DICT|INTERRES
   235  119  120 1    
   236  119  240 1    
   237  120  121 1    
   238  120  124 1    
   239  120  241 1    
   240  121  122 am   BACKBONE|DICT|INTERRES
   241  121  123 2    
   242  122  242 1    
   243  122  243 1    
   244  124  125 1    
   245  124  244 1    
   246  124  245 1    
   247  125  126 1    
   248  126  246 1    
   249  126  247 1    
@<TRIPOS>SUBSTRUCTURE
     1 UNK         1 GROUP             0       ****    0 ROOT    
