@<TRIPOS>MOLECULE
3R540
247   249    1
SMALL
USER_CHARGES


@<TRIPOS>ATOM
      1 CA          0.1657   -9.8159  -48.8527 C.3       0 UNK        -0.1800 
      2 C           0.8934  -11.1048  -48.4984 C.2       0 UNK         0.5000 
      3 O           1.9797  -11.0559  -47.9217 O.2       0 UNK        -0.5000 
      4 N           0.2984  -12.2557  -48.8399 N.am      1 UNK        -0.5000 
      5 CA          0.8435  -13.5970  -48.5835 C.3       1 UNK         0.1400 
      6 C6          0.0886  -14.6943  -49.3715 C.3       23 UNK        -0.0398 
      7 S7          0.1279  -14.4109  -51.1759 S.3       23 UNK        -0.2404 
      8 C8          1.6423  -15.2955  -51.6658 C.3       23 UNK        -0.0205 
      9 C9          1.4370  -16.8021  -51.6975 C.ar      23 UNK        -0.0193 
     10 C10         0.8894  -17.4134  -52.8278 C.ar      23 UNK        -0.1150 
     11 C11         0.7089  -18.7986  -52.8688 C.ar      23 UNK        -0.0193 
     12 C12         1.0579  -19.5721  -51.7568 C.ar      23 UNK        -0.1150 
     13 C13         1.6085  -18.9732  -50.6186 C.ar      23 UNK        -0.0193 
     14 C14         1.8127  -17.5893  -50.6069 C.ar      23 UNK        -0.1150 
     15 C15         2.0395  -19.8334  -49.4356 C.3       23 UNK        -0.0205 
     16 S16         1.6055  -19.1232  -47.8107 S.3       23 UNK        -0.2404 
     17 C17        -0.1452  -19.6053  -47.6207 C.3       23 UNK        -0.0398 
     18 CA         -0.2883  -21.0295  -47.0364 C.3       11 UNK         0.1400 
     19 N           0.3922  -21.2065  -45.7483 N.am      11 UNK        -0.5000 
     20 C           0.7017  -22.4060  -45.2385 C.2       10 UNK         0.5000 
     21 O           0.4110  -23.4685  -45.7874 O.2       10 UNK        -0.5000 
     22 CA          1.4070  -22.4334  -43.8735 C.3       10 UNK         0.1400 
     23 CB          2.8786  -22.0135  -44.0048 C.3       10 UNK        -0.1800 
     24 N           0.7293  -21.6004  -42.8813 N.am      10 UNK        -0.5000 
     25 C          -0.5090  -21.8312  -42.4212 C.2       9 UNK         0.5000 
     26 O          -1.1937  -22.7978  -42.7570 O.2       9 UNK        -0.5000 
     27 CA         -1.0956  -20.7978  -41.4422 C.3       9 UNK         0.1400 
     28 CB         -0.6124  -21.0740  -40.0108 C.3       9 UNK        -0.1800 
     29 N          -0.7856  -19.4146  -41.8067 N.am      9 UNK        -0.5000 
     30 C          -1.1834  -18.8156  -42.9391 C.2       8 UNK         0.5000 
     31 O          -1.8690  -19.3621  -43.8015 O.2       8 UNK        -0.5000 
     32 CA         -0.6777  -17.3824  -43.1790 C.3       8 UNK         0.1400 
     33 CB         -1.4226  -16.3783  -42.2866 C.3       8 UNK        -0.1800 
     34 N           0.7619  -17.2604  -42.9592 N.am      8 UNK        -0.5000 
     35 C           1.6977  -17.9571  -43.6200 C.2       7 UNK         0.5000 
     36 O           1.4503  -18.7608  -44.5178 O.2       7 UNK        -0.5000 
     37 CA          3.1478  -17.7728  -43.1460 C.3       7 UNK         0.1400 
     38 CB          3.7446  -16.4645  -43.6895 C.3       7 UNK        -0.1800 
     39 N           3.2443  -17.8007  -41.6853 N.am      7 UNK        -0.5000 
     40 C           3.0122  -18.8876  -40.9338 C.2       6 UNK         0.5000 
     41 O           2.7297  -19.9921  -41.3962 O.2       6 UNK        -0.5000 
     42 CA          3.0668  -18.6996  -39.4071 C.3       6 UNK         0.1400 
     43 CB          4.5171  -18.7566  -38.9045 C.3       6 UNK        -0.1800 
     44 N           2.4518  -17.4445  -38.9749 N.am      6 UNK        -0.5000 
     45 C           1.1441  -17.1661  -39.0753 C.2       5 UNK         0.5000 
     46 O           0.3066  -17.9562  -39.5093 O.2       5 UNK        -0.5000 
     47 CA          0.7126  -15.7422  -38.6750 C.3       5 UNK         0.1400 
     48 CB          0.4570  -15.6581  -37.1630 C.3       5 UNK        -0.1800 
     49 N           1.6867  -14.7169  -39.0651 N.am      5 UNK        -0.5000 
     50 C           2.0405  -14.4625  -40.3307 C.2       4 UNK         0.5000 
     51 O           1.5769  -15.0669  -41.3035 O.2       4 UNK        -0.5000 
     52 CA          3.1194  -13.3943  -40.5497 C.3       4 UNK         0.1400 
     53 CB          4.5162  -13.9379  -40.2009 C.3       4 UNK        -0.1800 
     54 N           3.0726  -13.0257  -41.9553 N.am      4 UNK        -0.5000 
     55 C           3.4646  -11.8758  -42.5075 C.2       3 UNK         0.5000 
     56 O           4.0157  -10.9668  -41.8855 O.2       3 UNK        -0.5000 
     57 CA          3.1802  -11.7142  -44.0147 C.3       3 UNK         0.1400 
     58 CB          4.4464  -12.0041  -44.8349 C.3       3 UNK        -0.1800 
     59 N           2.1004  -12.5796  -44.5009 N.am      3 UNK        -0.5000 
     60 C           0.8021  -12.4456  -44.2008 C.2       2 UNK         0.5000 
     61 O           0.3629  -11.5560  -43.4702 O.2       2 UNK        -0.5000 
     62 CA         -0.1553  -13.4641  -44.8560 C.3       2 UNK         0.1400 
     63 CB         -1.6215  -13.2624  -44.4317 C.3       2 UNK        -0.1800 
     64 N          -0.0790  -13.3899  -46.3146 N.am      2 UNK        -0.5000 
     65 C           0.8767  -13.9372  -47.0780 C.2       1 UNK         0.5000 
     66 O           1.7806  -14.6431  -46.6285 O.2       1 UNK        -0.5000 
     67 C          -1.7588  -21.4941  -46.9869 C.2       11 UNK         0.5000 
     68 O          -2.2484  -22.0308  -47.9807 O.2       11 UNK        -0.5000 
     69 N          -2.4197  -21.3674  -45.8267 N.am      12 UNK        -0.5000 
     70 CA         -3.7542  -21.9195  -45.5728 C.3       12 UNK         0.1400 
     71 CB         -4.2933  -21.3863  -44.2374 C.3       12 UNK        -0.1800 
     72 C          -3.8024  -23.4618  -45.5953 C.2       12 UNK         0.5000 
     73 O          -4.8684  -24.0210  -45.8509 O.2       12 UNK        -0.5000 
     74 N          -2.6648  -24.1226  -45.3469 N.am      13 UNK        -0.5000 
     75 CA         -2.5125  -25.5675  -45.4937 C.3       13 UNK         0.1400 
     76 CB         -1.5017  -26.0857  -44.4579 C.3       13 UNK        -0.1800 
     77 C          -2.0799  -25.9371  -46.9236 C.2       13 UNK         0.5000 
     78 O          -2.6596  -26.8486  -47.5147 O.2       13 UNK        -0.5000 
     79 N          -1.0591  -25.2409  -47.4439 N.am      14 UNK        -0.5000 
     80 CA         -0.4121  -25.5447  -48.7201 C.3       14 UNK         0.1400 
     81 CB          0.9501  -24.8353  -48.7834 C.3       14 UNK        -0.1800 
     82 C          -1.2635  -25.1925  -49.9522 C.2       14 UNK         0.5000 
     83 O          -1.3902  -26.0242  -50.8521 O.2       14 UNK        -0.5000 
     84 N          -1.8072  -23.9696  -49.9841 N.am      15 UNK        -0.5000 
     85 CA         -2.5981  -23.4449  -51.0984 C.3       15 UNK         0.1400 
     86 CB         -2.1450  -22.0114  -51.4209 C.3       15 UNK        -0.1800 
     87 C          -4.1022  -23.4749  -50.7920 C.2       15 UNK         0.5000 
     88 O          -4.8951  -23.7301  -51.6980 O.2       15 UNK        -0.5000 
     89 N          -4.4639  -23.2274  -49.5245 N.am      16 UNK        -0.5000 
     90 CA         -5.8277  -23.1711  -48.9945 C.3       16 UNK         0.1400 
     91 CB         -6.5085  -24.5569  -49.0482 C.3       16 UNK        -0.1800 
     92 C          -6.6426  -22.0396  -49.6459 C.2       16 UNK         0.5000 
     93 O          -6.4484  -20.8792  -49.2812 O.2       16 UNK        -0.5000 
     94 N          -7.5178  -22.3744  -50.6022 N.am      17 UNK        -0.5000 
     95 CA         -8.4153  -21.4610  -51.3164 C.3       17 UNK         0.1400 
     96 CB         -9.5967  -22.2744  -51.8764 C.3       17 UNK        -0.1800 
     97 C          -7.7122  -20.6003  -52.3941 C.2       17 UNK         0.5000 
     98 O          -8.2546  -20.4225  -53.4872 O.2       17 UNK        -0.5000 
     99 N          -6.5278  -20.0701  -52.0543 N.am      18 UNK        -0.5000 
    100 CA        -5.6895  -19.1329  -52.8067 C.3       18 UNK         0.1400 
    101 CB        -6.2310  -17.6990  -52.6204 C.3       18 UNK        -0.1800 
    102 C         -5.5030  -19.5394  -54.2821 C.2       18 UNK         0.5000 
    103 O         -4.8135  -20.5233  -54.5540 O.2       18 UNK        -0.5000 
    104 N         -6.1472  -18.8024  -55.1992 N.am      19 UNK        -0.5000 
    105 CA        -6.1238  -18.9709  -56.6553 C.3       19 UNK         0.1400 
    106 CB        -7.0535  -17.9250  -57.2878 C.3       19 UNK        -0.1800 
    107 C         -6.4784  -20.3813  -57.1663 C.2       19 UNK         0.5000 
    108 O         -6.0551  -20.7352  -58.2672 O.2       19 UNK        -0.5000 
    109 N         -7.1914  -21.1781  -56.3558 N.am      20 UNK        -0.5000 
    110 CA        -7.4573  -22.5981  -56.6014 C.3       20 UNK         0.1400 
    111 CB        -8.3547  -23.1405  -55.4800 C.3       20 UNK        -0.1800 
    112 C         -6.1777  -23.4547  -56.7167 C.2       20 UNK         0.5000 
    113 O         -6.1864  -24.4517  -57.4402 O.2       20 UNK        -0.5000 
    114 N         -5.1082  -23.0421  -56.0234 N.am      21 UNK        -0.5000 
    115 CA        -3.7772  -23.6398  -56.0972 C.3       21 UNK         0.1400 
    116 CB        -3.3246  -24.0243  -54.6835 C.3       21 UNK        -0.1800 
    117 C         -2.7661  -22.6695  -56.7294 C.2       21 UNK         0.5000 
    118 O         -1.9197  -23.1086  -57.5089 O.2       21 UNK        -0.5000 
    119 N         -2.8588  -21.3780  -56.3831 N.am      22 UNK        -0.5000 
    120 CA        -1.9398  -20.3227  -56.8398 C.3       22 UNK         0.1400 
    121 C         -2.1054  -19.9060  -58.3308 C.2       22 UNK         0.5000 
    122 N         -3.2012  -20.2302  -59.0066 N.am      22 UNK        -0.7600 
    123 O         -1.2122  -19.2762  -58.8904 O.2       22 UNK        -0.5000 
    124 C124       -1.9790  -19.0715  -55.9229 C.3       23 UNK        -0.0398 
    125 S125       -1.6499  -19.4269  -54.1616 S.3       23 UNK        -0.2404 
    126 C126        0.1672  -19.4522  -54.1298 C.3       23 UNK        -0.0205 
    127 H127        0.7854   -9.2034  -49.5075 H         1 UNK         0.0600 
    128 H128       -0.7786  -10.0098  -49.3619 H         1 UNK         0.0600 
    129 H129       -0.0459   -9.2446  -47.9489 H         1 UNK         0.0600 
    130 H130       -0.5789  -12.2298  -49.3404 H         1 UNK         0.3000 
    131 H131        1.8811  -13.5972  -48.9247 H         1 UNK         0.0600 
    132 H132       -0.9577  -14.7299  -49.0630 H         1 UNK         0.0800 
    133 H133        0.4946  -15.6808  -49.1484 H         1 UNK         0.0800 
    134 H134        1.9437  -14.9504  -52.6559 H         1 UNK         0.0800 
    135 H135        2.4594  -15.0310  -50.9929 H         1 UNK         0.0800 
    136 H136        0.6100  -16.8106  -53.6808 H         1 UNK         0.1150 
    137 H137        0.9210  -20.6437  -51.7881 H         1 UNK         0.1150 
    138 H138        2.2641  -17.1225  -49.7429 H         1 UNK         0.1150 
    139 H139        1.6241  -20.8390  -49.5132 H         1 UNK         0.0800 
    140 H140        3.1232  -19.9473  -49.4798 H         1 UNK         0.0800 
    141 H141       -0.6389  -19.5287  -48.5915 H         1 UNK         0.0800 
    142 H142       -0.6288  -18.8774  -46.9668 H         1 UNK         0.0800 
    143 H143        0.2042  -21.7000  -47.7424 H         1 UNK         0.0600 
    144 H144        0.6830  -20.3615  -45.2611 H         1 UNK         0.3000 
    145 H145        1.3847  -23.4638  -43.5125 H         1 UNK         0.0600 
    146 H146        3.4054  -22.1257  -43.0572 H         1 UNK         0.0600 
    147 H147        3.3965  -22.6316  -44.7392 H         1 UNK         0.0600 
    148 H148        2.9783  -20.9754  -44.3215 H         1 UNK         0.0600 
    149 H149        1.2503  -20.8079  -42.5206 H         1 UNK         0.3000 
    150 H150       -2.1817  -20.9072  -41.4594 H         1 UNK         0.0600 
    151 H151       -0.8403  -22.0977  -39.7110 H         1 UNK         0.0600 
    152 H152       -1.0989  -20.4101  -39.2961 H         1 UNK         0.0600 
    153 H153        0.4651  -20.9349  -39.9164 H         1 UNK         0.0600 
    154 H154       -0.2444  -18.8806  -41.1325 H         1 UNK         0.3000 
    155 H155       -0.8727  -17.1248  -44.2220 H         1 UNK         0.0600 
    156 H156       -1.3225  -16.6228  -41.2293 H         1 UNK         0.0600 
    157 H157       -2.4875  -16.3649  -42.5211 H         1 UNK         0.0600 
    158 H158       -1.0425  -15.3675  -42.4256 H         1 UNK         0.0600 
    159 H159        1.0591  -16.6008  -42.2448 H         1 UNK         0.3000 
    160 H160        3.7375  -18.6030  -43.5404 H         1 UNK         0.0600 
    161 H161        4.7837  -16.3455  -43.3828 H         1 UNK         0.0600 
    162 H162        3.1916  -15.5905  -43.3485 H         1 UNK         0.0600 
    163 H163        3.7234  -16.4539  -44.7802 H         1 UNK         0.0600 
    164 H164        3.4209  -16.9221  -41.2235 H         1 UNK         0.3000 
    165 H165        2.5143  -19.5235  -38.9502 H         1 UNK         0.0600 
    166 H166        4.5593  -18.7028  -37.8165 H         1 UNK         0.0600 
    167 H167        4.9958  -19.6908  -39.2013 H         1 UNK         0.0600 
    168 H168        5.1169  -17.9384  -39.3051 H         1 UNK         0.0600 
    169 H169        3.0677  -16.7360  -38.6052 H         1 UNK         0.3000 
    170 H170       -0.2248  -15.5254  -39.1915 H         1 UNK         0.0600 
    171 H171       -0.2784  -16.4005  -36.8500 H         1 UNK         0.0600 
    172 H172        1.3673  -15.8351  -36.5888 H         1 UNK         0.0600 
    173 H173        0.0676  -14.6792  -36.8828 H         1 UNK         0.0600 
    174 H174        2.1091  -14.1857  -38.3172 H         1 UNK         0.3000 
    175 H175        2.8854  -12.5246  -39.9324 H         1 UNK         0.0600 
    176 H176        4.7705  -14.8105  -40.8039 H         1 UNK         0.0600 
    177 H177        5.2853  -13.1835  -40.3677 H         1 UNK         0.0600 
    178 H178        4.5756  -14.2316  -39.1523 H         1 UNK         0.0600 
    179 H179        2.5697  -13.6921  -42.5270 H         1 UNK         0.3000 
    180 H180        2.8883  -10.6762  -44.1866 H         1 UNK         0.0600 
    181 H181        4.7740  -13.0378  -44.7161 H         1 UNK         0.0600 
    182 H182        5.2700  -11.3596  -44.5250 H         1 UNK         0.0600 
    183 H183        4.2761  -11.8253  -45.8970 H         1 UNK         0.0600 
    184 H184        2.3599  -13.3178  -45.1463 H         1 UNK         0.3000 
    185 H185        0.1547  -14.4591  -44.5287 H         1 UNK         0.0600 
    186 H186       -1.7260  -13.2849  -43.3465 H         1 UNK         0.0600 
    187 H187       -2.0125  -12.3044  -44.7764 H         1 UNK         0.0600 
    188 H188       -2.2587  -14.0498  -44.8346 H         1 UNK         0.0600 
    189 H189       -0.7493  -12.7832  -46.7642 H         1 UNK         0.3000 
    190 H190       -1.9864  -20.8625  -45.0585 H         1 UNK         0.3000 
    191 H191       -4.4145  -21.5626  -46.3655 H         1 UNK         0.0600 
    192 H192       -3.6488  -21.6660  -43.4041 H         1 UNK         0.0600 
    193 H193       -5.2885  -21.7816  -44.0300 H         1 UNK         0.0600 
    194 H194       -4.3749  -20.2996  -44.2511 H         1 UNK         0.0600 
    195 H195       -1.8324  -23.5964  -45.1152 H         1 UNK         0.3000 
    196 H196       -3.4662  -26.0607  -45.2936 H         1 UNK         0.0600 
    197 H197       -0.5134  -25.6463  -44.5929 H         1 UNK         0.0600 
    198 H198       -1.3915  -27.1683  -44.5298 H         1 UNK         0.0600 
    199 H199       -1.8293  -25.8577  -43.4434 H         1 UNK         0.0600 
    200 H200       -0.6072  -24.5347  -46.8670 H         1 UNK         0.3000 
    201 H201       -0.2238  -26.6202  -48.7487 H         1 UNK         0.0600 
    202 H202        0.8446  -23.7514  -48.7411 H         1 UNK         0.0600 
    203 H203        1.4744  -25.0778  -49.7086 H         1 UNK         0.0600 
    204 H204        1.5918  -25.1401  -47.9565 H         1 UNK         0.0600 
    205 H205       -1.7128  -23.3593  -49.1777 H         1 UNK         0.3000 
    206 H206       -2.4328  -24.0523  -51.9893 H         1 UNK         0.0600 
    207 H207       -2.7411  -21.5859  -52.2293 H         1 UNK         0.0600 
    208 H208       -2.2429  -21.3466  -50.5626 H         1 UNK         0.0600 
    209 H209       -1.1043  -21.9930  -51.7426 H         1 UNK         0.0600 
    210 H210       -3.7313  -22.9528  -48.8780 H         1 UNK         0.3000 
    211 H211       -5.7421  -22.8928  -47.9463 H         1 UNK         0.0600 
    212 H212       -6.5929  -24.9478  -50.0621 H         1 UNK         0.0600 
    213 H213       -7.5129  -24.5144  -48.6252 H         1 UNK         0.0600 
    214 H214       -5.9449  -25.2835  -48.4623 H         1 UNK         0.0600 
    215 H215       -7.5446  -23.3410  -50.8936 H         1 UNK         0.3000 
    216 H216       -8.8256  -20.7568  -50.5898 H         1 UNK         0.0600 
    217 H217      -10.3192  -21.6307  -52.3797 H         1 UNK         0.0600 
    218 H218      -10.1307  -22.7905  -51.0783 H         1 UNK         0.0600 
    219 H219       -9.2655  -23.0243  -52.5942 H         1 UNK         0.0600 
    220 H220       -6.1985  -20.2918  -51.1203 H         1 UNK         0.3000 
    221 H221       -4.6963  -19.1736  -52.3567 H         1 UNK         0.0600 
    222 H222       -7.2581  -17.5977  -52.9730 H         1 UNK         0.0600 
    223 H223       -6.2188  -17.4159  -51.5677 H         1 UNK         0.0600 
    224 H224       -5.6169  -16.9709  -53.1523 H         1 UNK         0.0600 
    225 H225       -6.7238  -18.0472  -54.8584 H         1 UNK         0.3000 
    226 H226       -5.1060  -18.7621  -56.9875 H         1 UNK         0.0600 
    227 H227       -6.7446  -16.9122  -57.0281 H         1 UNK         0.0600 
    228 H228       -7.0415  -17.9965  -58.3764 H         1 UNK         0.0600 
    229 H229       -8.0858  -18.0570  -56.9612 H         1 UNK         0.0600 
    230 H230       -7.4955  -20.8096  -55.4607 H         1 UNK         0.3000 
    231 H231       -7.9979  -22.6761  -57.5468 H         1 UNK         0.0600 
    232 H232       -9.2760  -22.5642  -55.3929 H         1 UNK         0.0600 
    233 H233       -7.8448  -23.1086  -54.5166 H         1 UNK         0.0600 
    234 H234       -8.6342  -24.1776  -55.6693 H         1 UNK         0.0600 
    235 H235       -5.1907  -22.2010  -55.4602 H         1 UNK         0.3000 
    236 H236       -3.7918  -24.5455  -56.7069 H         1 UNK         0.0600 
    237 H237       -2.3246  -24.4596  -54.6924 H         1 UNK         0.0600 
    238 H238       -3.3019  -23.1521  -54.0302 H         1 UNK         0.0600 
    239 H239       -3.9980  -24.7575  -54.2393 H         1 UNK         0.0600 
    240 H240       -3.5545  -21.0914  -55.6985 H         1 UNK         0.3000 
    241 H241       -0.9311  -20.7336  -56.7656 H         1 UNK         0.0600 
    242 H242       -3.2778  -19.9545  -59.9727 H         1 UNK         0.3800 
    243 H243       -3.9745  -20.7160  -58.5710 H         1 UNK         0.3800 
    244 H244       -1.2681  -18.3170  -56.2641 H         1 UNK         0.0800 
    245 H245       -2.9586  -18.5970  -55.9816 H         1 UNK         0.0800 
    246 H246        0.5080  -20.4861  -54.2018 H         1 UNK         0.0800 
    247 H247        0.5745  -18.9386  -55.0016 H         1 UNK         0.0800 
@<TRIPOS>BOND
     1    1    2 1    
     2    1  127 1    
     3    1  128 1    
     4    1  129 1    
     5    2    3 2    
     6    2    4 am   BACKBONE|DICT|INTERRES
     7    4    5 1    
     8    4  130 1    
     9    5    6 1    
    10    5   65 1    
    11    5  131 1    
    12    6    7 1    
    13    6  132 1    
    14    6  133 1    
    15    7    8 1    
    16    8    9 1    
    17    8  134 1    
    18    8  135 1    
    19    9   10 ar   
    20    9   14 ar   
    21   10   11 ar   
    22   10  136 1    
    23   11   12 ar   
    24   11  126 1    
    25   12   13 ar   
    26   12  137 1    
    27   13   14 ar   
    28   13   15 1    
    29   14  138 1    
    30   15   16 1    
    31   15  139 1    
    32   15  140 1    
    33   16   17 1    
    34   17   18 1    
    35   17  141 1    
    36   17  142 1    
    37   18   19 1    
    38   18   67 1    
    39   18  143 1    
    40   19   20 am   BACKBONE|DICT|INTERRES
    41   19  144 1    
    42   20   21 2    
    43   20   22 1    
    44   22   23 1    
    45   22   24 1    
    46   22  145 1    
    47   23  146 1    
    48   23  147 1    
    49   23  148 1    
    50   24   25 am   BACKBONE|DICT|INTERRES
    51   24  149 1    
    52   25   26 2    
    53   25   27 1    
    54   27   28 1    
    55   27   29 1    
    56   27  150 1    
    57   28  151 1    
    58   28  152 1    
    59   28  153 1    
    60   29   30 am   BACKBONE|DICT|INTERRES
    61   29  154 1    
    62   30   31 2    
    63   30   32 1    
    64   32   33 1    
    65   32   34 1    
    66   32  155 1    
    67   33  156 1    
    68   33  157 1    
    69   33  158 1    
    70   34   35 am   BACKBONE|DICT|INTERRES
    71   34  159 1    
    72   35   36 2    
    73   35   37 1    
    74   37   38 1    
    75   37   39 1    
    76   37  160 1    
    77   38  161 1    
    78   38  162 1    
    79   38  163 1    
    80   39   40 am   BACKBONE|DICT|INTERRES
    81   39  164 1    
    82   40   41 2    
    83   40   42 1    
    84   42   43 1    
    85   42   44 1    
    86   42  165 1    
    87   43  166 1    
    88   43  167 1    
    89   43  168 1    
    90   44   45 am   BACKBONE|DICT|INTERRES
    91   44  169 1    
    92   45   46 2    
    93   45   47 1    
    94   47   48 1    
    95   47   49 1    
    96   47  170 1    
    97   48  171 1    
    98   48  172 1    
    99   48  173 1    
   100   49   50 am   BACKBONE|DICT|INTERRES
   101   49  174 1    
   102   50   51 2    
   103   50   52 1    
   104   52   53 1    
   105   52   54 1    
   106   52  175 1    
   107   53  176 1    
   108   53  177 1    
   109   53  178 1    
   110   54   55 am   BACKBONE|DICT|INTERRES
   111   54  179 1    
   112   55   56 2    
   113   55   57 1    
   114   57   58 1    
   115   57   59 1    
   116   57  180 1    
   117   58  181 1    
   118   58  182 1    
   119   58  183 1    
   120   59   60 am   BACKBONE|DICT|INTERRES
   121   59  184 1    
   122   60   61 2    
   123   60   62 1    
   124   62   63 1    
   125   62   64 1    
   126   62  185 1    
   127   63  186 1    
   128   63  187 1    
   129   63  188 1    
   130   64   65 am   BACKBONE|DICT|INTERRES
   131   64  189 1    
   132   65   66 2    
   133   67   68 2    
   134   67   69 am   BACKBONE|DICT|INTERRES
   135   69   70 1    
   136   69  190 1    
   137   70   71 1    
   138   70   72 1    
   139   70  191 1    
   140   71  192 1    
   141   71  193 1    
   142   71  194 1    
   143   72   73 2    
   144   72   74 am   BACKBONE|DICT|INTERRES
   145   74   75 1    
   146   74  195 1    
   147   75   76 1    
   148   75   77 1    
   149   75  196 1    
   150   76  197 1    
   151   76  198 1    
   152   76  199 1    
   153   77   78 2    
   154   77   79 am   BACKBONE|DICT|INTERRES
   155   79   80 1    
   156   79  200 1    
   157   80   81 1    
   158   80   82 1    
   159   80  201 1    
   160   81  202 1    
   161   81  203 1    
   162   81  204 1    
   163   82   83 2    
   164   82   84 am   BACKBONE|DICT|INTERRES
   165   84   85 1    
   166   84  205 1    
   167   85   86 1    
   168   85   87 1    
   169   85  206 1    
   170   86  207 1    
   171   86  208 1    
   172   86  209 1    
   173   87   88 2    
   174   87   89 am   BACKBONE|DICT|INTERRES
   175   89   90 1    
   176   89  210 1    
   177   90   91 1    
   178   90   92 1    
   179   90  211 1    
   180   91  212 1    
   181   91  213 1    
   182   91  214 1    
   183   92   93 2    
   184   92   94 am   BACKBONE|DICT|INTERRES
   185   94   95 1    
   186   94  215 1    
   187   95   96 1    
   188   95   97 1    
   189   95  216 1    
   190   96  217 1    
   191   96  218 1    
   192   96  219 1    
   193   97   98 2    
   194   97   99 am   BACKBONE|DICT|INTERRES
   195   99  100 1    
   196   99  220 1    
   197  100  101 1    
   198  100  102 1    
   199  100  221 1    
   200  101  222 1    
   201  101  223 1    
   202  101  224 1    
   203  102  103 2    
   204  102  104 am   BACKBONE|DICT|INTERRES
   205  104  105 1    
   206  104  225 1    
   207  105  106 1    
   208  105  107 1    
   209  105  226 1    
   210  106  227 1    
   211  106  228 1    
   212  106  229 1    
   213  107  108 2    
   214  107  109 am   BACKBONE|DICT|INTERRES
   215  109  110 1    
   216  109  230 1    
   217  110  111 1    
   218  110  112 1    
   219  110  231 1    
   220  111  232 1    
   221  111  233 1    
   222  111  234 1    
   223  112  113 2    
   224  112  114 am   BACKBONE|DICT|INTERRES
   225  114  115 1    
   226  114  235 1    
   227  115  116 1    
   228  115  117 1    
   229  115  236 1    
   230  116  237 1    
   231  116  238 1    
   232  116  239 1    
   233  117  118 2    
   234  117  119 am   BACKBONE|DICT|INTERRES
   235  119  120 1    
   236  119  240 1    
   237  120  121 1    
   238  120  124 1    
   239  120  241 1    
   240  121  122 am   BACKBONE|DICT|INTERRES
   241  121  123 2    
   242  122  242 1    
   243  122  243 1    
   244  124  125 1    
   245  124  244 1    
   246  124  245 1    
   247  125  126 1    
   248  126  246 1    
   249  126  247 1    
@<TRIPOS>SUBSTRUCTURE
     1 UNK         1 GROUP             0       ****    0 ROOT    
