@<TRIPOS>MOLECULE
3R540
247   249    1
SMALL
USER_CHARGES


@<TRIPOS>ATOM
      1 CA         -8.5384  -13.3412  -44.7544 C.3       0 UNK        -0.1800 
      2 C          -7.1069  -13.0931  -45.2093 C.2       0 UNK         0.5000 
      3 O          -6.5800  -11.9991  -45.0046 O.2       0 UNK        -0.5000 
      4 N          -6.4808  -14.0995  -45.8319 N.am      1 UNK        -0.5000 
      5 CA         -5.0834  -14.0698  -46.2715 C.3       1 UNK         0.1400 
      6 C6         -4.7957  -15.2028  -47.2866 C.3       23 UNK        -0.0398 
      7 S7         -3.2562  -14.9107  -48.2266 S.3       23 UNK        -0.2404 
      8 C8         -3.8826  -14.7224  -49.9239 C.3       23 UNK        -0.0205 
      9 C9         -3.9557  -16.0618  -50.6403 C.ar      23 UNK        -0.0193 
     10 C10        -2.8733  -16.4903  -51.4125 C.ar      23 UNK        -0.1150 
     11 C11        -2.9343  -17.6997  -52.1061 C.ar      23 UNK        -0.0193 
     12 C12        -4.0763  -18.4959  -51.9987 C.ar      23 UNK        -0.1150 
     13 C13        -5.1579  -18.1008  -51.2081 C.ar      23 UNK        -0.0193 
     14 C14        -5.0974  -16.8657  -50.5463 C.ar      23 UNK        -0.1150 
     15 C15        -6.3623  -19.0408  -51.1361 C.3       23 UNK        -0.0205 
     16 S16        -7.5728  -18.7238  -49.8058 S.3       23 UNK        -0.2404 
     17 C17        -6.6517  -19.0397  -48.2616 C.3       23 UNK        -0.0398 
     18 CA         -5.9541  -20.4283  -48.1826 C.3       11 UNK         0.1400 
     19 N          -4.5391  -20.3313  -48.5694 N.am      11 UNK        -0.5000 
     20 C          -3.6397  -21.3244  -48.5533 C.2       10 UNK         0.5000 
     21 O          -3.9029  -22.4901  -48.2627 O.2       10 UNK        -0.5000 
     22 CA         -2.1781  -20.9536  -48.8508 C.3       10 UNK         0.1400 
     23 CB         -1.9181  -21.0490  -50.3580 C.3       10 UNK        -0.1800 
     24 N          -1.7301  -19.6465  -48.3535 N.am      10 UNK        -0.5000 
     25 C          -1.9384  -19.1313  -47.1339 C.2       9 UNK         0.5000 
     26 O          -2.6398  -19.6637  -46.2729 O.2       9 UNK        -0.5000 
     27 CA         -1.2115  -17.8175  -46.8087 C.3       9 UNK         0.1400 
     28 CB         -1.8394  -17.1092  -45.5976 C.3       9 UNK        -0.1800 
     29 N           0.1971  -18.0595  -46.5152 N.am      9 UNK        -0.5000 
     30 C           1.1469  -18.3672  -47.4072 C.2       8 UNK         0.5000 
     31 O           0.9354  -18.4570  -48.6176 O.2       8 UNK        -0.5000 
     32 CA          2.5664  -18.6140  -46.8646 C.3       8 UNK         0.1400 
     33 CB          3.6043  -17.7624  -47.6124 C.3       8 UNK        -0.1800 
     34 N           2.6636  -18.3262  -45.4309 N.am      8 UNK        -0.5000 
     35 C           2.9285  -19.2369  -44.4839 C.2       7 UNK         0.5000 
     36 O           3.1075  -20.4331  -44.7151 O.2       7 UNK        -0.5000 
     37 CA          3.0141  -18.7387  -43.0289 C.3       7 UNK         0.1400 
     38 CB          4.4765  -18.4694  -42.6456 C.3       7 UNK        -0.1800 
     39 N           2.2090  -17.5399  -42.7800 N.am      7 UNK        -0.5000 
     40 C           0.8721  -17.5533  -42.6724 C.2       6 UNK         0.5000 
     41 O           0.2059  -18.5822  -42.7872 O.2       6 UNK        -0.5000 
     42 CA          0.1346  -16.2167  -42.4488 C.3       6 UNK         0.1400 
     43 CB         -0.9485  -16.3135  -41.3558 C.3       6 UNK        -0.1800 
     44 N           1.0021  -15.0549  -42.2467 N.am      6 UNK        -0.5000 
     45 C           1.7719  -14.7453  -41.1960 C.2       5 UNK         0.5000 
     46 O           1.8446  -15.4145  -40.1647 O.2       5 UNK        -0.5000 
     47 CA          2.6283  -13.4724  -41.3786 C.3       5 UNK         0.1400 
     48 CB          3.7342  -13.3238  -40.3127 C.3       5 UNK        -0.1800 
     49 N           3.1843  -13.3732  -42.7373 N.am      5 UNK        -0.5000 
     50 C           4.0028  -14.2581  -43.3284 C.2       4 UNK         0.5000 
     51 O           4.4467  -15.2552  -42.7603 O.2       4 UNK        -0.5000 
     52 CA          4.3258  -14.0091  -44.8172 C.3       4 UNK         0.1400 
     53 CB          5.0656  -15.1934  -45.4724 C.3       4 UNK        -0.1800 
     54 N           3.1379  -13.6431  -45.5997 N.am      4 UNK        -0.5000 
     55 C           2.0140  -14.3586  -45.7528 C.2       3 UNK         0.5000 
     56 O           1.8322  -15.4838  -45.2793 O.2       3 UNK        -0.5000 
     57 CA          0.8883  -13.6784  -46.5578 C.3       3 UNK         0.1400 
     58 CB          0.7068  -14.3668  -47.9181 C.3       3 UNK        -0.1800 
     59 N          -0.3945  -13.6661  -45.8490 N.am      3 UNK        -0.5000 
     60 C          -0.6053  -13.1595  -44.6243 C.2       2 UNK         0.5000 
     61 O           0.2814  -12.6366  -43.9468 O.2       2 UNK        -0.5000 
     62 CA         -2.0309  -13.2717  -44.0507 C.3       2 UNK         0.1400 
     63 CB         -2.3810  -12.1111  -43.1013 C.3       2 UNK        -0.1800 
     64 N          -3.0389  -13.3632  -45.1085 N.am      2 UNK        -0.5000 
     65 C          -4.1312  -14.1351  -45.0561 C.2       1 UNK         0.5000 
     66 O          -4.3944  -14.8902  -44.1169 O.2       1 UNK        -0.5000 
     67 C          -6.1614  -21.0492  -46.7796 C.2       11 UNK         0.5000 
     68 O          -7.1291  -21.7860  -46.5876 O.2       11 UNK        -0.5000 
     69 N          -5.2557  -20.7485  -45.8401 N.am      12 UNK        -0.5000 
     70 CA         -5.2722  -21.2537  -44.4688 C.3       12 UNK         0.1400 
     71 CB         -5.1454  -20.0653  -43.5019 C.3       12 UNK        -0.1800 
     72 C          -4.1343  -22.2587  -44.2278 C.2       12 UNK         0.5000 
     73 O          -4.3524  -23.2728  -43.5651 O.2       12 UNK        -0.5000 
     74 N          -2.9414  -21.9600  -44.7594 N.am      13 UNK        -0.5000 
     75 CA         -1.7061  -22.7061  -44.5207 C.3       13 UNK         0.1400 
     76 CB         -0.5084  -21.8451  -44.9571 C.3       13 UNK        -0.1800 
     77 C          -1.6600  -24.0772  -45.2172 C.2       13 UNK         0.5000 
     78 O          -1.0039  -24.9843  -44.7034 O.2       13 UNK        -0.5000 
     79 N          -2.3339  -24.2034  -46.3677 N.am      14 UNK        -0.5000 
     80 CA         -2.3224  -25.4050  -47.2047 C.3       14 UNK         0.1400 
     81 CB         -1.4379  -25.1341  -48.4358 C.3       14 UNK        -0.1800 
     82 C          -3.7323  -25.8418  -47.6366 C.2       14 UNK         0.5000 
     83 O          -3.8438  -26.7821  -48.4215 O.2       14 UNK        -0.5000 
     84 N          -4.7796  -25.1326  -47.1856 N.am      15 UNK        -0.5000 
     85 CA         -6.1794  -25.2635  -47.6209 C.3       15 UNK         0.1400 
     86 CB         -6.7887  -26.5762  -47.0873 C.3       15 UNK        -0.1800 
     87 C          -6.3544  -25.0992  -49.1512 C.2       15 UNK         0.5000 
     88 O          -7.2156  -25.7433  -49.7520 O.2       15 UNK        -0.5000 
     89 N          -5.4937  -24.2610  -49.7484 N.am      16 UNK        -0.5000 
     90 CA         -5.3178  -23.9920  -51.1781 C.3       16 UNK         0.1400 
     91 CB         -6.5803  -23.3326  -51.7701 C.3       16 UNK        -0.1800 
     92 C          -4.8277  -25.2018  -52.0099 C.2       16 UNK         0.5000 
     93 O          -4.8995  -25.1497  -53.2388 O.2       16 UNK        -0.5000 
     94 N          -4.3166  -26.2593  -51.3578 N.am      17 UNK        -0.5000 
     95 CA         -3.7899  -27.4592  -52.0206 C.3       17 UNK         0.1400 
     96 CB         -3.8403  -28.6457  -51.0460 C.3       17 UNK        -0.1800 
     97 C          -2.3594  -27.2748  -52.5673 C.2       17 UNK         0.5000 
     98 O          -1.9343  -28.0577  -53.4181 O.2       17 UNK        -0.5000 
     99 N          -1.6496  -26.2515  -52.0806 N.am      18 UNK        -0.5000 
    100 CA        -0.3455  -25.8039  -52.5599 C.3       18 UNK         0.1400 
    101 CB         0.7228  -26.1151  -51.4996 C.3       18 UNK        -0.1800 
    102 C         -0.4320  -24.2939  -52.8190 C.2       18 UNK         0.5000 
    103 O         -1.2859  -23.6273  -52.2305 O.2       18 UNK        -0.5000 
    104 N          0.4397  -23.7831  -53.6968 N.am      19 UNK        -0.5000 
    105 CA         0.4413  -22.3807  -54.1163 C.3       19 UNK         0.1400 
    106 CB         1.2041  -22.2468  -55.4426 C.3       19 UNK        -0.1800 
    107 C          1.0226  -21.4284  -53.0571 C.2       19 UNK         0.5000 
    108 O          0.4781  -20.3421  -52.8703 O.2       19 UNK        -0.5000 
    109 N          2.1154  -21.8414  -52.3959 N.am      20 UNK        -0.5000 
    110 CA         2.8735  -21.0862  -51.3878 C.3       20 UNK         0.1400 
    111 CB         2.1391  -21.1222  -50.0338 C.3       20 UNK        -0.1800 
    112 C          3.2347  -19.6626  -51.8744 C.2       20 UNK         0.5000 
    113 O          4.0413  -19.5437  -52.7991 O.2       20 UNK        -0.5000 
    114 N          2.6088  -18.6202  -51.3020 N.am      21 UNK        -0.5000 
    115 CA         2.7604  -17.2147  -51.7027 C.3       21 UNK         0.1400 
    116 CB         1.9166  -16.3244  -50.7770 C.3       21 UNK        -0.1800 
    117 C          2.3931  -16.9203  -53.1715 C.2       21 UNK         0.5000 
    118 O          2.9272  -15.9703  -53.7456 O.2       21 UNK        -0.5000 
    119 N          1.5051  -17.7354  -53.7522 N.am      22 UNK        -0.5000 
    120 CA         1.1106  -17.6741  -55.1666 C.3       22 UNK         0.1400 
    121 C          2.1108  -18.3907  -56.1234 C.2       22 UNK         0.5000 
    122 N          3.1614  -19.0464  -55.6404 N.am      22 UNK        -0.7600 
    123 O          1.9362  -18.3428  -57.3378 O.2       22 UNK        -0.5000 
    124 C124       -0.3382  -18.1867  -55.3798 C.3       23 UNK        -0.0398 
    125 S125       -1.5949  -17.2061  -54.4855 S.3       23 UNK        -0.2404 
    126 C126       -1.7580  -18.1636  -52.9470 C.3       23 UNK        -0.0205 
    127 H127       -9.2114  -12.6241  -45.2245 H         1 UNK         0.0600 
    128 H128       -8.6139  -13.2234  -43.6734 H         1 UNK         0.0600 
    129 H129       -8.8779  -14.3449  -45.0114 H         1 UNK         0.0600 
    130 H130       -6.9571  -14.9836  -45.9355 H         1 UNK         0.3000 
    131 H131       -4.9306  -13.1144  -46.7791 H         1 UNK         0.0600 
    132 H132       -4.7479  -16.1757  -46.7967 H         1 UNK         0.0800 
    133 H133       -5.6256  -15.2762  -47.9892 H         1 UNK         0.0800 
    134 H134       -3.2126  -14.0529  -50.4655 H         1 UNK         0.0800 
    135 H135       -4.8565  -14.2309  -49.9245 H         1 UNK         0.0800 
    136 H136       -1.9861  -15.8769  -51.4870 H         1 UNK         0.1150 
    137 H137       -4.1197  -19.4376  -52.5284 H         1 UNK         0.1150 
    138 H138       -5.9345  -16.5211  -49.9587 H         1 UNK         0.1150 
    139 H139       -6.8919  -18.9759  -52.0874 H         1 UNK         0.0800 
    140 H140       -6.0163  -20.0720  -51.0563 H         1 UNK         0.0800 
    141 H141       -7.3916  -18.9161  -47.4677 H         1 UNK         0.0800 
    142 H142       -5.9373  -18.2318  -48.0987 H         1 UNK         0.0800 
    143 H143       -6.4323  -21.1135  -48.8854 H         1 UNK         0.0600 
    144 H144       -4.2103  -19.4125  -48.8267 H         1 UNK         0.3000 
    145 H145       -1.5630  -21.7085  -48.3577 H         1 UNK         0.0600 
    146 H146       -2.4895  -21.8574  -50.8136 H         1 UNK         0.0600 
    147 H147       -0.8707  -21.2493  -50.5687 H         1 UNK         0.0600 
    148 H148       -2.1912  -20.1315  -50.8715 H         1 UNK         0.0600 
    149 H149       -1.0671  -19.1557  -48.9422 H         1 UNK         0.3000 
    150 H150       -1.2928  -17.1617  -47.6774 H         1 UNK         0.0600 
    151 H151       -2.9109  -16.9730  -45.7306 H         1 UNK         0.0600 
    152 H152       -1.4028  -16.1249  -45.4532 H         1 UNK         0.0600 
    153 H153       -1.7031  -17.6807  -44.6788 H         1 UNK         0.0600 
    154 H154        0.4603  -18.0444  -45.5415 H         1 UNK         0.3000 
    155 H155        2.7922  -19.6636  -47.0588 H         1 UNK         0.0600 
    156 H156        3.3715  -16.6989  -47.5496 H         1 UNK         0.0600 
    157 H157        3.6461  -18.0322  -48.6675 H         1 UNK         0.0600 
    158 H158        4.6043  -17.9127  -47.2057 H         1 UNK         0.0600 
    159 H159        2.5036  -17.3587  -45.1621 H         1 UNK         0.3000 
    160 H160        2.6432  -19.5375  -42.3830 H         1 UNK         0.0600 
    161 H161        4.9463  -17.7575  -43.3246 H         1 UNK         0.0600 
    162 H162        5.0625  -19.3883  -42.6848 H         1 UNK         0.0600 
    163 H163        4.5568  -18.0740  -41.6328 H         1 UNK         0.0600 
    164 H164        2.7078  -16.6622  -42.6991 H         1 UNK         0.3000 
    165 H165       -0.3772  -16.0175  -43.3877 H         1 UNK         0.0600 
    166 H166       -1.4686  -15.3643  -41.2277 H         1 UNK         0.0600 
    167 H167       -0.5279  -16.6003  -40.3918 H         1 UNK         0.0600 
    168 H168       -1.6998  -17.0599  -41.6166 H         1 UNK         0.0600 
    169 H169        1.0587  -14.4248  -43.0382 H         1 UNK         0.3000 
    170 H170        1.9455  -12.6290  -41.2645 H         1 UNK         0.0600 
    171 H171        3.3046  -13.2643  -39.3121 H         1 UNK         0.0600 
    172 H172        4.4245  -14.1677  -40.3203 H         1 UNK         0.0600 
    173 H173        4.3139  -12.4145  -40.4707 H         1 UNK         0.0600 
    174 H174        2.8238  -12.6128  -43.2983 H         1 UNK         0.3000 
    175 H175        4.9937  -13.1471  -44.8456 H         1 UNK         0.0600 
    176 H176        4.4983  -16.1191  -45.3865 H         1 UNK         0.0600 
    177 H177        5.2537  -15.0092  -46.5300 H         1 UNK         0.0600 
    178 H178        6.0312  -15.3614  -44.9944 H         1 UNK         0.0600 
    179 H179        3.1741  -12.7256  -46.0218 H         1 UNK         0.3000 
    180 H180        1.1643  -12.6377  -46.7389 H         1 UNK         0.0600 
    181 H181        0.4174  -15.4113  -47.8070 H         1 UNK         0.0600 
    182 H182        1.6344  -14.3424  -48.4905 H         1 UNK         0.0600 
    183 H183       -0.0567  -13.8703  -48.5173 H         1 UNK         0.0600 
    184 H184       -1.1665  -14.1072  -46.3260 H         1 UNK         0.3000 
    185 H185       -2.0359  -14.1935  -43.4666 H         1 UNK         0.0600 
    186 H186       -1.6825  -12.0591  -42.2651 H         1 UNK         0.0600 
    187 H187       -2.3527  -11.1507  -43.6170 H         1 UNK         0.0600 
    188 H188       -3.3783  -12.2351  -42.6787 H         1 UNK         0.0600 
    189 H189       -2.8940  -12.7654  -45.9111 H         1 UNK         0.3000 
    190 H190       -4.4516  -20.1831  -46.0976 H         1 UNK         0.3000 
    191 H191       -6.2144  -21.7626  -44.2551 H         1 UNK         0.0600 
    192 H192       -5.1441  -20.4024  -42.4646 H         1 UNK         0.0600 
    193 H193       -5.9805  -19.3744  -43.6183 H         1 UNK         0.0600 
    194 H194       -4.2239  -19.5050  -43.6679 H         1 UNK         0.0600 
    195 H195       -2.8434  -21.0950  -45.2879 H         1 UNK         0.3000 
    196 H196       -1.6220  -22.8799  -43.4458 H         1 UNK         0.0600 
    197 H197       -0.5186  -21.6532  -46.0302 H         1 UNK         0.0600 
    198 H198       -0.5043  -20.8822  -44.4453 H         1 UNK         0.0600 
    199 H199        0.4355  -22.3391  -44.7230 H         1 UNK         0.0600 
    200 H200       -2.8435  -23.4088  -46.7364 H         1 UNK         0.3000 
    201 H201       -1.9009  -26.2508  -46.6583 H         1 UNK         0.0600 
    202 H202       -1.8445  -24.3358  -49.0583 H         1 UNK         0.0600 
    203 H203       -1.3505  -26.0253  -49.0583 H         1 UNK         0.0600 
    204 H204       -0.4285  -24.8472  -48.1412 H         1 UNK         0.0600 
    205 H205       -4.5902  -24.3697  -46.5530 H         1 UNK         0.3000 
    206 H206       -6.7229  -24.4365  -47.1631 H         1 UNK         0.0600 
    207 H207       -6.6581  -26.6607  -46.0085 H         1 UNK         0.0600 
    208 H208       -7.8598  -26.6208  -47.2876 H         1 UNK         0.0600 
    209 H209       -6.3326  -27.4518  -47.5502 H         1 UNK         0.0600 
    210 H210       -4.8479  -23.7598  -49.1409 H         1 UNK         0.3000 
    211 H211       -4.5141  -23.2571  -51.2369 H         1 UNK         0.0600 
    212 H212       -6.3942  -22.9653  -52.7799 H         1 UNK         0.0600 
    213 H213       -6.8986  -22.4799  -51.1706 H         1 UNK         0.0600 
    214 H214       -7.4138  -24.0331  -51.8266 H         1 UNK         0.0600 
    215 H215       -4.2926  -26.2610  -50.3431 H         1 UNK         0.3000 
    216 H216       -4.4365  -27.6989  -52.8674 H         1 UNK         0.0600 
    217 H217       -3.1274  -28.5274  -50.2296 H         1 UNK         0.0600 
    218 H218       -3.5951  -29.5776  -51.5567 H         1 UNK         0.0600 
    219 H219       -4.8338  -28.7629  -50.6126 H         1 UNK         0.0600 
    220 H220       -2.1097  -25.6059  -51.4537 H         1 UNK         0.3000 
    221 H221       -0.0870  -26.3036  -53.4958 H         1 UNK         0.0600 
    222 H222        0.7389  -27.1776  -51.2563 H         1 UNK         0.0600 
    223 H223        0.5498  -25.5618  -50.5763 H         1 UNK         0.0600 
    224 H224        1.7176  -25.8483  -51.8580 H         1 UNK         0.0600 
    225 H225        1.1135  -24.3920  -54.1384 H         1 UNK         0.3000 
    226 H226       -0.5924  -22.0762  -54.2966 H         1 UNK         0.0600 
    227 H227        2.2550  -22.5186  -55.3365 H         1 UNK         0.0600 
    228 H228        0.7686  -22.8814  -56.2145 H         1 UNK         0.0600 
    229 H229        1.1658  -21.2218  -55.8111 H         1 UNK         0.0600 
    230 H230        2.4970  -22.7430  -52.6415 H         1 UNK         0.3000 
    231 H231        3.8209  -21.6113  -51.2584 H         1 UNK         0.0600 
    232 H232        1.1818  -20.6075  -50.0763 H         1 UNK         0.0600 
    233 H233        2.7379  -20.6496  -49.2556 H         1 UNK         0.0600 
    234 H234        1.9487  -22.1476  -49.7169 H         1 UNK         0.0600 
    235 H235        1.9444  -18.7977  -50.5574 H         1 UNK         0.3000 
    236 H236        3.8107  -16.9475  -51.5716 H         1 UNK         0.0600 
    237 H237        2.2630  -16.3838  -49.7476 H         1 UNK         0.0600 
    238 H238        1.9780  -15.2762  -51.0725 H         1 UNK         0.0600 
    239 H239        0.8636  -16.6088  -50.7944 H         1 UNK         0.0600 
    240 H240        1.1411  -18.5251  -53.2273 H         1 UNK         0.3000 
    241 H241        1.1225  -16.6263  -55.4725 H         1 UNK         0.0600 
    242 H242        3.3473  -19.0904  -54.6445 H         1 UNK         0.3800 
    243 H243        3.7983  -19.4910  -56.2819 H         1 UNK         0.3800 
    244 H244       -0.6014  -18.1376  -56.4378 H         1 UNK         0.0800 
    245 H245       -0.4233  -19.2381  -55.1045 H         1 UNK         0.0800 
    246 H246       -1.8696  -19.2204  -53.1932 H         1 UNK         0.0800 
    247 H247       -0.8457  -18.0739  -52.3571 H         1 UNK         0.0800 
@<TRIPOS>BOND
     1    1    2 1    
     2    1  127 1    
     3    1  128 1    
     4    1  129 1    
     5    2    3 2    
     6    2    4 am   BACKBONE|DICT|INTERRES
     7    4    5 1    
     8    4  130 1    
     9    5    6 1    
    10    5   65 1    
    11    5  131 1    
    12    6    7 1    
    13    6  132 1    
    14    6  133 1    
    15    7    8 1    
    16    8    9 1    
    17    8  134 1    
    18    8  135 1    
    19    9   10 ar   
    20    9   14 ar   
    21   10   11 ar   
    22   10  136 1    
    23   11   12 ar   
    24   11  126 1    
    25   12   13 ar   
    26   12  137 1    
    27   13   14 ar   
    28   13   15 1    
    29   14  138 1    
    30   15   16 1    
    31   15  139 1    
    32   15  140 1    
    33   16   17 1    
    34   17   18 1    
    35   17  141 1    
    36   17  142 1    
    37   18   19 1    
    38   18   67 1    
    39   18  143 1    
    40   19   20 am   BACKBONE|DICT|INTERRES
    41   19  144 1    
    42   20   21 2    
    43   20   22 1    
    44   22   23 1    
    45   22   24 1    
    46   22  145 1    
    47   23  146 1    
    48   23  147 1    
    49   23  148 1    
    50   24   25 am   BACKBONE|DICT|INTERRES
    51   24  149 1    
    52   25   26 2    
    53   25   27 1    
    54   27   28 1    
    55   27   29 1    
    56   27  150 1    
    57   28  151 1    
    58   28  152 1    
    59   28  153 1    
    60   29   30 am   BACKBONE|DICT|INTERRES
    61   29  154 1    
    62   30   31 2    
    63   30   32 1    
    64   32   33 1    
    65   32   34 1    
    66   32  155 1    
    67   33  156 1    
    68   33  157 1    
    69   33  158 1    
    70   34   35 am   BACKBONE|DICT|INTERRES
    71   34  159 1    
    72   35   36 2    
    73   35   37 1    
    74   37   38 1    
    75   37   39 1    
    76   37  160 1    
    77   38  161 1    
    78   38  162 1    
    79   38  163 1    
    80   39   40 am   BACKBONE|DICT|INTERRES
    81   39  164 1    
    82   40   41 2    
    83   40   42 1    
    84   42   43 1    
    85   42   44 1    
    86   42  165 1    
    87   43  166 1    
    88   43  167 1    
    89   43  168 1    
    90   44   45 am   BACKBONE|DICT|INTERRES
    91   44  169 1    
    92   45   46 2    
    93   45   47 1    
    94   47   48 1    
    95   47   49 1    
    96   47  170 1    
    97   48  171 1    
    98   48  172 1    
    99   48  173 1    
   100   49   50 am   BACKBONE|DICT|INTERRES
   101   49  174 1    
   102   50   51 2    
   103   50   52 1    
   104   52   53 1    
   105   52   54 1    
   106   52  175 1    
   107   53  176 1    
   108   53  177 1    
   109   53  178 1    
   110   54   55 am   BACKBONE|DICT|INTERRES
   111   54  179 1    
   112   55   56 2    
   113   55   57 1    
   114   57   58 1    
   115   57   59 1    
   116   57  180 1    
   117   58  181 1    
   118   58  182 1    
   119   58  183 1    
   120   59   60 am   BACKBONE|DICT|INTERRES
   121   59  184 1    
   122   60   61 2    
   123   60   62 1    
   124   62   63 1    
   125   62   64 1    
   126   62  185 1    
   127   63  186 1    
   128   63  187 1    
   129   63  188 1    
   130   64   65 am   BACKBONE|DICT|INTERRES
   131   64  189 1    
   132   65   66 2    
   133   67   68 2    
   134   67   69 am   BACKBONE|DICT|INTERRES
   135   69   70 1    
   136   69  190 1    
   137   70   71 1    
   138   70   72 1    
   139   70  191 1    
   140   71  192 1    
   141   71  193 1    
   142   71  194 1    
   143   72   73 2    
   144   72   74 am   BACKBONE|DICT|INTERRES
   145   74   75 1    
   146   74  195 1    
   147   75   76 1    
   148   75   77 1    
   149   75  196 1    
   150   76  197 1    
   151   76  198 1    
   152   76  199 1    
   153   77   78 2    
   154   77   79 am   BACKBONE|DICT|INTERRES
   155   79   80 1    
   156   79  200 1    
   157   80   81 1    
   158   80   82 1    
   159   80  201 1    
   160   81  202 1    
   161   81  203 1    
   162   81  204 1    
   163   82   83 2    
   164   82   84 am   BACKBONE|DICT|INTERRES
   165   84   85 1    
   166   84  205 1    
   167   85   86 1    
   168   85   87 1    
   169   85  206 1    
   170   86  207 1    
   171   86  208 1    
   172   86  209 1    
   173   87   88 2    
   174   87   89 am   BACKBONE|DICT|INTERRES
   175   89   90 1    
   176   89  210 1    
   177   90   91 1    
   178   90   92 1    
   179   90  211 1    
   180   91  212 1    
   181   91  213 1    
   182   91  214 1    
   183   92   93 2    
   184   92   94 am   BACKBONE|DICT|INTERRES
   185   94   95 1    
   186   94  215 1    
   187   95   96 1    
   188   95   97 1    
   189   95  216 1    
   190   96  217 1    
   191   96  218 1    
   192   96  219 1    
   193   97   98 2    
   194   97   99 am   BACKBONE|DICT|INTERRES
   195   99  100 1    
   196   99  220 1    
   197  100  101 1    
   198  100  102 1    
   199  100  221 1    
   200  101  222 1    
   201  101  223 1    
   202  101  224 1    
   203  102  103 2    
   204  102  104 am   BACKBONE|DICT|INTERRES
   205  104  105 1    
   206  104  225 1    
   207  105  106 1    
   208  105  107 1    
   209  105  226 1    
   210  106  227 1    
   211  106  228 1    
   212  106  229 1    
   213  107  108 2    
   214  107  109 am   BACKBONE|DICT|INTERRES
   215  109  110 1    
   216  109  230 1    
   217  110  111 1    
   218  110  112 1    
   219  110  231 1    
   220  111  232 1    
   221  111  233 1    
   222  111  234 1    
   223  112  113 2    
   224  112  114 am   BACKBONE|DICT|INTERRES
   225  114  115 1    
   226  114  235 1    
   227  115  116 1    
   228  115  117 1    
   229  115  236 1    
   230  116  237 1    
   231  116  238 1    
   232  116  239 1    
   233  117  118 2    
   234  117  119 am   BACKBONE|DICT|INTERRES
   235  119  120 1    
   236  119  240 1    
   237  120  121 1    
   238  120  124 1    
   239  120  241 1    
   240  121  122 am   BACKBONE|DICT|INTERRES
   241  121  123 2    
   242  122  242 1    
   243  122  243 1    
   244  124  125 1    
   245  124  244 1    
   246  124  245 1    
   247  125  126 1    
   248  126  246 1    
   249  126  247 1    
@<TRIPOS>SUBSTRUCTURE
     1 UNK         1 GROUP             0       ****    0 ROOT    
