@<TRIPOS>MOLECULE
3R540
247   249    1
SMALL
USER_CHARGES


@<TRIPOS>ATOM
      1 CA          0.2349  -11.5481  -47.9859 C.3       0 UNK        -0.1800 
      2 C           0.6206  -12.9331  -47.4892 C.2       0 UNK         0.5000 
      3 O           0.3180  -13.2811  -46.3483 O.2       0 UNK        -0.5000 
      4 N           1.2615  -13.7341  -48.3492 N.am      1 UNK        -0.5000 
      5 CA          1.7738  -15.0851  -48.0698 C.3       1 UNK         0.1400 
      6 C6          2.5632  -15.6514  -49.2754 C.3       23 UNK        -0.0398 
      7 S7          1.5787  -15.7308  -50.8159 S.3       23 UNK        -0.2404 
      8 C8          2.7288  -16.5859  -51.9312 C.3       23 UNK        -0.0205 
      9 C9          2.8996  -18.0534  -51.5688 C.ar      23 UNK        -0.0193 
     10 C10         1.9245  -18.9844  -51.9318 C.ar      23 UNK        -0.1150 
     11 C11         2.1116  -20.3458  -51.6768 C.ar      23 UNK        -0.0193 
     12 C12         3.2731  -20.7673  -51.0184 C.ar      23 UNK        -0.1150 
     13 C13         4.2467  -19.8406  -50.6186 C.ar      23 UNK        -0.0193 
     14 C14         4.0510  -18.4871  -50.9079 C.ar      23 UNK        -0.1150 
     15 C15         5.5534  -20.2522  -49.9380 C.3       23 UNK        -0.0205 
     16 S16         5.5043  -21.8092  -48.9887 S.3       23 UNK        -0.2404 
     17 C17         4.5265  -21.3374  -47.5207 C.3       23 UNK        -0.0398 
     18 CA          3.7199  -22.5389  -46.9646 C.3       11 UNK         0.1400 
     19 N           3.4158  -22.3841  -45.5409 N.am      11 UNK        -0.5000 
     20 C           3.5274  -23.3731  -44.6445 C.2       10 UNK         0.5000 
     21 O           3.7564  -24.5464  -44.9396 O.2       10 UNK        -0.5000 
     22 CA          3.4084  -22.9823  -43.1638 C.3       10 UNK         0.1400 
     23 CB          4.5583  -22.0517  -42.7458 C.3       10 UNK        -0.1800 
     24 N           2.1315  -22.3484  -42.8542 N.am      10 UNK        -0.5000 
     25 C           0.9962  -23.0138  -42.6047 C.2       9 UNK         0.5000 
     26 O           0.8904  -24.2389  -42.6658 O.2       9 UNK        -0.5000 
     27 CA         -0.2266  -22.1707  -42.1976 C.3       9 UNK         0.1400 
     28 CB         -0.3158  -22.0614  -40.6682 C.3       9 UNK        -0.1800 
     29 N          -0.2019  -20.8269  -42.7744 N.am      9 UNK        -0.5000 
     30 C          -0.4535  -20.5752  -44.0645 C.2       8 UNK         0.5000 
     31 O          -0.7698  -21.4403  -44.8786 O.2       8 UNK        -0.5000 
     32 CA         -0.3101  -19.1247  -44.5377 C.3       8 UNK         0.1400 
     33 CB         -1.5724  -18.3231  -44.1920 C.3       8 UNK        -0.1800 
     34 N           0.8648  -18.4559  -43.9903 N.am      8 UNK        -0.5000 
     35 C           2.1371  -18.8008  -44.2326 C.2       7 UNK         0.5000 
     36 O           2.4740  -19.8020  -44.8687 O.2       7 UNK        -0.5000 
     37 CA          3.2131  -17.8793  -43.6380 C.3       7 UNK         0.1400 
     38 CB          3.4111  -16.6350  -44.5178 C.3       7 UNK        -0.1800 
     39 N           2.8513  -17.4641  -42.2838 N.am      7 UNK        -0.5000 
     40 C           3.1447  -18.1627  -41.1794 C.2       6 UNK         0.5000 
     41 O           3.8229  -19.1893  -41.1800 O.2       6 UNK        -0.5000 
     42 CA          2.5746  -17.6396  -39.8469 C.3       6 UNK         0.1400 
     43 CB          3.5599  -16.6632  -39.1869 C.3       6 UNK        -0.1800 
     44 N           1.2712  -16.9869  -39.9810 N.am      6 UNK        -0.5000 
     45 C           0.1439  -17.6024  -40.3629 C.2       5 UNK         0.5000 
     46 O           0.0774  -18.7948  -40.6627 O.2       5 UNK        -0.5000 
     47 CA         -1.1156  -16.7229  -40.4709 C.3       5 UNK         0.1400 
     48 CB         -1.7939  -16.5901  -39.0993 C.3       5 UNK        -0.1800 
     49 N          -0.8955  -15.3845  -41.0333 N.am      5 UNK        -0.5000 
     50 C          -0.2807  -15.1107  -42.1920 C.2       4 UNK         0.5000 
     51 O           0.3178  -15.9462  -42.8704 O.2       4 UNK        -0.5000 
     52 CA         -0.3610  -13.6631  -42.6973 C.3       4 UNK         0.1400 
     53 CB          1.0418  -13.0948  -42.9651 C.3       4 UNK        -0.1800 
     54 N          -1.1388  -13.6194  -43.9327 N.am      4 UNK        -0.5000 
     55 C          -2.4696  -13.7654  -44.0051 C.2       3 UNK         0.5000 
     56 O          -3.1984  -13.8722  -43.0180 O.2       3 UNK        -0.5000 
     57 CA         -3.0904  -13.8152  -45.4101 C.3       3 UNK         0.1400 
     58 CB         -3.1721  -12.4056  -46.0172 C.3       3 UNK        -0.1800 
     59 N          -2.3081  -14.6810  -46.2928 N.am      3 UNK        -0.5000 
     60 C          -2.6937  -15.8921  -46.7202 C.2       2 UNK         0.5000 
     61 O          -3.7822  -16.3949  -46.4420 O.2       2 UNK        -0.5000 
     62 CA         -1.7087  -16.6834  -47.6050 C.3       2 UNK         0.1400 
     63 CB         -2.3790  -17.2013  -48.8844 C.3       2 UNK        -0.1800 
     64 N          -0.5525  -15.8769  -47.9881 N.am      2 UNK        -0.5000 
     65 C           0.7067  -16.0962  -47.5939 C.2       1 UNK         0.5000 
     66 O           1.0488  -17.0416  -46.8873 O.2       1 UNK        -0.5000 
     67 C           2.4486  -22.7957  -47.7881 C.2       11 UNK         0.5000 
     68 O           2.4281  -23.7288  -48.5925 O.2       11 UNK        -0.5000 
     69 N           1.4201  -21.9581  -47.5957 N.am      12 UNK        -0.5000 
     70 CA          0.2148  -21.9866  -48.4253 C.3       12 UNK         0.1400 
     71 CB         -0.5186  -20.6386  -48.3236 C.3       12 UNK        -0.1800 
     72 C          -0.7268  -23.1562  -48.0921 C.2       12 UNK         0.5000 
     73 O          -1.3859  -23.6724  -48.9932 O.2       12 UNK        -0.5000 
     74 N          -0.7926  -23.5216  -46.8030 N.am      13 UNK        -0.5000 
     75 CA         -1.8324  -24.3480  -46.1778 C.3       13 UNK         0.1400 
     76 CB         -1.7952  -25.8009  -46.6950 C.3       13 UNK        -0.1800 
     77 C          -3.2107  -23.6683  -46.3278 C.2       13 UNK         0.5000 
     78 O          -4.1775  -24.2886  -46.7742 O.2       13 UNK        -0.5000 
     79 N          -3.2311  -22.3620  -46.0218 N.am      14 UNK        -0.5000 
     80 CA         -4.2920  -21.3661  -46.2158 C.3       14 UNK         0.1400 
     81 CB         -5.5759  -21.7403  -45.4531 C.3       14 UNK        -0.1800 
     82 C          -4.5930  -21.0412  -47.6927 C.2       14 UNK         0.5000 
     83 O          -4.7411  -19.8663  -48.0286 O.2       14 UNK        -0.5000 
     84 N          -4.6929  -22.0714  -48.5459 N.am      15 UNK        -0.5000 
     85 CA         -4.8997  -22.0253  -50.0017 C.3       15 UNK         0.1400 
     86 CB         -3.6300  -21.4970  -50.7015 C.3       15 UNK        -0.1800 
     87 C          -6.1535  -21.2435  -50.4515 C.2       15 UNK         0.5000 
     88 O          -6.1893  -20.7564  -51.5830 O.2       15 UNK        -0.5000 
     89 N          -7.1414  -21.0930  -49.5573 N.am      16 UNK        -0.5000 
     90 CA         -8.3222  -20.2310  -49.6976 C.3       16 UNK         0.1400 
     91 CB         -9.2875  -20.8040  -50.7566 C.3       16 UNK        -0.1800 
     92 C          -7.9517  -18.7491  -49.9499 C.2       16 UNK         0.5000 
     93 O          -8.6139  -18.0760  -50.7397 O.2       16 UNK        -0.5000 
     94 N          -6.8788  -18.2862  -49.2867 N.am      17 UNK        -0.5000 
     95 CA         -6.2230  -16.9840  -49.4518 C.3       17 UNK         0.1400 
     96 CB         -7.1683  -15.8154  -49.1005 C.3       17 UNK        -0.1800 
     97 C          -5.5541  -16.8489  -50.8369 C.2       17 UNK         0.5000 
     98 O          -5.6976  -15.8212  -51.5010 O.2       17 UNK        -0.5000 
     99 N          -4.8299  -17.9082  -51.2304 N.am      18 UNK        -0.5000 
    100 CA        -4.1107  -18.0861  -52.4982 C.3       18 UNK         0.1400 
    101 CB        -2.9176  -17.1135  -52.6120 C.3       18 UNK        -0.1800 
    102 C         -5.0455  -18.0535  -53.7251 C.2       18 UNK         0.5000 
    103 O         -4.7720  -17.3520  -54.7014 O.2       18 UNK        -0.5000 
    104 N         -6.1440  -18.8116  -53.6367 N.am      19 UNK        -0.5000 
    105 CA        -7.1419  -18.9749  -54.6931 C.3       19 UNK         0.1400 
    106 CB        -8.4887  -18.4167  -54.2096 C.3       19 UNK        -0.1800 
    107 C         -7.2860  -20.4478  -55.1105 C.2       19 UNK         0.5000 
    108 O         -7.5288  -20.7153  -56.2879 O.2       19 UNK        -0.5000 
    109 N         -7.1277  -21.3788  -54.1589 N.am      20 UNK        -0.5000 
    110 CA        -7.1906  -22.8228  -54.3956 C.3       20 UNK         0.1400 
    111 CB        -7.7067  -23.5179  -53.1256 C.3       20 UNK        -0.1800 
    112 C         -5.8280  -23.4082  -54.8112 C.2       20 UNK         0.5000 
    113 O         -5.7902  -24.4937  -55.3922 O.2       20 UNK        -0.5000 
    114 N         -4.7401  -22.6899  -54.5129 N.am      21 UNK        -0.5000 
    115 CA        -3.3669  -23.0364  -54.8561 C.3       21 UNK         0.1400 
    116 CB        -2.7876  -23.9970  -53.8014 C.3       21 UNK        -0.1800 
    117 C         -2.5442  -21.7448  -54.9383 C.2       21 UNK         0.5000 
    118 O         -2.9100  -20.7499  -54.3070 O.2       21 UNK        -0.5000 
    119 N         -1.4420  -21.7990  -55.6949 N.am      22 UNK        -0.5000 
    120 CA        -0.4943  -20.6938  -55.9263 C.3       22 UNK         0.1400 
    121 C         -1.1318  -19.4788  -56.6752 C.2       22 UNK         0.5000 
    122 N         -0.5521  -18.2870  -56.6014 N.am      22 UNK        -0.7600 
    123 O         -2.1253  -19.6167  -57.3862 O.2       22 UNK        -0.5000 
    124 C124        0.2971  -20.3037  -54.6427 C.3       23 UNK        -0.0398 
    125 S125        1.1853  -21.7213  -53.9058 S.3       23 UNK        -0.2404 
    126 C126        1.0676  -21.3610  -52.1252 C.3       23 UNK        -0.0205 
    127 H127        0.5265  -10.7933  -47.2556 H         1 UNK         0.0600 
    128 H128       -0.8435  -11.4873  -48.1301 H         1 UNK         0.0600 
    129 H129        0.7202  -11.3092  -48.9324 H         1 UNK         0.0600 
    130 H130        1.4466  -13.3973  -49.2837 H         1 UNK         0.3000 
    131 H131        2.4762  -14.9799  -47.2403 H         1 UNK         0.0600 
    132 H132        3.4398  -15.0298  -49.4629 H         1 UNK         0.0800 
    133 H133        2.9494  -16.6444  -49.0394 H         1 UNK         0.0800 
    134 H134        2.3483  -16.5104  -52.9508 H         1 UNK         0.0800 
    135 H135        3.6903  -16.0700  -51.9284 H         1 UNK         0.0800 
    136 H136        1.0308  -18.6459  -52.4350 H         1 UNK         0.1150 
    137 H137        3.4199  -21.8216  -50.8326 H         1 UNK         0.1150 
    138 H138        4.8089  -17.7669  -50.6326 H         1 UNK         0.1150 
    139 H139        6.3159  -20.3518  -50.7114 H         1 UNK         0.0800 
    140 H140        5.8950  -19.4577  -49.2725 H         1 UNK         0.0800 
    141 H141        3.8811  -20.4856  -47.7451 H         1 UNK         0.0800 
    142 H142        5.2348  -20.9844  -46.7698 H         1 UNK         0.0800 
    143 H143        4.3506  -23.4236  -47.0807 H         1 UNK         0.0600 
    144 H144        3.1660  -21.4488  -45.2249 H         1 UNK         0.3000 
    145 H145        3.4990  -23.8962  -42.5722 H         1 UNK         0.0600 
    146 H146        4.5416  -21.8681  -41.6715 H         1 UNK         0.0600 
    147 H147        5.5265  -22.4942  -42.9833 H         1 UNK         0.0600 
    148 H148        4.5062  -21.0854  -43.2485 H         1 UNK         0.0600 
    149 H149        2.1184  -21.3396  -42.8186 H         1 UNK         0.3000 
    150 H150       -1.1211  -22.6866  -42.5537 H         1 UNK         0.0600 
    151 H151       -0.3751  -23.0484  -40.2077 H         1 UNK         0.0600 
    152 H152       -1.2031  -21.5058  -40.3640 H         1 UNK         0.0600 
    153 H153        0.5552  -21.5546  -40.2503 H         1 UNK         0.0600 
    154 H154        0.0188  -20.0592  -42.1451 H         1 UNK         0.3000 
    155 H155       -0.1941  -19.1340  -45.6216 H         1 UNK         0.0600 
    156 H156       -2.4400  -18.7091  -44.7278 H         1 UNK         0.0600 
    157 H157       -1.4614  -17.2736  -44.4618 H         1 UNK         0.0600 
    158 H158       -1.7977  -18.3691  -43.1275 H         1 UNK         0.0600 
    159 H159        0.6903  -17.5849  -43.4935 H         1 UNK         0.3000 
    160 H160        4.1561  -18.4297  -43.6170 H         1 UNK         0.0600 
    161 H161        4.2060  -15.9990  -44.1285 H         1 UNK         0.0600 
    162 H162        2.5025  -16.0347  -44.5816 H         1 UNK         0.0600 
    163 H163        3.6867  -16.9180  -45.5346 H         1 UNK         0.0600 
    164 H164        2.2250  -16.6724  -42.2079 H         1 UNK         0.3000 
    165 H165        2.4502  -18.4990  -39.1846 H         1 UNK         0.0600 
    166 H166        3.2089  -16.3530  -38.2026 H         1 UNK         0.0600 
    167 H167        4.5375  -17.1276  -39.0504 H         1 UNK         0.0600 
    168 H168        3.7038  -15.7667  -39.7913 H         1 UNK         0.0600 
    169 H169        1.2310  -16.0001  -39.7726 H         1 UNK         0.3000 
    170 H170       -1.8121  -17.2355  -41.1349 H         1 UNK         0.0600 
    171 H171       -1.9888  -17.5706  -38.6623 H         1 UNK         0.0600 
    172 H172       -1.1737  -16.0340  -38.3952 H         1 UNK         0.0600 
    173 H173       -2.7525  -16.0773  -39.1806 H         1 UNK         0.0600 
    174 H174       -1.3645  -14.6284  -40.5558 H         1 UNK         0.3000 
    175 H175       -0.8486  -13.0384  -41.9460 H         1 UNK         0.0600 
    176 H176        1.5694  -13.6639  -43.7321 H         1 UNK         0.0600 
    177 H177        0.9885  -12.0587  -43.2995 H         1 UNK         0.0600 
    178 H178        1.6517  -13.1159  -42.0612 H         1 UNK         0.0600 
    179 H179       -0.5998  -13.5390  -44.7916 H         1 UNK         0.3000 
    180 H180       -4.1101  -14.1928  -45.3093 H         1 UNK         0.0600 
    181 H181       -2.1897  -11.9402  -46.0979 H         1 UNK         0.0600 
    182 H182       -3.7924  -11.7533  -45.4013 H         1 UNK         0.0600 
    183 H183       -3.6148  -12.4306  -47.0130 H         1 UNK         0.0600 
    184 H184       -1.3680  -14.3679  -46.5062 H         1 UNK         0.3000 
    185 H185       -1.3949  -17.5515  -47.0243 H         1 UNK         0.0600 
    186 H186       -3.2050  -17.8699  -48.6491 H         1 UNK         0.0600 
    187 H187       -2.7701  -16.3846  -49.4917 H         1 UNK         0.0600 
    188 H188       -1.6738  -17.7689  -49.4917 H         1 UNK         0.0600 
    189 H189       -0.7311  -15.0865  -48.5909 H         1 UNK         0.3000 
    190 H190        1.4930  -21.2271  -46.9018 H         1 UNK         0.3000 
    191 H191        0.5246  -22.1089  -49.4619 H         1 UNK         0.0600 
    192 H192       -0.9612  -20.4884  -47.3406 H         1 UNK         0.0600 
    193 H193        0.1515  -19.8019  -48.5259 H         1 UNK         0.0600 
    194 H194       -1.3292  -20.5842  -49.0499 H         1 UNK         0.0600 
    195 H195       -0.2423  -22.9749  -46.1506 H         1 UNK         0.3000 
    196 H196       -1.6100  -24.3702  -45.1097 H         1 UNK         0.0600 
    197 H197       -0.7998  -26.2312  -46.5859 H         1 UNK         0.0600 
    198 H198       -2.0779  -25.8714  -47.7455 H         1 UNK         0.0600 
    199 H199       -2.4855  -26.4292  -46.1312 H         1 UNK         0.0600 
    200 H200       -2.3554  -21.9780  -45.6727 H         1 UNK         0.3000 
    201 H201       -3.9087  -20.4460  -45.7722 H         1 UNK         0.0600 
    202 H202       -6.3116  -20.9374  -45.5158 H         1 UNK         0.0600 
    203 H203       -5.3697  -21.9096  -44.3962 H         1 UNK         0.0600 
    204 H204       -6.0438  -22.6407  -45.8517 H         1 UNK         0.0600 
    205 H205       -4.5768  -22.9992  -48.1459 H         1 UNK         0.3000 
    206 H206       -5.0547  -23.0551  -50.3262 H         1 UNK         0.0600 
    207 H207       -2.7651  -22.1136  -50.4685 H         1 UNK         0.0600 
    208 H208       -3.3995  -20.4735  -50.4066 H         1 UNK         0.0600 
    209 H209       -3.7373  -21.5109  -51.7859 H         1 UNK         0.0600 
    210 H210       -7.0215  -21.5307  -48.6552 H         1 UNK         0.3000 
    211 H211       -8.8372  -20.2534  -48.7363 H         1 UNK         0.0600 
    212 H212       -9.5450  -21.8394  -50.5343 H         1 UNK         0.0600 
    213 H213      -10.2192  -20.2380  -50.7849 H         1 UNK         0.0600 
    214 H214       -8.8583  -20.7752  -51.7574 H         1 UNK         0.0600 
    215 H215       -6.3707  -18.9362  -48.6939 H         1 UNK         0.3000 
    216 H216       -5.4144  -16.9648  -48.7208 H         1 UNK         0.0600 
    217 H217       -6.6222  -14.8718  -49.0755 H         1 UNK         0.0600 
    218 H218       -7.9728  -15.7045  -49.8277 H         1 UNK         0.0600 
    219 H219       -7.6186  -15.9549  -48.1179 H         1 UNK         0.0600 
    220 H220       -4.8184  -18.7083  -50.6145 H         1 UNK         0.3000 
    221 H221       -3.6966  -19.0928  -52.4665 H         1 UNK         0.0600 
    222 H222       -3.2398  -16.0724  -52.6325 H         1 UNK         0.0600 
    223 H223       -2.2244  -17.2369  -51.7818 H         1 UNK         0.0600 
    224 H224       -2.3519  -17.2996  -53.5260 H         1 UNK         0.0600 
    225 H225       -6.2694  -19.3698  -52.7965 H         1 UNK         0.3000 
    226 H226       -6.8477  -18.4183  -55.5852 H         1 UNK         0.0600 
    227 H227       -8.4025  -17.3653  -53.9346 H         1 UNK         0.0600 
    228 H228       -9.2457  -18.4897  -54.9914 H         1 UNK         0.0600 
    229 H229       -8.8612  -18.9579  -53.3401 H         1 UNK         0.0600 
    230 H230       -6.9010  -21.0940  -53.2097 H         1 UNK         0.3000 
    231 H231       -7.8994  -23.0278  -55.2007 H         1 UNK         0.0600 
    232 H232       -7.8342  -24.5880  -53.2931 H         1 UNK         0.0600 
    233 H233       -8.6751  -23.1200  -52.8224 H         1 UNK         0.0600 
    234 H234       -7.0165  -23.3999  -52.2907 H         1 UNK         0.0600 
    235 H235       -4.8443  -21.7794  -54.0837 H         1 UNK         0.3000 
    236 H236       -3.3509  -23.5165  -55.8371 H         1 UNK         0.0600 
    237 H237       -3.3564  -24.9257  -53.7559 H         1 UNK         0.0600 
    238 H238       -1.7556  -24.2602  -54.0362 H         1 UNK         0.0600 
    239 H239       -2.7929  -23.5527  -52.8057 H         1 UNK         0.0600 
    240 H240       -1.2302  -22.6567  -56.1833 H         1 UNK         0.3000 
    241 H241        0.2301  -21.0912  -56.6379 H         1 UNK         0.0600 
    242 H242       -0.9638  -17.5191  -57.1085 H         1 UNK         0.3800 
    243 H243        0.2867  -18.1293  -56.0671 H         1 UNK         0.3800 
    244 H244        1.0484  -19.5449  -54.8630 H         1 UNK         0.0800 
    245 H245       -0.3803  -19.8666  -53.9079 H         1 UNK         0.0800 
    246 H246        0.0641  -21.0164  -51.8699 H         1 UNK         0.0800 
    247 H247        1.2126  -22.3025  -51.5947 H         1 UNK         0.0800 
@<TRIPOS>BOND
     1    1    2 1    
     2    1  127 1    
     3    1  128 1    
     4    1  129 1    
     5    2    3 2    
     6    2    4 am   BACKBONE|DICT|INTERRES
     7    4    5 1    
     8    4  130 1    
     9    5    6 1    
    10    5   65 1    
    11    5  131 1    
    12    6    7 1    
    13    6  132 1    
    14    6  133 1    
    15    7    8 1    
    16    8    9 1    
    17    8  134 1    
    18    8  135 1    
    19    9   10 ar   
    20    9   14 ar   
    21   10   11 ar   
    22   10  136 1    
    23   11   12 ar   
    24   11  126 1    
    25   12   13 ar   
    26   12  137 1    
    27   13   14 ar   
    28   13   15 1    
    29   14  138 1    
    30   15   16 1    
    31   15  139 1    
    32   15  140 1    
    33   16   17 1    
    34   17   18 1    
    35   17  141 1    
    36   17  142 1    
    37   18   19 1    
    38   18   67 1    
    39   18  143 1    
    40   19   20 am   BACKBONE|DICT|INTERRES
    41   19  144 1    
    42   20   21 2    
    43   20   22 1    
    44   22   23 1    
    45   22   24 1    
    46   22  145 1    
    47   23  146 1    
    48   23  147 1    
    49   23  148 1    
    50   24   25 am   BACKBONE|DICT|INTERRES
    51   24  149 1    
    52   25   26 2    
    53   25   27 1    
    54   27   28 1    
    55   27   29 1    
    56   27  150 1    
    57   28  151 1    
    58   28  152 1    
    59   28  153 1    
    60   29   30 am   BACKBONE|DICT|INTERRES
    61   29  154 1    
    62   30   31 2    
    63   30   32 1    
    64   32   33 1    
    65   32   34 1    
    66   32  155 1    
    67   33  156 1    
    68   33  157 1    
    69   33  158 1    
    70   34   35 am   BACKBONE|DICT|INTERRES
    71   34  159 1    
    72   35   36 2    
    73   35   37 1    
    74   37   38 1    
    75   37   39 1    
    76   37  160 1    
    77   38  161 1    
    78   38  162 1    
    79   38  163 1    
    80   39   40 am   BACKBONE|DICT|INTERRES
    81   39  164 1    
    82   40   41 2    
    83   40   42 1    
    84   42   43 1    
    85   42   44 1    
    86   42  165 1    
    87   43  166 1    
    88   43  167 1    
    89   43  168 1    
    90   44   45 am   BACKBONE|DICT|INTERRES
    91   44  169 1    
    92   45   46 2    
    93   45   47 1    
    94   47   48 1    
    95   47   49 1    
    96   47  170 1    
    97   48  171 1    
    98   48  172 1    
    99   48  173 1    
   100   49   50 am   BACKBONE|DICT|INTERRES
   101   49  174 1    
   102   50   51 2    
   103   50   52 1    
   104   52   53 1    
   105   52   54 1    
   106   52  175 1    
   107   53  176 1    
   108   53  177 1    
   109   53  178 1    
   110   54   55 am   BACKBONE|DICT|INTERRES
   111   54  179 1    
   112   55   56 2    
   113   55   57 1    
   114   57   58 1    
   115   57   59 1    
   116   57  180 1    
   117   58  181 1    
   118   58  182 1    
   119   58  183 1    
   120   59   60 am   BACKBONE|DICT|INTERRES
   121   59  184 1    
   122   60   61 2    
   123   60   62 1    
   124   62   63 1    
   125   62   64 1    
   126   62  185 1    
   127   63  186 1    
   128   63  187 1    
   129   63  188 1    
   130   64   65 am   BACKBONE|DICT|INTERRES
   131   64  189 1    
   132   65   66 2    
   133   67   68 2    
   134   67   69 am   BACKBONE|DICT|INTERRES
   135   69   70 1    
   136   69  190 1    
   137   70   71 1    
   138   70   72 1    
   139   70  191 1    
   140   71  192 1    
   141   71  193 1    
   142   71  194 1    
   143   72   73 2    
   144   72   74 am   BACKBONE|DICT|INTERRES
   145   74   75 1    
   146   74  195 1    
   147   75   76 1    
   148   75   77 1    
   149   75  196 1    
   150   76  197 1    
   151   76  198 1    
   152   76  199 1    
   153   77   78 2    
   154   77   79 am   BACKBONE|DICT|INTERRES
   155   79   80 1    
   156   79  200 1    
   157   80   81 1    
   158   80   82 1    
   159   80  201 1    
   160   81  202 1    
   161   81  203 1    
   162   81  204 1    
   163   82   83 2    
   164   82   84 am   BACKBONE|DICT|INTERRES
   165   84   85 1    
   166   84  205 1    
   167   85   86 1    
   168   85   87 1    
   169   85  206 1    
   170   86  207 1    
   171   86  208 1    
   172   86  209 1    
   173   87   88 2    
   174   87   89 am   BACKBONE|DICT|INTERRES
   175   89   90 1    
   176   89  210 1    
   177   90   91 1    
   178   90   92 1    
   179   90  211 1    
   180   91  212 1    
   181   91  213 1    
   182   91  214 1    
   183   92   93 2    
   184   92   94 am   BACKBONE|DICT|INTERRES
   185   94   95 1    
   186   94  215 1    
   187   95   96 1    
   188   95   97 1    
   189   95  216 1    
   190   96  217 1    
   191   96  218 1    
   192   96  219 1    
   193   97   98 2    
   194   97   99 am   BACKBONE|DICT|INTERRES
   195   99  100 1    
   196   99  220 1    
   197  100  101 1    
   198  100  102 1    
   199  100  221 1    
   200  101  222 1    
   201  101  223 1    
   202  101  224 1    
   203  102  103 2    
   204  102  104 am   BACKBONE|DICT|INTERRES
   205  104  105 1    
   206  104  225 1    
   207  105  106 1    
   208  105  107 1    
   209  105  226 1    
   210  106  227 1    
   211  106  228 1    
   212  106  229 1    
   213  107  108 2    
   214  107  109 am   BACKBONE|DICT|INTERRES
   215  109  110 1    
   216  109  230 1    
   217  110  111 1    
   218  110  112 1    
   219  110  231 1    
   220  111  232 1    
   221  111  233 1    
   222  111  234 1    
   223  112  113 2    
   224  112  114 am   BACKBONE|DICT|INTERRES
   225  114  115 1    
   226  114  235 1    
   227  115  116 1    
   228  115  117 1    
   229  115  236 1    
   230  116  237 1    
   231  116  238 1    
   232  116  239 1    
   233  117  118 2    
   234  117  119 am   BACKBONE|DICT|INTERRES
   235  119  120 1    
   236  119  240 1    
   237  120  121 1    
   238  120  124 1    
   239  120  241 1    
   240  121  122 am   BACKBONE|DICT|INTERRES
   241  121  123 2    
   242  122  242 1    
   243  122  243 1    
   244  124  125 1    
   245  124  244 1    
   246  124  245 1    
   247  125  126 1    
   248  126  246 1    
   249  126  247 1    
@<TRIPOS>SUBSTRUCTURE
     1 UNK         1 GROUP             0       ****    0 ROOT    
