@<TRIPOS>MOLECULE
3R540
247   249    1
SMALL
USER_CHARGES


@<TRIPOS>ATOM
      1 CA         -0.0798  -16.4193  -53.8730 C.3       0 UNK        -0.1800 
      2 C           0.1605  -16.5488  -52.3768 C.2       0 UNK         0.5000 
      3 O           0.2457  -17.6662  -51.8728 O.2       0 UNK        -0.5000 
      4 N           0.2698  -15.4117  -51.6756 N.am      1 UNK        -0.5000 
      5 CA          0.4331  -15.3131  -50.2174 C.3       1 UNK         0.1400 
      6 C6          0.4052  -13.8402  -49.7228 C.3       23 UNK        -0.0398 
      7 S7         -0.9647  -12.8314  -50.3882 S.3       23 UNK        -0.2404 
      8 C8         -2.2334  -13.0029  -49.0914 C.3       23 UNK        -0.0205 
      9 C9         -2.8123  -14.4086  -49.0535 C.ar      23 UNK        -0.0193 
     10 C10        -3.4891  -14.9130  -50.1689 C.ar      23 UNK        -0.1150 
     11 C11        -3.9844  -16.2175  -50.1652 C.ar      23 UNK        -0.0193 
     12 C12        -3.8131  -17.0098  -49.0282 C.ar      23 UNK        -0.1150 
     13 C13        -3.1571  -16.5165  -47.8982 C.ar      23 UNK        -0.0193 
     14 C14        -2.6617  -15.2093  -47.9158 C.ar      23 UNK        -0.1150 
     15 C15        -2.9909  -17.4003  -46.6688 C.3       23 UNK        -0.0205 
     16 S16        -1.6354  -18.5917  -46.8911 S.3       23 UNK        -0.2404 
     17 C17        -1.7290  -19.5445  -45.3411 C.3       23 UNK        -0.0398 
     18 CA         -0.8009  -20.7901  -45.3466 C.3       11 UNK         0.1400 
     19 N          -0.2222  -21.0452  -44.0243 N.am      11 UNK        -0.5000 
     20 C           0.7057  -21.9725  -43.7464 C.2       10 UNK         0.5000 
     21 O           1.2196  -22.7046  -44.5905 O.2       10 UNK        -0.5000 
     22 CA          1.0815  -22.1510  -42.2674 C.3       10 UNK         0.1400 
     23 CB          2.0990  -21.0921  -41.8222 C.3       10 UNK        -0.1800 
     24 N          -0.0981  -22.1035  -41.4047 N.am      10 UNK        -0.5000 
     25 C          -1.0284  -23.0670  -41.3544 C.2       9 UNK         0.5000 
     26 O          -0.9629  -24.1150  -41.9970 O.2       9 UNK        -0.5000 
     27 CA         -2.2594  -22.7908  -40.4725 C.3       9 UNK         0.1400 
     28 CB         -1.9501  -23.0872  -38.9975 C.3       9 UNK        -0.1800 
     29 N          -2.7484  -21.4169  -40.6020 N.am      9 UNK        -0.5000 
     30 C          -3.2729  -20.9055  -41.7244 C.2       8 UNK         0.5000 
     31 O          -3.4132  -21.5426  -42.7670 O.2       8 UNK        -0.5000 
     32 CA         -3.6663  -19.4185  -41.6947 C.3       8 UNK         0.1400 
     33 CB         -5.0879  -19.2476  -41.1394 C.3       8 UNK        -0.1800 
     34 N          -2.7439  -18.5645  -40.9409 N.am      8 UNK        -0.5000 
     35 C          -1.4374  -18.4256  -41.2010 C.2       7 UNK         0.5000 
     36 O          -0.8311  -19.0967  -42.0361 O.2       7 UNK        -0.5000 
     37 CA         -0.6873  -17.3348  -40.4163 C.3       7 UNK         0.1400 
     38 CB          0.5873  -17.8938  -39.7646 C.3       7 UNK        -0.1800 
     39 N          -0.3284  -16.2134  -41.2852 N.am      7 UNK        -0.5000 
     40 C          -1.2023  -15.4027  -41.8990 C.2       6 UNK         0.5000 
     41 O          -2.4222  -15.4886  -41.7559 O.2       6 UNK        -0.5000 
     42 CA         -0.6372  -14.2994  -42.8153 C.3       6 UNK         0.1400 
     43 CB         -1.0923  -12.9124  -42.3321 C.3       6 UNK        -0.1800 
     44 N           0.8286  -14.2963  -42.8868 N.am      6 UNK        -0.5000 
     45 C           1.6217  -14.8985  -43.7846 C.2       5 UNK         0.5000 
     46 O           2.8433  -14.7511  -43.7375 O.2       5 UNK        -0.5000 
     47 CA          1.0039  -15.7490  -44.9211 C.3       5 UNK         0.1400 
     48 CB          0.5915  -14.8514  -46.0956 C.3       5 UNK        -0.1800 
     49 N           1.9353  -16.7509  -45.4381 N.am      5 UNK        -0.5000 
     50 C           2.4162  -17.7883  -44.7412 C.2       4 UNK         0.5000 
     51 O           2.0580  -18.0684  -43.5981 O.2       4 UNK        -0.5000 
     52 CA          3.4908  -18.6480  -45.4315 C.3       4 UNK         0.1400 
     53 CB          2.8483  -19.7574  -46.2731 C.3       4 UNK        -0.1800 
     54 N           4.3749  -17.8702  -46.2968 N.am      4 UNK        -0.5000 
     55 C           5.3526  -17.0548  -45.8760 C.2       3 UNK         0.5000 
     56 O           5.6103  -16.8573  -44.6884 O.2       3 UNK        -0.5000 
     57 CA          6.2170  -16.3764  -46.9613 C.3       3 UNK         0.1400 
     58 CB          7.6588  -16.9087  -46.9157 C.3       3 UNK        -0.1800 
     59 N           5.6850  -16.5900  -48.3102 N.am      3 UNK        -0.5000 
     60 C           4.7364  -15.8374  -48.8798 C.2       2 UNK         0.5000 
     61 O           4.3189  -14.7878  -48.3842 O.2       2 UNK        -0.5000 
     62 CA          4.1611  -16.3464  -50.2230 C.3       2 UNK         0.1400 
     63 CB          4.1816  -17.8871  -50.3555 C.3       2 UNK        -0.1800 
     64 N           2.8086  -15.8445  -50.4837 N.am      2 UNK        -0.5000 
     65 C           1.7208  -16.0013  -49.7110 C.2       1 UNK         0.5000 
     66 O           1.7063  -16.6392  -48.6560 O.2       1 UNK        -0.5000 
     67 C          -1.4922  -22.0469  -45.9226 C.2       11 UNK         0.5000 
     68 O          -1.3029  -22.3661  -47.0973 O.2       11 UNK        -0.5000 
     69 N          -2.2345  -22.7710  -45.0725 N.am      12 UNK        -0.5000 
     70 CA         -2.8451  -24.0613  -45.3876 C.3       12 UNK         0.1400 
     71 CB         -3.8252  -24.4604  -44.2747 C.3       12 UNK        -0.1800 
     72 C          -1.8063  -25.1673  -45.6367 C.2       12 UNK         0.5000 
     73 O          -1.9056  -25.8652  -46.6459 O.2       12 UNK        -0.5000 
     74 N          -0.8163  -25.2908  -44.7402 N.am      13 UNK        -0.5000 
     75 CA          0.2602  -26.2843  -44.8201 C.3       13 UNK         0.1400 
     76 CB          1.1077  -26.2284  -43.5405 C.3       13 UNK        -0.1800 
     77 C           1.1520  -26.1286  -46.0672 C.2       13 UNK         0.5000 
     78 O           1.5507  -27.1315  -46.6602 O.2       13 UNK        -0.5000 
     79 N           1.4215  -24.8770  -46.4581 N.am      14 UNK        -0.5000 
     80 CA          2.1753  -24.5154  -47.6594 C.3       14 UNK         0.1400 
     81 CB          2.6613  -23.0656  -47.5062 C.3       14 UNK        -0.1800 
     82 C           1.3692  -24.6624  -48.9663 C.2       14 UNK         0.5000 
     83 O           1.9596  -24.5642  -50.0421 O.2       14 UNK        -0.5000 
     84 N           0.0431  -24.8411  -48.8554 N.am      15 UNK        -0.5000 
     85 CA         -0.9623  -24.8411  -49.9278 C.3       15 UNK         0.1400 
     86 CB         -0.7010  -25.9585  -50.9579 C.3       15 UNK        -0.1800 
     87 C          -1.1643  -23.4596  -50.5896 C.2       15 UNK         0.5000 
     88 O          -1.8601  -23.3582  -51.6017 O.2       15 UNK        -0.5000 
     89 N          -0.6128  -22.4069  -49.9702 N.am      16 UNK        -0.5000 
     90 CA         -0.8008  -21.0009  -50.3257 C.3       16 UNK         0.1400 
     91 CB          0.1701  -20.1453  -49.4987 C.3       16 UNK        -0.1800 
     92 C          -2.2639  -20.5478  -50.1524 C.2       16 UNK         0.5000 
     93 O          -2.7330  -19.7039  -50.9118 O.2       16 UNK        -0.5000 
     94 N          -2.9904  -21.2022  -49.2336 N.am      17 UNK        -0.5000 
     95 CA         -4.4345  -21.0847  -49.0091 C.3       17 UNK         0.1400 
     96 CB         -4.8264  -21.9928  -47.8358 C.3       17 UNK        -0.1800 
     97 C          -5.3264  -21.3889  -50.2338 C.2       17 UNK         0.5000 
     98 O          -6.5137  -21.0693  -50.1892 O.2       17 UNK        -0.5000 
     99 N          -4.7665  -22.0014  -51.2853 N.am      18 UNK        -0.5000 
    100 CA        -5.4449  -22.3096  -52.5436 C.3       18 UNK         0.1400 
    101 CB        -5.5644  -23.8393  -52.6625 C.3       18 UNK        -0.1800 
    102 C         -4.7155  -21.7073  -53.7628 C.2       18 UNK         0.5000 
    103 O         -5.0750  -22.0390  -54.8936 O.2       18 UNK        -0.5000 
    104 N         -3.6995  -20.8611  -53.5405 N.am      19 UNK        -0.5000 
    105 CA        -2.8871  -20.2650  -54.6003 C.3       19 UNK         0.1400 
    106 CB        -1.4518  -20.0878  -54.0846 C.3       19 UNK        -0.1800 
    107 C         -3.4564  -18.9138  -55.0628 C.2       19 UNK         0.5000 
    108 O         -4.0746  -18.1977  -54.2717 O.2       19 UNK        -0.5000 
    109 N         -3.1855  -18.5751  -56.3320 N.am      20 UNK        -0.5000 
    110 CA        -3.5056  -17.3113  -57.0053 C.3       20 UNK         0.1400 
    111 CB        -2.5333  -16.2065  -56.5341 C.3       20 UNK        -0.1800 
    112 C         -4.9962  -16.9323  -56.8719 C.2       20 UNK         0.5000 
    113 O         -5.8547  -17.6957  -57.3192 O.2       20 UNK        -0.5000 
    114 N         -5.2794  -15.7873  -56.2356 N.am      21 UNK        -0.5000 
    115 CA        -6.6183  -15.2571  -55.9692 C.3       21 UNK         0.1400 
    116 CB        -6.4793  -13.8695  -55.3239 C.3       21 UNK        -0.1800 
    117 C         -7.5025  -16.1686  -55.0945 C.2       21 UNK         0.5000 
    118 O         -8.7275  -16.0626  -55.1714 O.2       21 UNK        -0.5000 
    119 N         -6.8817  -17.0504  -54.3004 N.am      22 UNK        -0.5000 
    120 CA        -7.5710  -18.0838  -53.5156 C.3       22 UNK         0.1400 
    121 C         -7.9042  -19.3692  -54.3320 C.2       22 UNK         0.5000 
    122 N         -7.5036  -19.4960  -55.5923 N.am      22 UNK        -0.7600 
    123 O         -8.5514  -20.2734  -53.8118 O.2       22 UNK        -0.5000 
    124 C124       -6.8053  -18.4416  -52.2183 C.3       23 UNK        -0.0398 
    125 S125       -6.4566  -17.0114  -51.1355 S.3       23 UNK        -0.2404 
    126 C126       -4.6672  -16.7947  -51.3945 C.3       23 UNK        -0.0205 
    127 H127       -0.9366  -17.0276  -54.1605 H         1 UNK         0.0600 
    128 H128        0.7901  -16.7730  -54.4260 H         1 UNK         0.0600 
    129 H129       -0.2795  -15.3885  -54.1664 H         1 UNK         0.0600 
    130 H130        0.1688  -14.5275  -52.1531 H         1 UNK         0.3000 
    131 H131       -0.4094  -15.8427  -49.7685 H         1 UNK         0.0600 
    132 H132        0.3658  -13.8031  -48.6355 H         1 UNK         0.0800 
    133 H133        1.3299  -13.3307  -50.0007 H         1 UNK         0.0800 
    134 H134       -1.8098  -12.7222  -48.1259 H         1 UNK         0.0800 
    135 H135       -3.0394  -12.2956  -49.2910 H         1 UNK         0.0800 
    136 H136       -3.6048  -14.2960  -51.0489 H         1 UNK         0.1150 
    137 H137       -4.1877  -18.0188  -49.0325 H         1 UNK         0.1150 
    138 H138       -2.1552  -14.8180  -47.0463 H         1 UNK         0.1150 
    139 H139       -2.7961  -16.7924  -45.7839 H         1 UNK         0.0800 
    140 H140       -3.9206  -17.9389  -46.4795 H         1 UNK         0.0800 
    141 H141       -2.7652  -19.8129  -45.1268 H         1 UNK         0.0800 
    142 H142       -1.4300  -18.8543  -44.5520 H         1 UNK         0.0800 
    143 H143        0.0456  -20.5783  -45.9999 H         1 UNK         0.0600 
    144 H144       -0.5401  -20.4453  -43.2660 H         1 UNK         0.3000 
    145 H145        1.5487  -23.1316  -42.1565 H         1 UNK         0.0600 
    146 H146        2.4175  -21.2570  -40.7930 H         1 UNK         0.0600 
    147 H147        2.9907  -21.1194  -42.4498 H         1 UNK         0.0600 
    148 H148        1.6855  -20.0868  -41.8883 H         1 UNK         0.0600 
    149 H149       -0.2595  -21.2428  -40.9027 H         1 UNK         0.3000 
    150 H150       -3.0560  -23.4645  -40.7956 H         1 UNK         0.0600 
    151 H151       -1.1793  -22.4232  -38.6043 H         1 UNK         0.0600 
    152 H152       -1.5967  -24.1115  -38.8717 H         1 UNK         0.0600 
    153 H153       -2.8397  -22.9734  -38.3778 H         1 UNK         0.0600 
    154 H154       -2.6628  -20.8188  -39.7935 H         1 UNK         0.3000 
    155 H155       -3.6629  -19.0633  -42.7272 H         1 UNK         0.0600 
    156 H156       -5.1496  -19.5430  -40.0913 H         1 UNK         0.0600 
    157 H157       -5.8009  -19.8579  -41.6956 H         1 UNK         0.0600 
    158 H158       -5.4197  -18.2120  -41.2171 H         1 UNK         0.0600 
    159 H159       -3.1652  -17.9525  -40.2570 H         1 UNK         0.3000 
    160 H160       -1.3364  -16.9600  -39.6223 H         1 UNK         0.0600 
    161 H161        1.3230  -18.1941  -40.5113 H         1 UNK         0.0600 
    162 H162        0.3647  -18.7671  -39.1502 H         1 UNK         0.0600 
    163 H163        1.0551  -17.1518  -39.1174 H         1 UNK         0.0600 
    164 H164        0.6547  -16.0950  -41.4816 H         1 UNK         0.3000 
    165 H165       -1.0736  -14.4558  -43.8010 H         1 UNK         0.0600 
    166 H166       -0.7352  -12.1266  -42.9983 H         1 UNK         0.0600 
    167 H167       -2.1805  -12.8401  -42.3059 H         1 UNK         0.0600 
    168 H168       -0.7249  -12.6943  -41.3286 H         1 UNK         0.0600 
    169 H169        1.2801  -13.7503  -42.1676 H         1 UNK         0.3000 
    170 H170        0.1299  -16.2836  -44.5455 H         1 UNK         0.0600 
    171 H171        1.4614  -14.3782  -46.5535 H         1 UNK         0.0600 
    172 H172        0.0863  -15.4374  -46.8627 H         1 UNK         0.0600 
    173 H173       -0.0868  -14.0549  -45.7914 H         1 UNK         0.0600 
    174 H174        2.2673  -16.6075  -46.3829 H         1 UNK         0.3000 
    175 H175        4.0975  -19.1173  -44.6540 H         1 UNK         0.0600 
    176 H176        2.1458  -19.3582  -47.0066 H         1 UNK         0.0600 
    177 H177        3.6017  -20.3354  -46.8080 H         1 UNK         0.0600 
    178 H178        2.3082  -20.4521  -45.6342 H         1 UNK         0.0600 
    179 H179        4.2235  -17.9584  -47.2897 H         1 UNK         0.3000 
    180 H180        6.2424  -15.3070  -46.7409 H         1 UNK         0.0600 
    181 H181        7.6989  -17.9813  -47.1095 H         1 UNK         0.0600 
    182 H182        8.1102  -16.7347  -45.9381 H         1 UNK         0.0600 
    183 H183        8.2867  -16.4097  -47.6542 H         1 UNK         0.0600 
    184 H184        6.0027  -17.4198  -48.7907 H         1 UNK         0.3000 
    185 H185        4.7978  -15.9327  -51.0060 H         1 UNK         0.0600 
    186 H186        5.1996  -18.2771  -50.3716 H         1 UNK         0.0600 
    187 H187        3.6487  -18.3742  -49.5379 H         1 UNK         0.0600 
    188 H188        3.7094  -18.2033  -51.2860 H         1 UNK         0.0600 
    189 H189        2.7053  -15.2924  -51.3227 H         1 UNK         0.3000 
    190 H190       -2.4011  -22.4111  -44.1367 H         1 UNK         0.3000 
    191 H191       -3.4174  -23.9479  -46.3076 H         1 UNK         0.0600 
    192 H192       -4.6219  -23.7234  -44.1717 H         1 UNK         0.0600 
    193 H193       -4.2957  -25.4198  -44.4927 H         1 UNK         0.0600 
    194 H194       -3.3274  -24.5494  -43.3090 H         1 UNK         0.0600 
    195 H195       -0.8205  -24.6950  -43.9181 H         1 UNK         0.3000 
    196 H196       -0.2069  -27.2698  -44.8729 H         1 UNK         0.0600 
    197 H197        1.9002  -26.9774  -43.5630 H         1 UNK         0.0600 
    198 H198        0.5010  -26.4240  -42.6563 H         1 UNK         0.0600 
    199 H199        1.5800  -25.2541  -43.4145 H         1 UNK         0.0600 
    200 H200        1.1170  -24.1071  -45.8663 H         1 UNK         0.3000 
    201 H201        3.0490  -25.1659  -47.7347 H         1 UNK         0.0600 
    202 H202        3.2620  -22.7558  -48.3622 H         1 UNK         0.0600 
    203 H203        3.2808  -22.9503  -46.6166 H         1 UNK         0.0600 
    204 H204        1.8240  -22.3711  -47.4227 H         1 UNK         0.0600 
    205 H205       -0.3383  -24.9240  -47.9206 H         1 UNK         0.3000 
    206 H206       -1.9088  -25.0701  -49.4362 H         1 UNK         0.0600 
    207 H207       -0.5588  -26.9215  -50.4675 H         1 UNK         0.0600 
    208 H208       -1.5457  -26.0639  -51.6395 H         1 UNK         0.0600 
    209 H209        0.1806  -25.7557  -51.5661 H         1 UNK         0.0600 
    210 H210       -0.1447  -22.5830  -49.0923 H         1 UNK         0.3000 
    211 H211       -0.5442  -20.8795  -51.3788 H         1 UNK         0.0600 
    212 H212        0.1014  -20.3713  -48.4359 H         1 UNK         0.0600 
    213 H213       -0.0352  -19.0810  -49.6213 H         1 UNK         0.0600 
    214 H214        1.2020  -20.3135  -49.8066 H         1 UNK         0.0600 
    215 H215       -2.4910  -21.8441  -48.6268 H         1 UNK         0.3000 
    216 H216       -4.6430  -20.0600  -48.7104 H         1 UNK         0.0600 
    217 H217       -5.8923  -21.9166  -47.6169 H         1 UNK         0.0600 
    218 H218       -4.2953  -21.7134  -46.9266 H         1 UNK         0.0600 
    219 H219       -4.6122  -23.0385  -48.0570 H         1 UNK         0.0600 
    220 H220       -3.7860  -22.2528  -51.2426 H         1 UNK         0.3000 
    221 H221       -6.4511  -21.8862  -52.5523 H         1 UNK         0.0600 
    222 H222       -4.5832  -24.3146  -52.7010 H         1 UNK         0.0600 
    223 H223       -6.1066  -24.2582  -51.8147 H         1 UNK         0.0600 
    224 H224       -6.1064  -24.1254  -53.5646 H         1 UNK         0.0600 
    225 H225       -3.5007  -20.5448  -52.5972 H         1 UNK         0.3000 
    226 H226       -2.8521  -20.9411  -55.4574 H         1 UNK         0.0600 
    227 H227       -0.8013  -19.6825  -54.8604 H         1 UNK         0.0600 
    228 H228       -1.4129  -19.4031  -53.2372 H         1 UNK         0.0600 
    229 H229       -1.0268  -21.0408  -53.7693 H         1 UNK         0.0600 
    230 H230       -2.6987  -19.2486  -56.9063 H         1 UNK         0.3000 
    231 H231       -3.3293  -17.4735  -58.0695 H         1 UNK         0.0600 
    232 H232       -2.6520  -15.9807  -55.4739 H         1 UNK         0.0600 
    233 H233       -2.6837  -15.2821  -57.0933 H         1 UNK         0.0600 
    234 H234       -1.4976  -16.5071  -56.6928 H         1 UNK         0.0600 
    235 H235       -4.5076  -15.2420  -55.8810 H         1 UNK         0.3000 
    236 H236       -7.1236  -15.1407  -56.9301 H         1 UNK         0.0600 
    237 H237       -5.9304  -13.1850  -55.9710 H         1 UNK         0.0600 
    238 H238       -7.4578  -13.4242  -55.1386 H         1 UNK         0.0600 
    239 H239       -5.9567  -13.9224  -54.3677 H         1 UNK         0.0600 
    240 H240       -5.8698  -17.1154  -54.3183 H         1 UNK         0.3000 
    241 H241       -8.5362  -17.6805  -53.2038 H         1 UNK         0.0600 
    242 H242       -6.9677  -18.7702  -56.0558 H         1 UNK         0.3800 
    243 H243       -7.7277  -20.3401  -56.0942 H         1 UNK         0.3800 
    244 H244       -5.8829  -18.9743  -52.4505 H         1 UNK         0.0800 
    245 H245       -7.4057  -19.1341  -51.6280 H         1 UNK         0.0800 
    246 H246       -4.5058  -16.1616  -52.2682 H         1 UNK         0.0800 
    247 H247       -4.1987  -17.7502  -51.6241 H         1 UNK         0.0800 
@<TRIPOS>BOND
     1    1    2 1    
     2    1  127 1    
     3    1  128 1    
     4    1  129 1    
     5    2    3 2    
     6    2    4 am   BACKBONE|DICT|INTERRES
     7    4    5 1    
     8    4  130 1    
     9    5    6 1    
    10    5   65 1    
    11    5  131 1    
    12    6    7 1    
    13    6  132 1    
    14    6  133 1    
    15    7    8 1    
    16    8    9 1    
    17    8  134 1    
    18    8  135 1    
    19    9   10 ar   
    20    9   14 ar   
    21   10   11 ar   
    22   10  136 1    
    23   11   12 ar   
    24   11  126 1    
    25   12   13 ar   
    26   12  137 1    
    27   13   14 ar   
    28   13   15 1    
    29   14  138 1    
    30   15   16 1    
    31   15  139 1    
    32   15  140 1    
    33   16   17 1    
    34   17   18 1    
    35   17  141 1    
    36   17  142 1    
    37   18   19 1    
    38   18   67 1    
    39   18  143 1    
    40   19   20 am   BACKBONE|DICT|INTERRES
    41   19  144 1    
    42   20   21 2    
    43   20   22 1    
    44   22   23 1    
    45   22   24 1    
    46   22  145 1    
    47   23  146 1    
    48   23  147 1    
    49   23  148 1    
    50   24   25 am   BACKBONE|DICT|INTERRES
    51   24  149 1    
    52   25   26 2    
    53   25   27 1    
    54   27   28 1    
    55   27   29 1    
    56   27  150 1    
    57   28  151 1    
    58   28  152 1    
    59   28  153 1    
    60   29   30 am   BACKBONE|DICT|INTERRES
    61   29  154 1    
    62   30   31 2    
    63   30   32 1    
    64   32   33 1    
    65   32   34 1    
    66   32  155 1    
    67   33  156 1    
    68   33  157 1    
    69   33  158 1    
    70   34   35 am   BACKBONE|DICT|INTERRES
    71   34  159 1    
    72   35   36 2    
    73   35   37 1    
    74   37   38 1    
    75   37   39 1    
    76   37  160 1    
    77   38  161 1    
    78   38  162 1    
    79   38  163 1    
    80   39   40 am   BACKBONE|DICT|INTERRES
    81   39  164 1    
    82   40   41 2    
    83   40   42 1    
    84   42   43 1    
    85   42   44 1    
    86   42  165 1    
    87   43  166 1    
    88   43  167 1    
    89   43  168 1    
    90   44   45 am   BACKBONE|DICT|INTERRES
    91   44  169 1    
    92   45   46 2    
    93   45   47 1    
    94   47   48 1    
    95   47   49 1    
    96   47  170 1    
    97   48  171 1    
    98   48  172 1    
    99   48  173 1    
   100   49   50 am   BACKBONE|DICT|INTERRES
   101   49  174 1    
   102   50   51 2    
   103   50   52 1    
   104   52   53 1    
   105   52   54 1    
   106   52  175 1    
   107   53  176 1    
   108   53  177 1    
   109   53  178 1    
   110   54   55 am   BACKBONE|DICT|INTERRES
   111   54  179 1    
   112   55   56 2    
   113   55   57 1    
   114   57   58 1    
   115   57   59 1    
   116   57  180 1    
   117   58  181 1    
   118   58  182 1    
   119   58  183 1    
   120   59   60 am   BACKBONE|DICT|INTERRES
   121   59  184 1    
   122   60   61 2    
   123   60   62 1    
   124   62   63 1    
   125   62   64 1    
   126   62  185 1    
   127   63  186 1    
   128   63  187 1    
   129   63  188 1    
   130   64   65 am   BACKBONE|DICT|INTERRES
   131   64  189 1    
   132   65   66 2    
   133   67   68 2    
   134   67   69 am   BACKBONE|DICT|INTERRES
   135   69   70 1    
   136   69  190 1    
   137   70   71 1    
   138   70   72 1    
   139   70  191 1    
   140   71  192 1    
   141   71  193 1    
   142   71  194 1    
   143   72   73 2    
   144   72   74 am   BACKBONE|DICT|INTERRES
   145   74   75 1    
   146   74  195 1    
   147   75   76 1    
   148   75   77 1    
   149   75  196 1    
   150   76  197 1    
   151   76  198 1    
   152   76  199 1    
   153   77   78 2    
   154   77   79 am   BACKBONE|DICT|INTERRES
   155   79   80 1    
   156   79  200 1    
   157   80   81 1    
   158   80   82 1    
   159   80  201 1    
   160   81  202 1    
   161   81  203 1    
   162   81  204 1    
   163   82   83 2    
   164   82   84 am   BACKBONE|DICT|INTERRES
   165   84   85 1    
   166   84  205 1    
   167   85   86 1    
   168   85   87 1    
   169   85  206 1    
   170   86  207 1    
   171   86  208 1    
   172   86  209 1    
   173   87   88 2    
   174   87   89 am   BACKBONE|DICT|INTERRES
   175   89   90 1    
   176   89  210 1    
   177   90   91 1    
   178   90   92 1    
   179   90  211 1    
   180   91  212 1    
   181   91  213 1    
   182   91  214 1    
   183   92   93 2    
   184   92   94 am   BACKBONE|DICT|INTERRES
   185   94   95 1    
   186   94  215 1    
   187   95   96 1    
   188   95   97 1    
   189   95  216 1    
   190   96  217 1    
   191   96  218 1    
   192   96  219 1    
   193   97   98 2    
   194   97   99 am   BACKBONE|DICT|INTERRES
   195   99  100 1    
   196   99  220 1    
   197  100  101 1    
   198  100  102 1    
   199  100  221 1    
   200  101  222 1    
   201  101  223 1    
   202  101  224 1    
   203  102  103 2    
   204  102  104 am   BACKBONE|DICT|INTERRES
   205  104  105 1    
   206  104  225 1    
   207  105  106 1    
   208  105  107 1    
   209  105  226 1    
   210  106  227 1    
   211  106  228 1    
   212  106  229 1    
   213  107  108 2    
   214  107  109 am   BACKBONE|DICT|INTERRES
   215  109  110 1    
   216  109  230 1    
   217  110  111 1    
   218  110  112 1    
   219  110  231 1    
   220  111  232 1    
   221  111  233 1    
   222  111  234 1    
   223  112  113 2    
   224  112  114 am   BACKBONE|DICT|INTERRES
   225  114  115 1    
   226  114  235 1    
   227  115  116 1    
   228  115  117 1    
   229  115  236 1    
   230  116  237 1    
   231  116  238 1    
   232  116  239 1    
   233  117  118 2    
   234  117  119 am   BACKBONE|DICT|INTERRES
   235  119  120 1    
   236  119  240 1    
   237  120  121 1    
   238  120  124 1    
   239  120  241 1    
   240  121  122 am   BACKBONE|DICT|INTERRES
   241  121  123 2    
   242  122  242 1    
   243  122  243 1    
   244  124  125 1    
   245  124  244 1    
   246  124  245 1    
   247  125  126 1    
   248  126  246 1    
   249  126  247 1    
@<TRIPOS>SUBSTRUCTURE
     1 UNK         1 GROUP             0       ****    0 ROOT    
