@<TRIPOS>MOLECULE
3R540
247   249    1
SMALL
USER_CHARGES


@<TRIPOS>ATOM
      1 CA          9.0050  -12.4798  -48.1717 C.3       0 UNK        -0.1800 
      2 C           7.5144  -12.7608  -48.0426 C.2       0 UNK         0.5000 
      3 O           6.8470  -12.9549  -49.0572 O.2       0 UNK        -0.5000 
      4 N           7.0063  -12.7594  -46.8006 N.am      1 UNK        -0.5000 
      5 CA          5.6234  -13.0404  -46.3750 C.3       1 UNK         0.1400 
      6 C6          5.2849  -14.5589  -46.3073 C.3       23 UNK        -0.0398 
      7 S7          5.0065  -15.4156  -47.8969 S.3       23 UNK        -0.2404 
      8 C8          3.2995  -16.0092  -47.6838 C.3       23 UNK        -0.0205 
      9 C9          2.8503  -16.8140  -48.8898 C.ar      23 UNK        -0.0193 
     10 C10         2.0530  -16.2278  -49.8756 C.ar      23 UNK        -0.1150 
     11 C11         1.6563  -16.9649  -50.9949 C.ar      23 UNK        -0.0193 
     12 C12         2.0673  -18.2954  -51.1261 C.ar      23 UNK        -0.1150 
     13 C13         2.8638  -18.8923  -50.1440 C.ar      23 UNK        -0.0193 
     14 C14         3.2444  -18.1478  -49.0242 C.ar      23 UNK        -0.1150 
     15 C15         3.3373  -20.3318  -50.2999 C.3       23 UNK        -0.0205 
     16 S16         1.9759  -21.5346  -50.1852 S.3       23 UNK        -0.2404 
     17 C17         1.2756  -21.1421  -48.5454 C.3       23 UNK        -0.0398 
     18 CA          0.6746  -22.3557  -47.7953 C.3       11 UNK         0.1400 
     19 N           0.2367  -21.9752  -46.4501 N.am      11 UNK        -0.5000 
     20 C          -0.2314  -22.8150  -45.5161 C.2       10 UNK         0.5000 
     21 O          -0.2701  -24.0378  -45.6500 O.2       10 UNK        -0.5000 
     22 CA         -0.8132  -22.1731  -44.2433 C.3       10 UNK         0.1400 
     23 CB          0.3028  -21.7995  -43.2570 C.3       10 UNK        -0.1800 
     24 N          -1.6366  -20.9970  -44.5370 N.am      10 UNK        -0.5000 
     25 C          -2.7759  -21.0329  -45.2440 C.2       9 UNK         0.5000 
     26 O          -3.2792  -22.0713  -45.6687 O.2       9 UNK        -0.5000 
     27 CA         -3.4483  -19.6902  -45.5736 C.3       9 UNK         0.1400 
     28 CB         -4.3034  -19.2045  -44.3947 C.3       9 UNK        -0.1800 
     29 N          -2.4876  -18.6567  -45.9584 N.am      9 UNK        -0.5000 
     30 C          -1.7377  -18.6954  -47.0691 C.2       8 UNK         0.5000 
     31 O          -1.8199  -19.5878  -47.9128 O.2       8 UNK        -0.5000 
     32 CA         -0.6825  -17.5845  -47.2392 C.3       8 UNK         0.1400 
     33 CB         -1.3175  -16.3008  -47.7909 C.3       8 UNK        -0.1800 
     34 N           0.0193  -17.2866  -45.9896 N.am      8 UNK        -0.5000 
     35 C           0.7903  -18.1610  -45.3279 C.2       7 UNK         0.5000 
     36 O           1.0584  -19.2875  -45.7450 O.2       7 UNK        -0.5000 
     37 CA          1.2947  -17.7284  -43.9405 C.3       7 UNK         0.1400 
     38 CB          2.5715  -16.8827  -44.0445 C.3       7 UNK        -0.1800 
     39 N           0.2730  -16.9879  -43.2008 N.am      7 UNK        -0.5000 
     40 C          -0.8119  -17.5512  -42.6516 C.2       6 UNK         0.5000 
     41 O          -1.0486  -18.7580  -42.6956 O.2       6 UNK        -0.5000 
     42 CA         -1.8163  -16.6043  -41.9684 C.3       6 UNK         0.1400 
     43 CB         -1.3787  -16.2998  -40.5281 C.3       6 UNK        -0.1800 
     44 N          -1.9970  -15.3472  -42.6965 N.am      6 UNK        -0.5000 
     45 C          -2.5563  -15.2529  -43.9108 C.2       5 UNK         0.5000 
     46 O          -3.0060  -16.2150  -44.5297 O.2       5 UNK        -0.5000 
     47 CA         -2.5729  -13.8602  -44.5673 C.3       5 UNK         0.1400 
     48 CB         -3.8276  -13.0808  -44.1475 C.3       5 UNK        -0.1800 
     49 N          -1.3841  -13.0514  -44.2849 N.am      5 UNK        -0.5000 
     50 C          -0.1208  -13.4094  -44.5478 C.2       4 UNK         0.5000 
     51 O           0.1963  -14.4993  -45.0293 O.2       4 UNK        -0.5000 
     52 CA          0.9537  -12.3519  -44.2467 C.3       4 UNK         0.1400 
     53 CB          2.3290  -12.9798  -43.9725 C.3       4 UNK        -0.1800 
     54 N           1.0559  -11.4310  -45.3762 N.am      4 UNK        -0.5000 
     55 C           0.2509  -10.3755  -45.5687 C.2       3 UNK         0.5000 
     56 O          -0.6310  -10.0542  -44.7692 O.2       3 UNK        -0.5000 
     57 CA          0.4246   -9.5609  -46.8714 C.3       3 UNK         0.1400 
     58 CB          0.1737   -8.0525  -46.6618 C.3       3 UNK        -0.1800 
     59 N           1.6960   -9.7898  -47.5691 N.am      3 UNK        -0.5000 
     60 C           2.9296   -9.4977  -47.1346 C.2       2 UNK         0.5000 
     61 O           3.1824   -8.9588  -46.0551 O.2       2 UNK        -0.5000 
     62 CA          4.0836   -9.9201  -48.0619 C.3       2 UNK         0.1400 
     63 CB          4.9434   -8.7122  -48.4666 C.3       2 UNK        -0.1800 
     64 N           4.9366  -10.9289  -47.4362 N.am      2 UNK        -0.5000 
     65 C           4.5421  -12.1465  -47.0346 C.2       1 UNK         0.5000 
     66 O           3.3807  -12.5462  -47.1404 O.2       1 UNK        -0.5000 
     67 C          -0.4684  -23.0313  -48.5842 C.2       11 UNK         0.5000 
     68 O          -0.2717  -24.1156  -49.1333 O.2       11 UNK        -0.5000 
     69 N          -1.6559  -22.4099  -48.5803 N.am      12 UNK        -0.5000 
     70 CA         -2.8576  -22.9314  -49.2274 C.3       12 UNK         0.1400 
     71 CB         -3.9666  -21.8772  -49.1714 C.3       12 UNK        -0.1800 
     72 C          -3.3457  -24.2577  -48.6243 C.2       12 UNK         0.5000 
     73 O          -3.7834  -25.1318  -49.3718 O.2       12 UNK        -0.5000 
     74 N          -3.2647  -24.3938  -47.2951 N.am      13 UNK        -0.5000 
     75 CA         -3.5837  -25.6200  -46.5656 C.3       13 UNK         0.1400 
     76 CB         -3.6239  -25.3339  -45.0577 C.3       13 UNK        -0.1800 
     77 C          -2.6031  -26.7608  -46.8884 C.2       13 UNK         0.5000 
     78 O          -3.0462  -27.8844  -47.1238 O.2       13 UNK        -0.5000 
     79 N          -1.3006  -26.4470  -46.9525 N.am      14 UNK        -0.5000 
     80 CA         -0.2390  -27.3744  -47.3565 C.3       14 UNK         0.1400 
     81 CB          1.1321  -26.7288  -47.1056 C.3       14 UNK        -0.1800 
     82 C          -0.3700  -27.8340  -48.8223 C.2       14 UNK         0.5000 
     83 O          -0.1004  -28.9973  -49.1226 O.2       14 UNK        -0.5000 
     84 N          -0.8265  -26.9267  -49.6961 N.am      15 UNK        -0.5000 
     85 CA         -1.1624  -27.1924  -51.0970 C.3       15 UNK         0.1400 
     86 CB         -1.2086  -25.8539  -51.8528 C.3       15 UNK        -0.1800 
     87 C          -2.4896  -27.9609  -51.2840 C.2       15 UNK         0.5000 
     88 O          -2.7868  -28.3701  -52.4067 O.2       15 UNK        -0.5000 
     89 N          -3.2672  -28.1236  -50.2016 N.am      16 UNK        -0.5000 
     90 CA         -4.5948  -28.7456  -50.1250 C.3       16 UNK         0.1400 
     91 CB         -4.5391  -30.2346  -50.5255 C.3       16 UNK        -0.1800 
     92 C          -5.6941  -27.9602  -50.8742 C.2       16 UNK         0.5000 
     93 O          -6.7321  -28.5301  -51.2154 O.2       16 UNK        -0.5000 
     94 N          -5.4596  -26.6615  -51.0958 N.am      17 UNK        -0.5000 
     95 CA         -6.4116  -25.7215  -51.6829 C.3       17 UNK         0.1400 
     96 CB         -5.6325  -24.6414  -52.4508 C.3       17 UNK        -0.1800 
     97 C          -7.2936  -25.0777  -50.5992 C.2       17 UNK         0.5000 
     98 O          -8.4925  -24.9039  -50.8212 O.2       17 UNK        -0.5000 
     99 N          -6.6693  -24.7603  -49.4531 N.am      18 UNK        -0.5000 
    100 CA        -7.1930  -24.0468  -48.2818 C.3       18 UNK         0.1400 
    101 CB        -8.3786  -24.8076  -47.6556 C.3       18 UNK        -0.1800 
    102 C         -7.5461  -22.5676  -48.5562 C.2       18 UNK         0.5000 
    103 O         -7.6729  -22.1489  -49.7080 O.2       18 UNK        -0.5000 
    104 N         -7.6824  -21.7973  -47.4674 N.am      19 UNK        -0.5000 
    105 CA        -8.0150  -20.3675  -47.3894 C.3       19 UNK         0.1400 
    106 CB        -9.4052  -20.0715  -47.9873 C.3       19 UNK        -0.1800 
    107 C         -6.9331  -19.4319  -47.9647 C.2       19 UNK         0.5000 
    108 O         -6.3552  -18.6490  -47.2119 O.2       19 UNK        -0.5000 
    109 N         -6.6743  -19.5295  -49.2712 N.am      20 UNK        -0.5000 
    110 CA        -5.6718  -18.7739  -50.0139 C.3       20 UNK         0.1400 
    111 CB        -6.1068  -17.3074  -50.1925 C.3       20 UNK        -0.1800 
    112 C         -5.4712  -19.4507  -51.3768 C.2       20 UNK         0.5000 
    113 O         -6.4474  -19.8967  -51.9833 O.2       20 UNK        -0.5000 
    114 N         -4.2161  -19.5023  -51.8343 N.am      21 UNK        -0.5000 
    115 CA        -3.8052  -20.1191  -53.1006 C.3       21 UNK         0.1400 
    116 CB        -3.0447  -21.4210  -52.7902 C.3       21 UNK        -0.1800 
    117 C         -2.9608  -19.1556  -53.9583 C.2       21 UNK         0.5000 
    118 O         -2.3448  -19.5868  -54.9338 O.2       21 UNK        -0.5000 
    119 N         -2.9306  -17.8733  -53.5753 N.am      22 UNK        -0.5000 
    120 CA        -2.0934  -16.8249  -54.1816 C.3       22 UNK         0.1400 
    121 C         -2.6767  -16.1967  -55.4816 C.2       22 UNK         0.5000 
    122 N         -3.8912  -16.5318  -55.8997 N.am      22 UNK        -0.7600 
    123 O         -2.0097  -15.3950  -56.1300 O.2       22 UNK        -0.5000 
    124 C124       -1.7233  -15.7285  -53.1486 C.3       23 UNK        -0.0398 
    125 S125       -0.9658  -16.4131  -51.6343 S.3       23 UNK        -0.2404 
    126 C126        0.7958  -16.3184  -52.0671 C.3       23 UNK        -0.0205 
    127 H127        9.1681  -11.5914  -48.7819 H         1 UNK         0.0600 
    128 H128        9.4745  -12.3164  -47.2013 H         1 UNK         0.0600 
    129 H129        9.5043  -13.3210  -48.6527 H         1 UNK         0.0600 
    130 H130        7.6405  -12.5661  -46.0376 H         1 UNK         0.3000 
    131 H131        5.6119  -12.7055  -45.3365 H         1 UNK         0.0600 
    132 H132        4.4139  -14.7099  -45.6714 H         1 UNK         0.0800 
    133 H133        6.0936  -15.0819  -45.7957 H         1 UNK         0.0800 
    134 H134        3.2442  -16.6387  -46.7972 H         1 UNK         0.0800 
    135 H135        2.6297  -15.1646  -47.5121 H         1 UNK         0.0800 
    136 H136        1.7436  -15.1969  -49.7743 H         1 UNK         0.1150 
    137 H137        1.7677  -18.8691  -51.9920 H         1 UNK         0.1150 
    138 H138        3.8644  -18.5984  -48.2618 H         1 UNK         0.1150 
    139 H139        3.8253  -20.4433  -51.2690 H         1 UNK         0.0800 
    140 H140        4.0911  -20.5764  -49.5497 H         1 UNK         0.0800 
    141 H141        0.5313  -20.3574  -48.6787 H         1 UNK         0.0800 
    142 H142        2.0633  -20.7037  -47.9313 H         1 UNK         0.0800 
    143 H143        1.4660  -23.0981  -47.6730 H         1 UNK         0.0600 
    144 H144        0.2832  -20.9847  -46.2269 H         1 UNK         0.3000 
    145 H145       -1.4541  -22.9144  -43.7616 H         1 UNK         0.0600 
    146 H146       -0.1084  -21.4052  -42.3276 H         1 UNK         0.0600 
    147 H147        0.9050  -22.6723  -43.0018 H         1 UNK         0.0600 
    148 H148        0.9742  -21.0479  -43.6714 H         1 UNK         0.0600 
    149 H149       -1.3177  -20.1099  -44.1614 H         1 UNK         0.3000 
    150 H150       -4.1102  -19.8590  -46.4244 H         1 UNK         0.0600 
    151 H151       -5.0316  -19.9620  -44.1025 H         1 UNK         0.0600 
    152 H152       -4.8606  -18.3059  -44.6601 H         1 UNK         0.0600 
    153 H153       -3.6944  -18.9762  -43.5199 H         1 UNK         0.0600 
    154 H154       -2.4231  -17.8481  -45.3466 H         1 UNK         0.3000 
    155 H155        0.0562  -17.9347  -47.9635 H         1 UNK         0.0600 
    156 H156       -2.0435  -15.8793  -47.0967 H         1 UNK         0.0600 
    157 H157       -1.8383  -16.4968  -48.7285 H         1 UNK         0.0600 
    158 H158       -0.5607  -15.5415  -47.9897 H         1 UNK         0.0600 
    159 H159       -0.1106  -16.3591  -45.5963 H         1 UNK         0.3000 
    160 H160        1.5386  -18.6315  -43.3772 H         1 UNK         0.0600 
    161 H161        3.3710  -17.4447  -44.5285 H         1 UNK         0.0600 
    162 H162        2.9331  -16.5905  -43.0586 H         1 UNK         0.0600 
    163 H163        2.4069  -15.9744  -44.6227 H         1 UNK         0.0600 
    164 H164        0.3579  -15.9818  -43.1935 H         1 UNK         0.3000 
    165 H165       -2.7807  -17.1153  -41.9305 H         1 UNK         0.0600 
    166 H166       -2.1231  -15.6954  -40.0094 H         1 UNK         0.0600 
    167 H167       -1.2533  -17.2202  -39.9561 H         1 UNK         0.0600 
    168 H168       -0.4297  -15.7630  -40.4987 H         1 UNK         0.0600 
    169 H169       -1.6508  -14.5068  -42.2578 H         1 UNK         0.3000 
    170 H170       -2.6131  -14.0093  -45.6478 H         1 UNK         0.0600 
    171 H171       -4.7325  -13.6489  -44.3679 H         1 UNK         0.0600 
    172 H172       -3.8279  -12.8634  -43.0787 H         1 UNK         0.0600 
    173 H173       -3.9015  -12.1340  -44.6830 H         1 UNK         0.0600 
    174 H174       -1.5487  -12.1138  -43.9425 H         1 UNK         0.3000 
    175 H175        0.6600  -11.8035  -43.3490 H         1 UNK         0.0600 
    176 H176        2.6699  -13.5703  -44.8198 H         1 UNK         0.0600 
    177 H177        3.0801  -12.2161  -43.7706 H         1 UNK         0.0600 
    178 H178        2.2909  -13.6411  -43.1062 H         1 UNK         0.0600 
    179 H179        1.7366  -11.6694  -46.0892 H         1 UNK         0.3000 
    180 H180       -0.3508   -9.9255  -47.5465 H         1 UNK         0.0600 
    181 H181        0.8590   -7.6243  -45.9299 H         1 UNK         0.0600 
    182 H182       -0.8398   -7.8697  -46.3028 H         1 UNK         0.0600 
    183 H183        0.2890   -7.4996  -47.5940 H         1 UNK         0.0600 
    184 H184        1.6126  -10.2686  -48.4554 H         1 UNK         0.3000 
    185 H185        3.6685  -10.3578  -48.9722 H         1 UNK         0.0600 
    186 H186        4.3352   -7.9448  -48.9472 H         1 UNK         0.0600 
    187 H187        5.4281   -8.2540  -47.6034 H         1 UNK         0.0600 
    188 H188        5.7209   -9.0006  -49.1744 H         1 UNK         0.0600 
    189 H189        5.9019  -10.6734  -47.2910 H         1 UNK         0.3000 
    190 H190       -1.7345  -21.4979  -48.1382 H         1 UNK         0.3000 
    191 H191       -2.6102  -23.1133  -50.2744 H         1 UNK         0.0600 
    192 H192       -4.3402  -21.7262  -48.1585 H         1 UNK         0.0600 
    193 H193       -4.8097  -22.1663  -49.7992 H         1 UNK         0.0600 
    194 H194       -3.5999  -20.9197  -49.5342 H         1 UNK         0.0600 
    195 H195       -2.9782  -23.5928  -46.7376 H         1 UNK         0.3000 
    196 H196       -4.5805  -25.9431  -46.8732 H         1 UNK         0.0600 
    197 H197       -2.6610  -24.9823  -44.6874 H         1 UNK         0.0600 
    198 H198       -3.8842  -26.2322  -44.4966 H         1 UNK         0.0600 
    199 H199       -4.3696  -24.5747  -44.8214 H         1 UNK         0.0600 
    200 H200       -1.0097  -25.5052  -46.7040 H         1 UNK         0.3000 
    201 H201       -0.3156  -28.2619  -46.7251 H         1 UNK         0.0600 
    202 H202        1.2591  -26.4712  -46.0540 H         1 UNK         0.0600 
    203 H203        1.2625  -25.8177  -47.6898 H         1 UNK         0.0600 
    204 H204        1.9401  -27.4103  -47.3741 H         1 UNK         0.0600 
    205 H205       -0.9362  -25.9677  -49.3797 H         1 UNK         0.3000 
    206 H206       -0.3684  -27.8025  -51.5319 H         1 UNK         0.0600 
    207 H207       -2.0007  -25.2068  -51.4763 H         1 UNK         0.0600 
    208 H208       -1.3915  -26.0092  -52.9168 H         1 UNK         0.0600 
    209 H209       -0.2651  -25.3154  -51.7614 H         1 UNK         0.0600 
    210 H210       -2.9288  -27.7448  -49.3260 H         1 UNK         0.3000 
    211 H211       -4.8759  -28.7058  -49.0720 H         1 UNK         0.0600 
    212 H212       -4.3513  -30.3628  -51.5916 H         1 UNK         0.0600 
    213 H213       -5.4808  -30.7357  -50.2992 H         1 UNK         0.0600 
    214 H214       -3.7551  -30.7598  -49.9798 H         1 UNK         0.0600 
    215 H215       -4.6067  -26.2632  -50.7158 H         1 UNK         0.3000 
    216 H216       -7.0600  -26.2436  -52.3898 H         1 UNK         0.0600 
    217 H217       -6.3102  -23.9137  -52.8991 H         1 UNK         0.0600 
    218 H218       -5.0422  -25.0790  -53.2561 H         1 UNK         0.0600 
    219 H219       -4.9521  -24.0962  -51.7963 H         1 UNK         0.0600 
    220 H220       -5.6755  -24.9626  -49.4160 H         1 UNK         0.3000 
    221 H221       -6.3783  -24.0457  -47.5560 H         1 UNK         0.0600 
    222 H222       -9.2630  -24.7799  -48.2926 H         1 UNK         0.0600 
    223 H223       -8.1260  -25.8529  -47.4774 H         1 UNK         0.0600 
    224 H224       -8.6603  -24.3759  -46.6947 H         1 UNK         0.0600 
    225 H225       -7.5295  -22.2335  -46.5688 H         1 UNK         0.3000 
    226 H226       -8.0769  -20.1435  -46.3231 H         1 UNK         0.0600 
    227 H227      -10.1762  -20.6708  -47.5030 H         1 UNK         0.0600 
    228 H228       -9.6721  -19.0234  -47.8462 H         1 UNK         0.0600 
    229 H229       -9.4481  -20.2748  -49.0574 H         1 UNK         0.0600 
    230 H230       -7.1492  -20.2560  -49.8041 H         1 UNK         0.3000 
    231 H231       -4.7327  -18.8024  -49.4572 H         1 UNK         0.0600 
    232 H232       -5.3769  -16.7522  -50.7829 H         1 UNK         0.0600 
    233 H233       -6.1980  -16.7971  -49.2338 H         1 UNK         0.0600 
    234 H234       -7.0679  -17.2349  -50.7030 H         1 UNK         0.0600 
    235 H235       -3.4686  -19.1182  -51.2725 H         1 UNK         0.3000 
    236 H236       -4.6788  -20.3719  -53.7047 H         1 UNK         0.0600 
    237 H237       -2.7336  -21.9286  -53.7040 H         1 UNK         0.0600 
    238 H238       -2.1505  -21.2331  -52.1945 H         1 UNK         0.0600 
    239 H239       -3.6764  -22.1156  -52.2388 H         1 UNK         0.0600 
    240 H240       -3.4918  -17.5896  -52.7873 H         1 UNK         0.3000 
    241 H241       -1.1571  -17.2944  -54.4894 H         1 UNK         0.0600 
    242 H242       -4.2564  -16.1226  -56.7457 H         1 UNK         0.3800 
    243 H243       -4.4464  -17.1945  -55.3828 H         1 UNK         0.3800 
    244 H244       -1.0417  -14.9967  -53.5861 H         1 UNK         0.0800 
    245 H245       -2.6147  -15.1717  -52.8552 H         1 UNK         0.0800 
    246 H246        1.0845  -15.2742  -52.1967 H         1 UNK         0.0800 
    247 H247        0.9624  -16.8085  -53.0276 H         1 UNK         0.0800 
@<TRIPOS>BOND
     1    1    2 1    
     2    1  127 1    
     3    1  128 1    
     4    1  129 1    
     5    2    3 2    
     6    2    4 am   BACKBONE|DICT|INTERRES
     7    4    5 1    
     8    4  130 1    
     9    5    6 1    
    10    5   65 1    
    11    5  131 1    
    12    6    7 1    
    13    6  132 1    
    14    6  133 1    
    15    7    8 1    
    16    8    9 1    
    17    8  134 1    
    18    8  135 1    
    19    9   10 ar   
    20    9   14 ar   
    21   10   11 ar   
    22   10  136 1    
    23   11   12 ar   
    24   11  126 1    
    25   12   13 ar   
    26   12  137 1    
    27   13   14 ar   
    28   13   15 1    
    29   14  138 1    
    30   15   16 1    
    31   15  139 1    
    32   15  140 1    
    33   16   17 1    
    34   17   18 1    
    35   17  141 1    
    36   17  142 1    
    37   18   19 1    
    38   18   67 1    
    39   18  143 1    
    40   19   20 am   BACKBONE|DICT|INTERRES
    41   19  144 1    
    42   20   21 2    
    43   20   22 1    
    44   22   23 1    
    45   22   24 1    
    46   22  145 1    
    47   23  146 1    
    48   23  147 1    
    49   23  148 1    
    50   24   25 am   BACKBONE|DICT|INTERRES
    51   24  149 1    
    52   25   26 2    
    53   25   27 1    
    54   27   28 1    
    55   27   29 1    
    56   27  150 1    
    57   28  151 1    
    58   28  152 1    
    59   28  153 1    
    60   29   30 am   BACKBONE|DICT|INTERRES
    61   29  154 1    
    62   30   31 2    
    63   30   32 1    
    64   32   33 1    
    65   32   34 1    
    66   32  155 1    
    67   33  156 1    
    68   33  157 1    
    69   33  158 1    
    70   34   35 am   BACKBONE|DICT|INTERRES
    71   34  159 1    
    72   35   36 2    
    73   35   37 1    
    74   37   38 1    
    75   37   39 1    
    76   37  160 1    
    77   38  161 1    
    78   38  162 1    
    79   38  163 1    
    80   39   40 am   BACKBONE|DICT|INTERRES
    81   39  164 1    
    82   40   41 2    
    83   40   42 1    
    84   42   43 1    
    85   42   44 1    
    86   42  165 1    
    87   43  166 1    
    88   43  167 1    
    89   43  168 1    
    90   44   45 am   BACKBONE|DICT|INTERRES
    91   44  169 1    
    92   45   46 2    
    93   45   47 1    
    94   47   48 1    
    95   47   49 1    
    96   47  170 1    
    97   48  171 1    
    98   48  172 1    
    99   48  173 1    
   100   49   50 am   BACKBONE|DICT|INTERRES
   101   49  174 1    
   102   50   51 2    
   103   50   52 1    
   104   52   53 1    
   105   52   54 1    
   106   52  175 1    
   107   53  176 1    
   108   53  177 1    
   109   53  178 1    
   110   54   55 am   BACKBONE|DICT|INTERRES
   111   54  179 1    
   112   55   56 2    
   113   55   57 1    
   114   57   58 1    
   115   57   59 1    
   116   57  180 1    
   117   58  181 1    
   118   58  182 1    
   119   58  183 1    
   120   59   60 am   BACKBONE|DICT|INTERRES
   121   59  184 1    
   122   60   61 2    
   123   60   62 1    
   124   62   63 1    
   125   62   64 1    
   126   62  185 1    
   127   63  186 1    
   128   63  187 1    
   129   63  188 1    
   130   64   65 am   BACKBONE|DICT|INTERRES
   131   64  189 1    
   132   65   66 2    
   133   67   68 2    
   134   67   69 am   BACKBONE|DICT|INTERRES
   135   69   70 1    
   136   69  190 1    
   137   70   71 1    
   138   70   72 1    
   139   70  191 1    
   140   71  192 1    
   141   71  193 1    
   142   71  194 1    
   143   72   73 2    
   144   72   74 am   BACKBONE|DICT|INTERRES
   145   74   75 1    
   146   74  195 1    
   147   75   76 1    
   148   75   77 1    
   149   75  196 1    
   150   76  197 1    
   151   76  198 1    
   152   76  199 1    
   153   77   78 2    
   154   77   79 am   BACKBONE|DICT|INTERRES
   155   79   80 1    
   156   79  200 1    
   157   80   81 1    
   158   80   82 1    
   159   80  201 1    
   160   81  202 1    
   161   81  203 1    
   162   81  204 1    
   163   82   83 2    
   164   82   84 am   BACKBONE|DICT|INTERRES
   165   84   85 1    
   166   84  205 1    
   167   85   86 1    
   168   85   87 1    
   169   85  206 1    
   170   86  207 1    
   171   86  208 1    
   172   86  209 1    
   173   87   88 2    
   174   87   89 am   BACKBONE|DICT|INTERRES
   175   89   90 1    
   176   89  210 1    
   177   90   91 1    
   178   90   92 1    
   179   90  211 1    
   180   91  212 1    
   181   91  213 1    
   182   91  214 1    
   183   92   93 2    
   184   92   94 am   BACKBONE|DICT|INTERRES
   185   94   95 1    
   186   94  215 1    
   187   95   96 1    
   188   95   97 1    
   189   95  216 1    
   190   96  217 1    
   191   96  218 1    
   192   96  219 1    
   193   97   98 2    
   194   97   99 am   BACKBONE|DICT|INTERRES
   195   99  100 1    
   196   99  220 1    
   197  100  101 1    
   198  100  102 1    
   199  100  221 1    
   200  101  222 1    
   201  101  223 1    
   202  101  224 1    
   203  102  103 2    
   204  102  104 am   BACKBONE|DICT|INTERRES
   205  104  105 1    
   206  104  225 1    
   207  105  106 1    
   208  105  107 1    
   209  105  226 1    
   210  106  227 1    
   211  106  228 1    
   212  106  229 1    
   213  107  108 2    
   214  107  109 am   BACKBONE|DICT|INTERRES
   215  109  110 1    
   216  109  230 1    
   217  110  111 1    
   218  110  112 1    
   219  110  231 1    
   220  111  232 1    
   221  111  233 1    
   222  111  234 1    
   223  112  113 2    
   224  112  114 am   BACKBONE|DICT|INTERRES
   225  114  115 1    
   226  114  235 1    
   227  115  116 1    
   228  115  117 1    
   229  115  236 1    
   230  116  237 1    
   231  116  238 1    
   232  116  239 1    
   233  117  118 2    
   234  117  119 am   BACKBONE|DICT|INTERRES
   235  119  120 1    
   236  119  240 1    
   237  120  121 1    
   238  120  124 1    
   239  120  241 1    
   240  121  122 am   BACKBONE|DICT|INTERRES
   241  121  123 2    
   242  122  242 1    
   243  122  243 1    
   244  124  125 1    
   245  124  244 1    
   246  124  245 1    
   247  125  126 1    
   248  126  246 1    
   249  126  247 1    
@<TRIPOS>SUBSTRUCTURE
     1 UNK         1 GROUP             0       ****    0 ROOT    
