@<TRIPOS>MOLECULE
3R540
247   249    1
SMALL
USER_CHARGES


@<TRIPOS>ATOM
      1 CA          8.1293  -11.9126  -49.7193 C.3       0 UNK        -0.1800 
      2 C           6.6946  -12.2790  -49.3685 C.2       0 UNK         0.5000 
      3 O           6.2194  -11.9353  -48.2851 O.2       0 UNK        -0.5000 
      4 N           5.9961  -12.9665  -50.2803 N.am      1 UNK        -0.5000 
      5 CA          4.6082  -13.4220  -50.1339 C.3       1 UNK         0.1400 
      6 C6          4.3029  -14.6486  -51.0321 C.3       23 UNK        -0.0398 
      7 S7          5.2984  -16.1122  -50.5888 S.3       23 UNK        -0.2404 
      8 C8          4.3775  -16.7677  -49.1592 C.3       23 UNK        -0.0205 
      9 C9          3.0215  -17.3397  -49.5483 C.ar      23 UNK        -0.0193 
     10 C10         1.8517  -16.6015  -49.3418 C.ar      23 UNK        -0.1150 
     11 C11         0.6103  -17.1252  -49.7122 C.ar      23 UNK        -0.0193 
     12 C12         0.5431  -18.3976  -50.2852 C.ar      23 UNK        -0.1150 
     13 C13         1.7002  -19.1647  -50.4597 C.ar      23 UNK        -0.0193 
     14 C14         2.9368  -18.6221  -50.0972 C.ar      23 UNK        -0.1150 
     15 C15         1.6361  -20.5848  -51.0208 C.3       23 UNK        -0.0205 
     16 S16         0.2517  -21.5899  -50.3733 S.3       23 UNK        -0.2404 
     17 C17         0.3779  -21.3165  -48.5705 C.3       23 UNK        -0.0398 
     18 CA          0.4306  -22.5957  -47.7046 C.3       11 UNK         0.1400 
     19 N           0.6684  -22.2530  -46.3025 N.am      11 UNK        -0.5000 
     20 C           0.8714  -23.1191  -45.3020 C.2       10 UNK         0.5000 
     21 O           0.9456  -24.3391  -45.4518 O.2       10 UNK        -0.5000 
     22 CA          0.9549  -22.5138  -43.8881 C.3       10 UNK         0.1400 
     23 CB          2.3421  -21.9061  -43.6326 C.3       10 UNK        -0.1800 
     24 N          -0.0758  -21.4998  -43.6490 N.am      10 UNK        -0.5000 
     25 C          -1.3933  -21.7510  -43.6389 C.2       9 UNK         0.5000 
     26 O          -1.8765  -22.8717  -43.7991 O.2       9 UNK        -0.5000 
     27 CA         -2.3332  -20.5451  -43.4608 C.3       9 UNK         0.1400 
     28 CB         -2.3874  -20.1044  -41.9904 C.3       9 UNK        -0.1800 
     29 N          -1.9650  -19.4086  -44.3054 N.am      9 UNK        -0.5000 
     30 C          -1.9665  -19.4283  -45.6458 C.2       8 UNK         0.5000 
     31 O          -2.3097  -20.4004  -46.3142 O.2       8 UNK        -0.5000 
     32 CA         -1.4486  -18.1727  -46.3667 C.3       8 UNK         0.1400 
     33 CB         -2.5306  -17.0821  -46.4052 C.3       8 UNK        -0.1800 
     34 N          -0.2262  -17.6428  -45.7644 N.am      8 UNK        -0.5000 
     35 C           0.9260  -18.3201  -45.6501 C.2       7 UNK         0.5000 
     36 O           1.1007  -19.4583  -46.0802 O.2       7 UNK        -0.5000 
     37 CA          2.0537  -17.6373  -44.8624 C.3       7 UNK         0.1400 
     38 CB          2.7881  -16.6081  -45.7306 C.3       7 UNK        -0.1800 
     39 N           1.5499  -17.0000  -43.6484 N.am      7 UNK        -0.5000 
     40 C           1.0916  -17.6720  -42.5827 C.2       6 UNK         0.5000 
     41 O           1.0842  -18.9008  -42.4962 O.2       6 UNK        -0.5000 
     42 CA          0.5038  -16.8222  -41.4421 C.3       6 UNK         0.1400 
     43 CB          1.6180  -16.3008  -40.5224 C.3       6 UNK        -0.1800 
     44 N          -0.2859  -15.6937  -41.9394 N.am      6 UNK        -0.5000 
     45 C          -1.4474  -15.8223  -42.5957 C.2       5 UNK         0.5000 
     46 O          -1.9853  -16.9047  -42.8252 O.2       5 UNK        -0.5000 
     47 CA         -2.0978  -14.5285  -43.1159 C.3       5 UNK         0.1400 
     48 CB         -2.9555  -13.8778  -42.0206 C.3       5 UNK        -0.1800 
     49 N          -1.1355  -13.5483  -43.6274 N.am      5 UNK        -0.5000 
     50 C          -0.3354  -13.7457  -44.6832 C.2       4 UNK         0.5000 
     51 O          -0.2475  -14.8160  -45.2886 O.2       4 UNK        -0.5000 
     52 CA          0.5312  -12.5539  -45.1257 C.3       4 UNK         0.1400 
     53 CB          1.9932  -12.7590  -44.7010 C.3       4 UNK        -0.1800 
     54 N           0.4749  -12.3613  -46.5744 N.am      4 UNK        -0.5000 
     55 C          -0.6135  -11.9675  -47.2509 C.2       3 UNK         0.5000 
     56 O          -1.6843  -11.6869  -46.7087 O.2       3 UNK        -0.5000 
     57 CA         -0.4711  -11.8659  -48.7864 C.3       3 UNK         0.1400 
     58 CB         -1.5913  -11.0337  -49.4438 C.3       3 UNK        -0.1800 
     59 N           0.8444  -11.3951  -49.2355 N.am      3 UNK        -0.5000 
     60 C           1.4643  -10.2483  -48.9194 C.2       2 UNK         0.5000 
     61 O           0.9887   -9.4032  -48.1592 O.2       2 UNK        -0.5000 
     62 CA          2.8571  -10.0211  -49.5537 C.3       2 UNK         0.1400 
     63 CB          3.6343   -8.8746  -48.8816 C.3       2 UNK        -0.1800 
     64 N           3.6983  -11.2217  -49.5357 N.am      2 UNK        -0.5000 
     65 C           3.6091  -12.2669  -50.3664 C.2       1 UNK         0.5000 
     66 O           2.7693  -12.3368  -51.2649 O.2       1 UNK        -0.5000 
     67 C          -0.8330  -23.4644  -47.8603 C.2       11 UNK         0.5000 
     68 O          -0.7662  -24.5180  -48.4926 O.2       11 UNK        -0.5000 
     69 N          -1.9435  -23.0403  -47.2405 N.am      12 UNK        -0.5000 
     70 CA         -3.2178  -23.7530  -47.2662 C.3       12 UNK         0.1400 
     71 CB         -4.3215  -22.8837  -46.6465 C.3       12 UNK        -0.1800 
     72 C          -3.1583  -25.1310  -46.5858 C.2       12 UNK         0.5000 
     73 O          -3.7307  -26.0891  -47.1057 O.2       12 UNK        -0.5000 
     74 N          -2.4367  -25.2200  -45.4598 N.am      13 UNK        -0.5000 
     75 CA         -2.1794  -26.4681  -44.7410 C.3       13 UNK         0.1400 
     76 CB         -1.4947  -26.1610  -43.4007 C.3       13 UNK        -0.1800 
     77 C          -1.3480  -27.4691  -45.5649 C.2       13 UNK         0.5000 
     78 O          -1.6439  -28.6642  -45.5395 O.2       13 UNK        -0.5000 
     79 N          -0.3454  -26.9645  -46.2976 N.am      14 UNK        -0.5000 
     80 CA          0.4862  -27.7497  -47.2094 C.3       14 UNK         0.1400 
     81 CB          1.7356  -26.9396  -47.5889 C.3       14 UNK        -0.1800 
     82 C          -0.2795  -28.2032  -48.4671 C.2       14 UNK         0.5000 
     83 O          -0.1385  -29.3548  -48.8807 O.2       14 UNK        -0.5000 
     84 N          -1.0758  -27.2959  -49.0488 N.am      15 UNK        -0.5000 
     85 CA         -1.8798  -27.5362  -50.2489 C.3       15 UNK         0.1400 
     86 CB         -2.3379  -26.1857  -50.8223 C.3       15 UNK        -0.1800 
     87 C          -3.0994  -28.4455  -50.0080 C.2       15 UNK         0.5000 
     88 O          -3.5443  -29.1089  -50.9454 O.2       15 UNK        -0.5000 
     89 N          -3.6264  -28.4358  -48.7744 N.am      16 UNK        -0.5000 
     90 CA         -4.8699  -29.0771  -48.3293 C.3       16 UNK         0.1400 
     91 CB         -4.7872  -30.6134  -48.4471 C.3       16 UNK        -0.1800 
     92 C          -6.1199  -28.4740  -49.0099 C.2       16 UNK         0.5000 
     93 O          -7.1034  -29.1764  -49.2511 O.2       16 UNK        -0.5000 
     94 N          -6.0515  -27.1713  -49.2987 N.am      17 UNK        -0.5000 
     95 CA         -7.0660  -26.3411  -49.9374 C.3       17 UNK         0.1400 
     96 CB         -7.1220  -26.6352  -51.4474 C.3       17 UNK        -0.1800 
     97 C          -6.6776  -24.8797  -49.6746 C.2       17 UNK         0.5000 
     98 O          -5.5057  -24.6131  -49.4082 O.2       17 UNK        -0.5000 
     99 N          -7.6475  -23.9597  -49.7384 N.am      18 UNK        -0.5000 
    100 CA        -7.4554  -22.5347  -49.4502 C.3       18 UNK         0.1400 
    101 CB        -8.8109  -21.8171  -49.5421 C.3       18 UNK        -0.1800 
    102 C         -6.4291  -21.8547  -50.3791 C.2       18 UNK         0.5000 
    103 O         -6.4543  -22.0803  -51.5920 O.2       18 UNK        -0.5000 
    104 N         -5.5810  -20.9931  -49.8017 N.am      19 UNK        -0.5000 
    105 CA        -4.5625  -20.1992  -50.4958 C.3       19 UNK         0.1400 
    106 CB        -3.4486  -19.8359  -49.4967 C.3       19 UNK        -0.1800 
    107 C         -5.1837  -18.9602  -51.1772 C.2       19 UNK         0.5000 
    108 O         -4.8072  -17.8237  -50.8820 O.2       19 UNK        -0.5000 
    109 N         -6.1499  -19.2133  -52.0705 N.am      20 UNK        -0.5000 
    110 CA        -7.0026  -18.2289  -52.7435 C.3       20 UNK         0.1400 
    111 CB        -8.0430  -18.9750  -53.5922 C.3       20 UNK        -0.1800 
    112 C         -6.2498  -17.1926  -53.5992 C.2       20 UNK         0.5000 
    113 O         -6.7690  -16.0956  -53.8093 O.2       20 UNK        -0.5000 
    114 N         -5.0284  -17.5306  -54.0371 N.am      21 UNK        -0.5000 
    115 CA        -4.1069  -16.6472  -54.7578 C.3       21 UNK         0.1400 
    116 CB        -2.8490  -17.4445  -55.1352 C.3       21 UNK        -0.1800 
    117 C         -3.7204  -15.3737  -53.9755 C.2       21 UNK         0.5000 
    118 O         -3.4202  -14.3539  -54.5976 O.2       21 UNK        -0.5000 
    119 N         -3.7606  -15.4492  -52.6392 N.am      22 UNK        -0.5000 
    120 CA        -3.5570  -14.3176  -51.7219 C.3       22 UNK         0.1400 
    121 C         -4.8784  -13.5894  -51.3315 C.2       22 UNK         0.5000 
    122 N         -6.0372  -13.9473  -51.8737 N.am      22 UNK        -0.7600 
    123 O         -4.8538  -12.6608  -50.5290 O.2       22 UNK        -0.5000 
    124 C124       -2.7463  -14.7458  -50.4726 C.3       23 UNK        -0.0398 
    125 S125       -1.0619  -15.2934  -50.9147 S.3       23 UNK        -0.2404 
    126 C126       -0.6626  -16.3299  -49.4808 C.3       23 UNK        -0.0205 
    127 H127        8.2515  -10.8295  -49.7143 H         1 UNK         0.0600 
    128 H128        8.4129  -12.2828  -50.7048 H         1 UNK         0.0600 
    129 H129        8.8146  -12.3378  -48.9861 H         1 UNK         0.0600 
    130 H130        6.4383  -13.2067  -51.1562 H         1 UNK         0.3000 
    131 H131        4.4615  -13.7342  -49.0983 H         1 UNK         0.0600 
    132 H132        3.2473  -14.9177  -50.9890 H         1 UNK         0.0800 
    133 H133        4.5007  -14.4089  -52.0781 H         1 UNK         0.0800 
    134 H134        4.2656  -15.9837  -48.4100 H         1 UNK         0.0800 
    135 H135        4.9752  -17.5493  -48.6879 H         1 UNK         0.0800 
    136 H136        1.9057  -15.6163  -48.9007 H         1 UNK         0.1150 
    137 H137       -0.4158  -18.8007  -50.5757 H         1 UNK         0.1150 
    138 H138        3.8402  -19.1988  -50.2391 H         1 UNK         0.1150 
    139 H139        2.5652  -21.1165  -50.8098 H         1 UNK         0.0800 
    140 H140        1.5522  -20.5288  -52.1067 H         1 UNK         0.0800 
    141 H141       -0.4549  -20.6808  -48.2687 H         1 UNK         0.0800 
    142 H142        1.2785  -20.7364  -48.3702 H         1 UNK         0.0800 
    143 H143        1.2822  -23.1931  -48.0367 H         1 UNK         0.0600 
    144 H144        0.6668  -21.2585  -46.0857 H         1 UNK         0.3000 
    145 H145        0.8007  -23.3231  -43.1715 H         1 UNK         0.0600 
    146 H146        2.4309  -21.5463  -42.6073 H         1 UNK         0.0600 
    147 H147        3.1278  -22.6464  -43.7878 H         1 UNK         0.0600 
    148 H148        2.5440  -21.0664  -44.2984 H         1 UNK         0.0600 
    149 H149        0.2450  -20.5515  -43.4853 H         1 UNK         0.3000 
    150 H150       -3.3357  -20.8632  -43.7544 H         1 UNK         0.0600 
    151 H151       -2.6667  -20.9364  -41.3428 H         1 UNK         0.0600 
    152 H152       -3.1258  -19.3160  -41.8436 H         1 UNK         0.0600 
    153 H153       -1.4242  -19.7274  -41.6458 H         1 UNK         0.0600 
    154 H154       -1.7205  -18.5462  -43.8273 H         1 UNK         0.3000 
    155 H155       -1.2092  -18.4568  -47.3926 H         1 UNK         0.0600 
    156 H156       -2.8532  -16.7997  -45.4035 H         1 UNK         0.0600 
    157 H157       -2.1759  -16.1803  -46.9025 H         1 UNK         0.0600 
    158 H158       -3.4119  -17.4278  -46.9464 H         1 UNK         0.0600 
    159 H159       -0.2658  -16.6865  -45.4204 H         1 UNK         0.3000 
    160 H160        2.7729  -18.4050  -44.5683 H         1 UNK         0.0600 
    161 H161        2.1107  -15.8576  -46.1383 H         1 UNK         0.0600 
    162 H162        3.2690  -17.1078  -46.5699 H         1 UNK         0.0600 
    163 H163        3.5678  -16.0944  -45.1682 H         1 UNK         0.0600 
    164 H164        1.4683  -15.9948  -43.6609 H         1 UNK         0.3000 
    165 H165       -0.1532  -17.4652  -40.8524 H         1 UNK         0.0600 
    166 H166        1.2049  -15.7608  -39.6702 H         1 UNK         0.0600 
    167 H167        2.2134  -17.1245  -40.1262 H         1 UNK         0.0600 
    168 H168        2.2966  -15.6288  -41.0493 H         1 UNK         0.0600 
    169 H169        0.0871  -14.7677  -41.7912 H         1 UNK         0.3000 
    170 H170       -2.7570  -14.8034  -43.9417 H         1 UNK         0.0600 
    171 H171       -3.6950  -14.5808  -41.6346 H         1 UNK         0.0600 
    172 H172       -2.3491  -13.5435  -41.1778 H         1 UNK         0.0600 
    173 H173       -3.5001  -13.0156  -42.4060 H         1 UNK         0.0600 
    174 H174       -1.1427  -12.6417  -43.1828 H         1 UNK         0.3000 
    175 H175        0.1582  -11.6452  -44.6485 H         1 UNK         0.0600 
    176 H176        2.4366  -13.6305  -45.1827 H         1 UNK         0.0600 
    177 H177        2.6019  -11.8913  -44.9564 H         1 UNK         0.0600 
    178 H178        2.0717  -12.9036  -43.6227 H         1 UNK         0.0600 
    179 H179        1.3099  -12.5837  -47.0937 H         1 UNK         0.3000 
    180 H180       -0.5609  -12.8872  -49.1551 H         1 UNK         0.0600 
    181 H181       -1.5736   -9.9966  -49.1078 H         1 UNK         0.0600 
    182 H182       -2.5758  -11.4379  -49.2054 H         1 UNK         0.0600 
    183 H183       -1.4980  -11.0373  -50.5298 H         1 UNK         0.0600 
    184 H184        1.3197  -11.9913  -49.9049 H         1 UNK         0.3000 
    185 H185        2.6846   -9.7363  -50.5936 H         1 UNK         0.0600 
    186 H186        3.0814   -7.9361  -48.9386 H         1 UNK         0.0600 
    187 H187        3.8246   -9.0831  -47.8280 H         1 UNK         0.0600 
    188 H188        4.5955   -8.7111  -49.3694 H         1 UNK         0.0600 
    189 H189        4.4311  -11.2513  -48.8330 H         1 UNK         0.3000 
    190 H190       -1.9388  -22.1432  -46.7598 H         1 UNK         0.3000 
    191 H191       -3.4506  -23.9114  -48.3174 H         1 UNK         0.0600 
    192 H192       -4.1094  -22.6487  -45.6030 H         1 UNK         0.0600 
    193 H193       -5.2849  -23.3937  -46.6830 H         1 UNK         0.0600 
    194 H194       -4.4304  -21.9436  -47.1861 H         1 UNK         0.0600 
    195 H195       -2.0417  -24.3730  -45.0613 H         1 UNK         0.3000 
    196 H196       -3.1438  -26.9345  -44.5294 H         1 UNK         0.0600 
    197 H197       -1.3045  -27.0768  -42.8397 H         1 UNK         0.0600 
    198 H198       -2.1197  -25.5215  -42.7772 H         1 UNK         0.0600 
    199 H199       -0.5384  -25.6570  -43.5424 H         1 UNK         0.0600 
    200 H200       -0.1410  -25.9731  -46.2311 H         1 UNK         0.3000 
    201 H201        0.8165  -28.6461  -46.6803 H         1 UNK         0.0600 
    202 H202        2.3185  -26.6792  -46.7052 H         1 UNK         0.0600 
    203 H203        1.4771  -26.0127  -48.1014 H         1 UNK         0.0600 
    204 H204        2.3858  -27.5118  -48.2517 H         1 UNK         0.0600 
    205 H205       -1.0811  -26.3456  -48.6840 H         1 UNK         0.3000 
    206 H206       -1.2459  -28.0240  -50.9922 H         1 UNK         0.0600 
    207 H207       -1.4859  -25.5566  -51.0805 H         1 UNK         0.0600 
    208 H208       -2.9288  -26.3226  -51.7288 H         1 UNK         0.0600 
    209 H209       -2.9541  -25.6366  -50.1093 H         1 UNK         0.0600 
    210 H210       -3.2244  -27.7880  -48.1046 H         1 UNK         0.3000 
    211 H211       -4.9624  -28.8370  -47.2692 H         1 UNK         0.0600 
    212 H212       -4.7792  -30.9436  -49.4859 H         1 UNK         0.0600 
    213 H213       -5.6417  -31.0870  -47.9627 H         1 UNK         0.0600 
    214 H214       -3.8879  -30.9970  -47.9649 H         1 UNK         0.0600 
    215 H215       -5.2283  -26.6486  -49.0160 H         1 UNK         0.3000 
    216 H216       -8.0362  -26.5403  -49.4783 H         1 UNK         0.0600 
    217 H217       -7.8535  -25.9970  -51.9443 H         1 UNK         0.0600 
    218 H218       -7.4093  -27.6685  -51.6417 H         1 UNK         0.0600 
    219 H219       -6.1559  -26.4618  -51.9234 H         1 UNK         0.0600 
    220 H220       -8.5805  -24.2448  -49.9975 H         1 UNK         0.3000 
    221 H221       -7.0962  -22.4569  -48.4219 H         1 UNK         0.0600 
    222 H222       -9.2388  -21.8937  -50.5426 H         1 UNK         0.0600 
    223 H223       -9.5289  -22.2350  -48.8361 H         1 UNK         0.0600 
    224 H224       -8.7091  -20.7560  -49.3101 H         1 UNK         0.0600 
    225 H225       -5.6587  -20.8298  -48.8088 H         1 UNK         0.3000 
    226 H226       -4.1127  -20.8093  -51.2820 H         1 UNK         0.0600 
    227 H227       -2.9783  -20.7314  -49.0894 H         1 UNK         0.0600 
    228 H228       -2.6648  -19.2520  -49.9789 H         1 UNK         0.0600 
    229 H229       -3.8301  -19.2486  -48.6611 H         1 UNK         0.0600 
    230 H230       -6.3828  -20.1895  -52.2250 H         1 UNK         0.3000 
    231 H231       -7.5315  -17.6749  -51.9654 H         1 UNK         0.0600 
    232 H232       -8.7213  -18.2770  -54.0849 H         1 UNK         0.0600 
    233 H233       -8.6517  -19.6383  -52.9771 H         1 UNK         0.0600 
    234 H234       -7.5695  -19.5775  -54.3684 H         1 UNK         0.0600 
    235 H235       -4.6858  -18.4521  -53.8101 H         1 UNK         0.3000 
    236 H236       -4.6035  -16.3296  -55.6768 H         1 UNK         0.0600 
    237 H237       -3.0970  -18.3041  -55.7580 H         1 UNK         0.0600 
    238 H238       -2.1497  -16.8265  -55.7001 H         1 UNK         0.0600 
    239 H239       -2.3241  -17.8084  -54.2508 H         1 UNK         0.0600 
    240 H240       -4.0399  -16.3209  -52.2036 H         1 UNK         0.3000 
    241 H241       -2.9654  -13.5563  -52.2337 H         1 UNK         0.0600 
    242 H242       -6.0970  -14.6894  -52.5619 H         1 UNK         0.3800 
    243 H243       -6.8736  -13.4521  -51.6085 H         1 UNK         0.3800 
    244 H244       -2.6536  -13.9236  -49.7626 H         1 UNK         0.0800 
    245 H245       -3.2686  -15.5470  -49.9468 H         1 UNK         0.0800 
    246 H246       -1.4916  -17.0117  -49.2883 H         1 UNK         0.0800 
    247 H247       -0.5577  -15.7014  -48.5951 H         1 UNK         0.0800 
@<TRIPOS>BOND
     1    1    2 1    
     2    1  127 1    
     3    1  128 1    
     4    1  129 1    
     5    2    3 2    
     6    2    4 am   BACKBONE|DICT|INTERRES
     7    4    5 1    
     8    4  130 1    
     9    5    6 1    
    10    5   65 1    
    11    5  131 1    
    12    6    7 1    
    13    6  132 1    
    14    6  133 1    
    15    7    8 1    
    16    8    9 1    
    17    8  134 1    
    18    8  135 1    
    19    9   10 ar   
    20    9   14 ar   
    21   10   11 ar   
    22   10  136 1    
    23   11   12 ar   
    24   11  126 1    
    25   12   13 ar   
    26   12  137 1    
    27   13   14 ar   
    28   13   15 1    
    29   14  138 1    
    30   15   16 1    
    31   15  139 1    
    32   15  140 1    
    33   16   17 1    
    34   17   18 1    
    35   17  141 1    
    36   17  142 1    
    37   18   19 1    
    38   18   67 1    
    39   18  143 1    
    40   19   20 am   BACKBONE|DICT|INTERRES
    41   19  144 1    
    42   20   21 2    
    43   20   22 1    
    44   22   23 1    
    45   22   24 1    
    46   22  145 1    
    47   23  146 1    
    48   23  147 1    
    49   23  148 1    
    50   24   25 am   BACKBONE|DICT|INTERRES
    51   24  149 1    
    52   25   26 2    
    53   25   27 1    
    54   27   28 1    
    55   27   29 1    
    56   27  150 1    
    57   28  151 1    
    58   28  152 1    
    59   28  153 1    
    60   29   30 am   BACKBONE|DICT|INTERRES
    61   29  154 1    
    62   30   31 2    
    63   30   32 1    
    64   32   33 1    
    65   32   34 1    
    66   32  155 1    
    67   33  156 1    
    68   33  157 1    
    69   33  158 1    
    70   34   35 am   BACKBONE|DICT|INTERRES
    71   34  159 1    
    72   35   36 2    
    73   35   37 1    
    74   37   38 1    
    75   37   39 1    
    76   37  160 1    
    77   38  161 1    
    78   38  162 1    
    79   38  163 1    
    80   39   40 am   BACKBONE|DICT|INTERRES
    81   39  164 1    
    82   40   41 2    
    83   40   42 1    
    84   42   43 1    
    85   42   44 1    
    86   42  165 1    
    87   43  166 1    
    88   43  167 1    
    89   43  168 1    
    90   44   45 am   BACKBONE|DICT|INTERRES
    91   44  169 1    
    92   45   46 2    
    93   45   47 1    
    94   47   48 1    
    95   47   49 1    
    96   47  170 1    
    97   48  171 1    
    98   48  172 1    
    99   48  173 1    
   100   49   50 am   BACKBONE|DICT|INTERRES
   101   49  174 1    
   102   50   51 2    
   103   50   52 1    
   104   52   53 1    
   105   52   54 1    
   106   52  175 1    
   107   53  176 1    
   108   53  177 1    
   109   53  178 1    
   110   54   55 am   BACKBONE|DICT|INTERRES
   111   54  179 1    
   112   55   56 2    
   113   55   57 1    
   114   57   58 1    
   115   57   59 1    
   116   57  180 1    
   117   58  181 1    
   118   58  182 1    
   119   58  183 1    
   120   59   60 am   BACKBONE|DICT|INTERRES
   121   59  184 1    
   122   60   61 2    
   123   60   62 1    
   124   62   63 1    
   125   62   64 1    
   126   62  185 1    
   127   63  186 1    
   128   63  187 1    
   129   63  188 1    
   130   64   65 am   BACKBONE|DICT|INTERRES
   131   64  189 1    
   132   65   66 2    
   133   67   68 2    
   134   67   69 am   BACKBONE|DICT|INTERRES
   135   69   70 1    
   136   69  190 1    
   137   70   71 1    
   138   70   72 1    
   139   70  191 1    
   140   71  192 1    
   141   71  193 1    
   142   71  194 1    
   143   72   73 2    
   144   72   74 am   BACKBONE|DICT|INTERRES
   145   74   75 1    
   146   74  195 1    
   147   75   76 1    
   148   75   77 1    
   149   75  196 1    
   150   76  197 1    
   151   76  198 1    
   152   76  199 1    
   153   77   78 2    
   154   77   79 am   BACKBONE|DICT|INTERRES
   155   79   80 1    
   156   79  200 1    
   157   80   81 1    
   158   80   82 1    
   159   80  201 1    
   160   81  202 1    
   161   81  203 1    
   162   81  204 1    
   163   82   83 2    
   164   82   84 am   BACKBONE|DICT|INTERRES
   165   84   85 1    
   166   84  205 1    
   167   85   86 1    
   168   85   87 1    
   169   85  206 1    
   170   86  207 1    
   171   86  208 1    
   172   86  209 1    
   173   87   88 2    
   174   87   89 am   BACKBONE|DICT|INTERRES
   175   89   90 1    
   176   89  210 1    
   177   90   91 1    
   178   90   92 1    
   179   90  211 1    
   180   91  212 1    
   181   91  213 1    
   182   91  214 1    
   183   92   93 2    
   184   92   94 am   BACKBONE|DICT|INTERRES
   185   94   95 1    
   186   94  215 1    
   187   95   96 1    
   188   95   97 1    
   189   95  216 1    
   190   96  217 1    
   191   96  218 1    
   192   96  219 1    
   193   97   98 2    
   194   97   99 am   BACKBONE|DICT|INTERRES
   195   99  100 1    
   196   99  220 1    
   197  100  101 1    
   198  100  102 1    
   199  100  221 1    
   200  101  222 1    
   201  101  223 1    
   202  101  224 1    
   203  102  103 2    
   204  102  104 am   BACKBONE|DICT|INTERRES
   205  104  105 1    
   206  104  225 1    
   207  105  106 1    
   208  105  107 1    
   209  105  226 1    
   210  106  227 1    
   211  106  228 1    
   212  106  229 1    
   213  107  108 2    
   214  107  109 am   BACKBONE|DICT|INTERRES
   215  109  110 1    
   216  109  230 1    
   217  110  111 1    
   218  110  112 1    
   219  110  231 1    
   220  111  232 1    
   221  111  233 1    
   222  111  234 1    
   223  112  113 2    
   224  112  114 am   BACKBONE|DICT|INTERRES
   225  114  115 1    
   226  114  235 1    
   227  115  116 1    
   228  115  117 1    
   229  115  236 1    
   230  116  237 1    
   231  116  238 1    
   232  116  239 1    
   233  117  118 2    
   234  117  119 am   BACKBONE|DICT|INTERRES
   235  119  120 1    
   236  119  240 1    
   237  120  121 1    
   238  120  124 1    
   239  120  241 1    
   240  121  122 am   BACKBONE|DICT|INTERRES
   241  121  123 2    
   242  122  242 1    
   243  122  243 1    
   244  124  125 1    
   245  124  244 1    
   246  124  245 1    
   247  125  126 1    
   248  126  246 1    
   249  126  247 1    
@<TRIPOS>SUBSTRUCTURE
     1 UNK         1 GROUP             0       ****    0 ROOT    
