@<TRIPOS>MOLECULE
3R540
247   249    1
SMALL
USER_CHARGES


@<TRIPOS>ATOM
      1 CA          2.9338  -10.5016  -50.4379 C.3       0 UNK        -0.1800 
      2 C           2.7947  -11.9489  -49.9886 C.2       0 UNK         0.5000 
      3 O           1.6760  -12.4247  -49.7959 O.2       0 UNK        -0.5000 
      4 N           3.9257  -12.6439  -49.8056 N.am      1 UNK        -0.5000 
      5 CA          4.0682  -14.0469  -49.3870 C.3       1 UNK         0.1400 
      6 C6          3.3525  -15.0457  -50.3342 C.3       23 UNK        -0.0398 
      7 S7          4.0619  -16.7272  -50.2467 S.3       23 UNK        -0.2404 
      8 C8          2.7961  -17.7226  -51.1113 C.3       23 UNK        -0.0205 
      9 C9          1.3936  -17.5907  -50.5245 C.ar      23 UNK        -0.0193 
     10 C10         0.2924  -17.4784  -51.3780 C.ar      23 UNK        -0.1150 
     11 C11        -0.9951  -17.3251  -50.8582 C.ar      23 UNK        -0.0193 
     12 C12        -1.1778  -17.2746  -49.4745 C.ar      23 UNK        -0.1150 
     13 C13        -0.0870  -17.3897  -48.6030 C.ar      23 UNK        -0.0193 
     14 C14         1.1891  -17.5695  -49.1409 C.ar      23 UNK        -0.1150 
     15 C15        -0.2127  -17.3189  -47.0816 C.3       23 UNK        -0.0205 
     16 S16        -1.8417  -16.8060  -46.4235 S.3       23 UNK        -0.2404 
     17 C17        -2.9464  -18.2611  -46.5696 C.3       23 UNK        -0.0398 
     18 CA         -2.2757  -19.6447  -46.7490 C.3       11 UNK         0.1400 
     19 N          -1.4956  -20.0591  -45.5727 N.am      11 UNK        -0.5000 
     20 C          -0.6978  -21.1385  -45.5400 C.2       10 UNK         0.5000 
     21 O          -0.5861  -21.9106  -46.4922 O.2       10 UNK        -0.5000 
     22 CA          0.0977  -21.4351  -44.2547 C.3       10 UNK         0.1400 
     23 CB          1.6057  -21.5020  -44.5475 C.3       10 UNK        -0.1800 
     24 N          -0.1411  -20.4614  -43.1900 N.am      10 UNK        -0.5000 
     25 C          -1.1023  -20.5621  -42.2614 C.2       9 UNK         0.5000 
     26 O          -1.9155  -21.4862  -42.2261 O.2       9 UNK        -0.5000 
     27 CA         -1.1825  -19.4476  -41.1963 C.3       9 UNK         0.1400 
     28 CB         -0.5075  -19.9032  -39.8937 C.3       9 UNK        -0.1800 
     29 N          -0.5853  -18.1812  -41.6233 N.am      9 UNK        -0.5000 
     30 C          -1.0605  -17.4097  -42.6097 C.2       8 UNK         0.5000 
     31 O          -2.1022  -17.6578  -43.2158 O.2       8 UNK        -0.5000 
     32 CA         -0.2020  -16.1957  -43.0201 C.3       8 UNK         0.1400 
     33 CB         -0.5693  -14.9607  -42.1860 C.3       8 UNK        -0.1800 
     34 N           1.2386  -16.4434  -42.9162 N.am      8 UNK        -0.5000 
     35 C           1.9087  -17.3809  -43.6019 C.2       7 UNK         0.5000 
     36 O           1.3815  -18.1349  -44.4152 O.2       7 UNK        -0.5000 
     37 CA          3.4035  -17.5433  -43.2867 C.3       7 UNK         0.1400 
     38 CB          4.2451  -16.4882  -44.0197 C.3       7 UNK        -0.1800 
     39 N           3.6482  -17.4678  -41.8479 N.am      7 UNK        -0.5000 
     40 C           3.4052  -18.4707  -40.9920 C.2       6 UNK         0.5000 
     41 O           3.0215  -19.5877  -41.3387 O.2       6 UNK        -0.5000 
     42 CA          3.6011  -18.1685  -39.4938 C.3       6 UNK         0.1400 
     43 CB          5.0478  -18.4624  -39.0696 C.3       6 UNK        -0.1800 
     44 N           3.2682  -16.7869  -39.1409 N.am      6 UNK        -0.5000 
     45 C           2.0321  -16.2700  -39.1811 C.2       5 UNK         0.5000 
     46 O           1.0319  -16.9156  -39.4918 O.2       5 UNK        -0.5000 
     47 CA          1.9025  -14.7647  -38.8759 C.3       5 UNK         0.1400 
     48 CB          1.7531  -14.5327  -37.3651 C.3       5 UNK        -0.1800 
     49 N           3.0211  -13.9617  -39.3834 N.am      5 UNK        -0.5000 
     50 C           3.3844  -13.8849  -40.6701 C.2       4 UNK         0.5000 
     51 O           2.8279  -14.5115  -41.5760 O.2       4 UNK        -0.5000 
     52 CA          4.5967  -13.0033  -40.9930 C.3       4 UNK         0.1400 
     53 CB          5.9012  -13.6595  -40.5057 C.3       4 UNK        -0.1800 
     54 N           4.6581  -12.8155  -42.4374 N.am      4 UNK        -0.5000 
     55 C           5.1940  -11.7710  -43.0742 C.2       3 UNK         0.5000 
     56 O           5.7286  -10.8238  -42.4956 O.2       3 UNK        -0.5000 
     57 CA          5.1437  -11.7819  -44.6154 C.3       3 UNK         0.1400 
     58 CB          6.5423  -12.0458  -45.1951 C.3       3 UNK        -0.1800 
     59 N           4.2179  -12.7638  -45.1868 N.am      3 UNK        -0.5000 
     60 C           2.8848  -12.6509  -45.2231 C.2       2 UNK         0.5000 
     61 O           2.2704  -11.7279  -44.6866 O.2       2 UNK        -0.5000 
     62 CA          2.1319  -13.7279  -46.0385 C.3       2 UNK         0.1400 
     63 CB          0.6065  -13.5225  -46.0159 C.3       2 UNK        -0.1800 
     64 N           2.5791  -13.7511  -47.4343 N.am      2 UNK        -0.5000 
     65 C           3.7230  -14.2737  -47.8953 C.2       1 UNK         0.5000 
     66 O           4.5287  -14.8594  -47.1705 O.2       1 UNK        -0.5000 
     67 C          -3.3177  -20.6969  -47.1811 C.2       11 UNK         0.5000 
     68 O          -3.5647  -20.8368  -48.3774 O.2       11 UNK        -0.5000 
     69 N          -3.8696  -21.4548  -46.2223 N.am      12 UNK        -0.5000 
     70 CA         -4.7734  -22.5763  -46.4880 C.3       12 UNK         0.1400 
     71 CB         -5.3822  -23.0652  -45.1658 C.3       12 UNK        -0.1800 
     72 C          -4.0793  -23.7361  -47.2276 C.2       12 UNK         0.5000 
     73 O          -4.6909  -24.3477  -48.1039 O.2       12 UNK        -0.5000 
     74 N          -2.8091  -23.9922  -46.8824 N.am      13 UNK        -0.5000 
     75 CA         -1.9605  -24.9946  -47.5239 C.3       13 UNK         0.1400 
     76 CB         -0.7853  -25.3527  -46.6012 C.3       13 UNK        -0.1800 
     77 C          -1.4628  -24.5227  -48.8999 C.2       13 UNK         0.5000 
     78 O          -1.4528  -25.3198  -49.8372 O.2       13 UNK        -0.5000 
     79 N          -1.1143  -23.2318  -49.0169 N.am      14 UNK        -0.5000 
     80 CA         -0.7417  -22.5760  -50.2762 C.3       14 UNK         0.1400 
     81 CB         -0.2773  -21.1378  -49.9964 C.3       14 UNK        -0.1800 
     82 C          -1.8885  -22.5868  -51.3060 C.2       14 UNK         0.5000 
     83 O          -1.6497  -22.8345  -52.4883 O.2       14 UNK        -0.5000 
     84 N          -3.1182  -22.3776  -50.8188 N.am      15 UNK        -0.5000 
     85 CA         -4.3557  -22.4755  -51.5884 C.3       15 UNK         0.1400 
     86 CB         -5.4387  -21.6472  -50.8785 C.3       15 UNK        -0.1800 
     87 C          -4.8433  -23.9249  -51.7903 C.2       15 UNK         0.5000 
     88 O          -5.8543  -24.1256  -52.4630 O.2       15 UNK        -0.5000 
     89 N          -4.1719  -24.9076  -51.1691 N.am      16 UNK        -0.5000 
     90 CA         -4.4750  -26.3462  -51.1795 C.3       16 UNK         0.1400 
     91 CB         -4.1465  -26.9373  -52.5656 C.3       16 UNK        -0.1800 
     92 C          -5.9120  -26.6906  -50.7210 C.2       16 UNK         0.5000 
     93 O          -6.4581  -27.7165  -51.1305 O.2       16 UNK        -0.5000 
     94 N          -6.5069  -25.8010  -49.9109 N.am      17 UNK        -0.5000 
     95 CA         -7.9103  -25.7611  -49.4880 C.3       17 UNK         0.1400 
     96 CB         -8.1978  -26.9017  -48.4903 C.3       17 UNK        -0.1800 
     97 C          -8.9275  -25.7185  -50.6569 C.2       17 UNK         0.5000 
     98 O         -10.0738  -26.1336  -50.4744 O.2       17 UNK        -0.5000 
     99 N          -8.5091  -25.2282  -51.8340 N.am      18 UNK        -0.5000 
    100 CA        -9.2876  -25.2666  -53.0754 C.3       18 UNK         0.1400 
    101 CB        -9.0763  -26.6285  -53.7667 C.3       18 UNK        -0.1800 
    102 C         -8.9560  -24.0782  -53.9983 C.2       18 UNK         0.5000 
    103 O         -9.0336  -24.2130  -55.2215 O.2       18 UNK        -0.5000 
    104 N         -8.5804  -22.9386  -53.3993 N.am      19 UNK        -0.5000 
    105 CA        -8.1000  -21.6927  -54.0137 C.3       19 UNK         0.1400 
    106 CB        -9.1491  -21.0580  -54.9473 C.3       19 UNK        -0.1800 
    107 C         -6.7311  -21.8416  -54.7051 C.2       19 UNK         0.5000 
    108 O         -5.7850  -21.1689  -54.3002 O.2       19 UNK        -0.5000 
    109 N         -6.6467  -22.7301  -55.7051 N.am      20 UNK        -0.5000 
    110 CA        -5.4525  -23.1437  -56.4491 C.3       20 UNK         0.1400 
    111 CB        -4.6726  -24.1900  -55.6228 C.3       20 UNK        -0.1800 
    112 C         -4.5913  -21.9504  -56.9229 C.2       20 UNK         0.5000 
    113 O         -5.0993  -21.0835  -57.6377 O.2       20 UNK        -0.5000 
    114 N         -3.3223  -21.9060  -56.4940 N.am      21 UNK        -0.5000 
    115 CA        -2.3514  -20.8495  -56.7880 C.3       21 UNK         0.1400 
    116 CB        -0.9796  -21.2796  -56.2451 C.3       21 UNK        -0.1800 
    117 C         -2.7330  -19.4611  -56.2347 C.2       21 UNK         0.5000 
    118 O         -2.2473  -18.4562  -56.7561 O.2       21 UNK        -0.5000 
    119 N         -3.5926  -19.4237  -55.2098 N.am      22 UNK        -0.5000 
    120 CA        -4.1538  -18.1961  -54.6288 C.3       22 UNK         0.1400 
    121 C         -5.4373  -17.6981  -55.3590 C.2       22 UNK         0.5000 
    122 N         -5.9588  -18.3950  -56.3637 N.am      22 UNK        -0.7600 
    123 O         -5.9647  -16.6427  -55.0185 O.2       22 UNK        -0.5000 
    124 C124       -4.3931  -18.3311  -53.1016 C.3       23 UNK        -0.0398 
    125 S125       -2.8997  -18.8240  -52.1732 S.3       23 UNK        -0.2404 
    126 C126       -2.1913  -17.1959  -51.7864 C.3       23 UNK        -0.0205 
    127 H127        3.9777  -10.2140  -50.5650 H         1 UNK         0.0600 
    128 H128        2.4847   -9.8358  -49.7010 H         1 UNK         0.0600 
    129 H129        2.4222  -10.3540  -51.3890 H         1 UNK         0.0600 
    130 H130        4.8038  -12.1669  -49.9582 H         1 UNK         0.3000 
    131 H131        5.1397  -14.2346  -49.4759 H         1 UNK         0.0600 
    132 H132        2.2821  -15.0702  -50.1266 H         1 UNK         0.0800 
    133 H133        3.4489  -14.7118  -51.3681 H         1 UNK         0.0800 
    134 H134        2.7968  -17.4355  -52.1640 H         1 UNK         0.0800 
    135 H135        3.0901  -18.7722  -51.0765 H         1 UNK         0.0800 
    136 H136        0.4343  -17.5060  -52.4493 H         1 UNK         0.1150 
    137 H137       -2.1783  -17.1424  -49.0937 H         1 UNK         0.1150 
    138 H138        2.0347  -17.6647  -48.4741 H         1 UNK         0.1150 
    139 H139        0.0962  -18.2697  -46.6533 H         1 UNK         0.0800 
    140 H140        0.5187  -16.5963  -46.7187 H         1 UNK         0.0800 
    141 H141       -3.6098  -18.0545  -47.4116 H         1 UNK         0.0800 
    142 H142       -3.5900  -18.2736  -45.6883 H         1 UNK         0.0800 
    143 H143       -1.5816  -19.5792  -47.5860 H         1 UNK         0.0600 
    144 H144       -1.5334  -19.4508  -44.7654 H         1 UNK         0.3000 
    145 H145       -0.2120  -22.4242  -43.9110 H         1 UNK         0.0600 
    146 H146        2.1789  -21.6782  -43.6370 H         1 UNK         0.0600 
    147 H147        1.8322  -22.3169  -45.2362 H         1 UNK         0.0600 
    148 H148        1.9736  -20.5830  -45.0030 H         1 UNK         0.0600 
    149 H149        0.4581  -19.6444  -43.1945 H         1 UNK         0.3000 
    150 H150       -2.2395  -19.2690  -40.9887 H         1 UNK         0.0600 
    151 H151       -0.6344  -19.1625  -39.1040 H         1 UNK         0.0600 
    152 H152       -0.9390  -20.8380  -39.5337 H         1 UNK         0.0600 
    153 H153        0.5620  -20.0655  -40.0317 H         1 UNK         0.0600 
    154 H154        0.2330  -17.8672  -41.1122 H         1 UNK         0.3000 
    155 H155       -0.4156  -15.9711  -44.0651 H         1 UNK         0.0600 
    156 H156       -0.4190  -15.1380  -41.1216 H         1 UNK         0.0600 
    157 H157       -1.6172  -14.6942  -42.3287 H         1 UNK         0.0600 
    158 H158        0.0299  -14.0956  -42.4710 H         1 UNK         0.0600 
    159 H159        1.7602  -15.8348  -42.2901 H         1 UNK         0.3000 
    160 H160        3.7169  -18.5265  -43.6450 H         1 UNK         0.0600 
    161 H161        3.9645  -15.4736  -43.7420 H         1 UNK         0.0600 
    162 H162        4.1183  -16.5793  -45.0989 H         1 UNK         0.0600 
    163 H163        5.3070  -16.6122  -43.8072 H         1 UNK         0.0600 
    164 H164        3.9002  -16.5632  -41.4772 H         1 UNK         0.3000 
    165 H165        2.9382  -18.8313  -38.9333 H         1 UNK         0.0600 
    166 H166        5.1795  -18.3260  -37.9961 H         1 UNK         0.0600 
    167 H167        5.3205  -19.4930  -39.3009 H         1 UNK         0.0600 
    168 H168        5.7584  -17.8119  -39.5813 H         1 UNK         0.0600 
    169 H169        4.0334  -16.1853  -38.8741 H         1 UNK         0.3000 
    170 H170        0.9943  -14.4070  -39.3638 H         1 UNK         0.0600 
    171 H171        0.9143  -15.1032  -36.9637 H         1 UNK         0.0600 
    172 H172        2.6476  -14.8361  -36.8198 H         1 UNK         0.0600 
    173 H173        1.5644  -13.4821  -37.1439 H         1 UNK         0.0600 
    174 H174        3.5333  -13.4250  -38.6981 H         1 UNK         0.3000 
    175 H175        4.4572  -12.0386  -40.5009 H         1 UNK         0.0600 
    176 H176        6.0588  -14.6334  -40.9712 H         1 UNK         0.0600 
    177 H177        6.7658  -13.0369  -40.7367 H         1 UNK         0.0600 
    178 H178        5.8921  -13.8073  -39.4253 H         1 UNK         0.0600 
    179 H179        4.1644  -13.5179  -42.9711 H         1 UNK         0.3000 
    180 H180        4.8257  -10.7872  -44.9345 H         1 UNK         0.0600 
    181 H181        6.9096  -13.0356  -44.9208 H         1 UNK         0.0600 
    182 H182        7.2642  -11.3141  -44.8297 H         1 UNK         0.0600 
    183 H183        6.5375  -11.9793  -46.2833 H         1 UNK         0.0600 
    184 H184        4.6327  -13.5442  -45.6872 H         1 UNK         0.3000 
    185 H185        2.3438  -14.6976  -45.5844 H         1 UNK         0.0600 
    186 H186        0.2206  -13.5684  -44.9971 H         1 UNK         0.0600 
    187 H187        0.3252  -12.5545  -46.4327 H         1 UNK         0.0600 
    188 H188        0.0918  -14.2896  -46.5928 H         1 UNK         0.0600 
    189 H189        2.0035  -13.2484  -48.1045 H         1 UNK         0.3000 
    190 H190       -3.6129  -21.2873  -45.2601 H         1 UNK         0.3000 
    191 H191       -5.5842  -22.2158  -47.1248 H         1 UNK         0.0600 
    192 H192       -5.9449  -22.2717  -44.6738 H         1 UNK         0.0600 
    193 H193       -6.0714  -23.8934  -45.3366 H         1 UNK         0.0600 
    194 H194       -4.6155  -23.4131  -44.4722 H         1 UNK         0.0600 
    195 H195       -2.3610  -23.3940  -46.2034 H         1 UNK         0.3000 
    196 H196       -2.5536  -25.8992  -47.6762 H         1 UNK         0.0600 
    197 H197       -0.1729  -26.1400  -47.0425 H         1 UNK         0.0600 
    198 H198       -1.1386  -25.7185  -45.6371 H         1 UNK         0.0600 
    199 H199       -0.1334  -24.4987  -46.4174 H         1 UNK         0.0600 
    200 H200       -1.0923  -22.6602  -48.1768 H         1 UNK         0.3000 
    201 H201        0.0978  -23.1299  -50.7009 H         1 UNK         0.0600 
    202 H202        0.5087  -21.1085  -49.2416 H         1 UNK         0.0600 
    203 H203       -1.0985  -20.5096  -49.6526 H         1 UNK         0.0600 
    204 H204        0.1201  -20.6756  -50.9008 H         1 UNK         0.0600 
    205 H205       -3.2166  -22.0956  -49.8479 H         1 UNK         0.3000 
    206 H206       -4.1765  -22.0467  -52.5743 H         1 UNK         0.0600 
    207 H207       -5.1282  -20.6085  -50.7649 H         1 UNK         0.0600 
    208 H208       -6.3693  -21.6453  -51.4449 H         1 UNK         0.0600 
    209 H209       -5.6582  -22.0417  -49.8857 H         1 UNK         0.0600 
    210 H210       -3.3571  -24.6492  -50.6277 H         1 UNK         0.3000 
    211 H211       -3.8055  -26.8053  -50.4512 H         1 UNK         0.0600 
    212 H212       -4.8280  -26.5669  -53.3321 H         1 UNK         0.0600 
    213 H213       -4.2214  -28.0252  -52.5580 H         1 UNK         0.0600 
    214 H214       -3.1306  -26.6855  -52.8702 H         1 UNK         0.0600 
    215 H215       -5.9267  -25.0443  -49.5620 H         1 UNK         0.3000 
    216 H216       -8.0329  -24.8187  -48.9529 H         1 UNK         0.0600 
    217 H217       -9.1904  -26.7997  -48.0503 H         1 UNK         0.0600 
    218 H218       -7.4800  -26.8965  -47.6699 H         1 UNK         0.0600 
    219 H219       -8.1512  -27.8793  -48.9710 H         1 UNK         0.0600 
    220 H220       -7.5479  -24.9062  -51.9293 H         1 UNK         0.3000 
    221 H221      -10.3485  -25.1650  -52.8386 H         1 UNK         0.0600 
    222 H222       -8.0324  -26.7710  -54.0493 H         1 UNK         0.0600 
    223 H223       -9.3598  -27.4533  -53.1128 H         1 UNK         0.0600 
    224 H224       -9.6804  -26.7138  -54.6707 H         1 UNK         0.0600 
    225 H225       -8.5303  -22.9583  -52.3909 H         1 UNK         0.3000 
    226 H226       -7.9544  -20.9969  -53.1861 H         1 UNK         0.0600 
    227 H227      -10.0919  -20.8947  -54.4254 H         1 UNK         0.0600 
    228 H228       -8.8050  -20.0880  -55.3085 H         1 UNK         0.0600 
    229 H229       -9.3535  -21.6737  -55.8230 H         1 UNK         0.0600 
    230 H230       -7.4960  -23.2465  -55.9131 H         1 UNK         0.3000 
    231 H231       -5.8112  -23.6370  -57.3533 H         1 UNK         0.0600 
    232 H232       -4.2586  -23.7625  -54.7095 H         1 UNK         0.0600 
    233 H233       -3.8504  -24.6184  -56.1972 H         1 UNK         0.0600 
    234 H234       -5.3216  -25.0157  -55.3302 H         1 UNK         0.0600 
    235 H235       -3.0015  -22.6451  -55.8857 H         1 UNK         0.3000 
    236 H236       -2.2790  -20.7581  -57.8735 H         1 UNK         0.0600 
    237 H237       -0.6528  -22.2181  -56.6934 H         1 UNK         0.0600 
    238 H238       -0.2176  -20.5317  -56.4684 H         1 UNK         0.0600 
    239 H239       -1.0014  -21.4129  -55.1623 H         1 UNK         0.0600 
    240 H240       -4.0027  -20.2864  -54.8700 H         1 UNK         0.3000 
    241 H241       -3.4234  -17.3957  -54.7585 H         1 UNK         0.0600 
    242 H242       -5.5433  -19.2680  -56.6664 H         1 UNK         0.3800 
    243 H243       -6.7810  -18.0470  -56.8301 H         1 UNK         0.3800 
    244 H244       -4.7700  -17.3949  -52.6868 H         1 UNK         0.0800 
    245 H245       -5.1670  -19.0730  -52.9035 H         1 UNK         0.0800 
    246 H246       -1.8975  -16.6989  -52.7121 H         1 UNK         0.0800 
    247 H247       -2.9514  -16.5649  -51.3232 H         1 UNK         0.0800 
@<TRIPOS>BOND
     1    1    2 1    
     2    1  127 1    
     3    1  128 1    
     4    1  129 1    
     5    2    3 2    
     6    2    4 am   BACKBONE|DICT|INTERRES
     7    4    5 1    
     8    4  130 1    
     9    5    6 1    
    10    5   65 1    
    11    5  131 1    
    12    6    7 1    
    13    6  132 1    
    14    6  133 1    
    15    7    8 1    
    16    8    9 1    
    17    8  134 1    
    18    8  135 1    
    19    9   10 ar   
    20    9   14 ar   
    21   10   11 ar   
    22   10  136 1    
    23   11   12 ar   
    24   11  126 1    
    25   12   13 ar   
    26   12  137 1    
    27   13   14 ar   
    28   13   15 1    
    29   14  138 1    
    30   15   16 1    
    31   15  139 1    
    32   15  140 1    
    33   16   17 1    
    34   17   18 1    
    35   17  141 1    
    36   17  142 1    
    37   18   19 1    
    38   18   67 1    
    39   18  143 1    
    40   19   20 am   BACKBONE|DICT|INTERRES
    41   19  144 1    
    42   20   21 2    
    43   20   22 1    
    44   22   23 1    
    45   22   24 1    
    46   22  145 1    
    47   23  146 1    
    48   23  147 1    
    49   23  148 1    
    50   24   25 am   BACKBONE|DICT|INTERRES
    51   24  149 1    
    52   25   26 2    
    53   25   27 1    
    54   27   28 1    
    55   27   29 1    
    56   27  150 1    
    57   28  151 1    
    58   28  152 1    
    59   28  153 1    
    60   29   30 am   BACKBONE|DICT|INTERRES
    61   29  154 1    
    62   30   31 2    
    63   30   32 1    
    64   32   33 1    
    65   32   34 1    
    66   32  155 1    
    67   33  156 1    
    68   33  157 1    
    69   33  158 1    
    70   34   35 am   BACKBONE|DICT|INTERRES
    71   34  159 1    
    72   35   36 2    
    73   35   37 1    
    74   37   38 1    
    75   37   39 1    
    76   37  160 1    
    77   38  161 1    
    78   38  162 1    
    79   38  163 1    
    80   39   40 am   BACKBONE|DICT|INTERRES
    81   39  164 1    
    82   40   41 2    
    83   40   42 1    
    84   42   43 1    
    85   42   44 1    
    86   42  165 1    
    87   43  166 1    
    88   43  167 1    
    89   43  168 1    
    90   44   45 am   BACKBONE|DICT|INTERRES
    91   44  169 1    
    92   45   46 2    
    93   45   47 1    
    94   47   48 1    
    95   47   49 1    
    96   47  170 1    
    97   48  171 1    
    98   48  172 1    
    99   48  173 1    
   100   49   50 am   BACKBONE|DICT|INTERRES
   101   49  174 1    
   102   50   51 2    
   103   50   52 1    
   104   52   53 1    
   105   52   54 1    
   106   52  175 1    
   107   53  176 1    
   108   53  177 1    
   109   53  178 1    
   110   54   55 am   BACKBONE|DICT|INTERRES
   111   54  179 1    
   112   55   56 2    
   113   55   57 1    
   114   57   58 1    
   115   57   59 1    
   116   57  180 1    
   117   58  181 1    
   118   58  182 1    
   119   58  183 1    
   120   59   60 am   BACKBONE|DICT|INTERRES
   121   59  184 1    
   122   60   61 2    
   123   60   62 1    
   124   62   63 1    
   125   62   64 1    
   126   62  185 1    
   127   63  186 1    
   128   63  187 1    
   129   63  188 1    
   130   64   65 am   BACKBONE|DICT|INTERRES
   131   64  189 1    
   132   65   66 2    
   133   67   68 2    
   134   67   69 am   BACKBONE|DICT|INTERRES
   135   69   70 1    
   136   69  190 1    
   137   70   71 1    
   138   70   72 1    
   139   70  191 1    
   140   71  192 1    
   141   71  193 1    
   142   71  194 1    
   143   72   73 2    
   144   72   74 am   BACKBONE|DICT|INTERRES
   145   74   75 1    
   146   74  195 1    
   147   75   76 1    
   148   75   77 1    
   149   75  196 1    
   150   76  197 1    
   151   76  198 1    
   152   76  199 1    
   153   77   78 2    
   154   77   79 am   BACKBONE|DICT|INTERRES
   155   79   80 1    
   156   79  200 1    
   157   80   81 1    
   158   80   82 1    
   159   80  201 1    
   160   81  202 1    
   161   81  203 1    
   162   81  204 1    
   163   82   83 2    
   164   82   84 am   BACKBONE|DICT|INTERRES
   165   84   85 1    
   166   84  205 1    
   167   85   86 1    
   168   85   87 1    
   169   85  206 1    
   170   86  207 1    
   171   86  208 1    
   172   86  209 1    
   173   87   88 2    
   174   87   89 am   BACKBONE|DICT|INTERRES
   175   89   90 1    
   176   89  210 1    
   177   90   91 1    
   178   90   92 1    
   179   90  211 1    
   180   91  212 1    
   181   91  213 1    
   182   91  214 1    
   183   92   93 2    
   184   92   94 am   BACKBONE|DICT|INTERRES
   185   94   95 1    
   186   94  215 1    
   187   95   96 1    
   188   95   97 1    
   189   95  216 1    
   190   96  217 1    
   191   96  218 1    
   192   96  219 1    
   193   97   98 2    
   194   97   99 am   BACKBONE|DICT|INTERRES
   195   99  100 1    
   196   99  220 1    
   197  100  101 1    
   198  100  102 1    
   199  100  221 1    
   200  101  222 1    
   201  101  223 1    
   202  101  224 1    
   203  102  103 2    
   204  102  104 am   BACKBONE|DICT|INTERRES
   205  104  105 1    
   206  104  225 1    
   207  105  106 1    
   208  105  107 1    
   209  105  226 1    
   210  106  227 1    
   211  106  228 1    
   212  106  229 1    
   213  107  108 2    
   214  107  109 am   BACKBONE|DICT|INTERRES
   215  109  110 1    
   216  109  230 1    
   217  110  111 1    
   218  110  112 1    
   219  110  231 1    
   220  111  232 1    
   221  111  233 1    
   222  111  234 1    
   223  112  113 2    
   224  112  114 am   BACKBONE|DICT|INTERRES
   225  114  115 1    
   226  114  235 1    
   227  115  116 1    
   228  115  117 1    
   229  115  236 1    
   230  116  237 1    
   231  116  238 1    
   232  116  239 1    
   233  117  118 2    
   234  117  119 am   BACKBONE|DICT|INTERRES
   235  119  120 1    
   236  119  240 1    
   237  120  121 1    
   238  120  124 1    
   239  120  241 1    
   240  121  122 am   BACKBONE|DICT|INTERRES
   241  121  123 2    
   242  122  242 1    
   243  122  243 1    
   244  124  125 1    
   245  124  244 1    
   246  124  245 1    
   247  125  126 1    
   248  126  246 1    
   249  126  247 1    
@<TRIPOS>SUBSTRUCTURE
     1 UNK         1 GROUP             0       ****    0 ROOT    
