@<TRIPOS>MOLECULE
3R540
247   249    1
SMALL
USER_CHARGES


@<TRIPOS>ATOM
      1 CA          0.5407   -9.0294  -49.0300 C.3       0 UNK        -0.1800 
      2 C           0.5692  -10.3175  -48.2213 C.2       0 UNK         0.5000 
      3 O           1.6468  -10.8020  -47.8750 O.2       0 UNK        -0.5000 
      4 N          -0.6079  -10.8709  -47.8967 N.am      1 UNK        -0.5000 
      5 CA         -0.7513  -12.1213  -47.1385 C.3       1 UNK         0.1400 
      6 C6         -2.1999  -12.6738  -47.1839 C.3       23 UNK        -0.0398 
      7 S7         -2.2221  -14.4944  -47.2778 S.3       23 UNK        -0.2404 
      8 C8         -2.0947  -14.7084  -49.0781 C.3       23 UNK        -0.0205 
      9 C9         -1.6393  -16.1096  -49.4444 C.ar      23 UNK        -0.0193 
     10 C10        -2.5588  -17.0582  -49.8977 C.ar      23 UNK        -0.1150 
     11 C11        -2.1276  -18.3284  -50.2893 C.ar      23 UNK        -0.0193 
     12 C12        -0.7687  -18.6462  -50.2206 C.ar      23 UNK        -0.1150 
     13 C13         0.1588  -17.7156  -49.7407 C.ar      23 UNK        -0.0193 
     14 C14        -0.2855  -16.4464  -49.3595 C.ar      23 UNK        -0.1150 
     15 C15         1.6455  -18.0477  -49.6662 C.3       23 UNK        -0.0205 
     16 S16         2.0110  -19.6895  -48.9607 S.3       23 UNK        -0.2404 
     17 C17         1.3915  -19.5361  -47.2510 C.3       23 UNK        -0.0398 
     18 CA          0.4865  -20.7335  -46.8643 C.3       11 UNK         0.1400 
     19 N           0.5436  -21.0263  -45.4334 N.am      11 UNK        -0.5000 
     20 C           0.2411  -22.2111  -44.8856 C.2       10 UNK         0.5000 
     21 O          -0.1261  -23.1847  -45.5425 O.2       10 UNK        -0.5000 
     22 CA          0.3262  -22.3151  -43.3488 C.3       10 UNK         0.1400 
     23 CB          0.7037  -23.7292  -42.8629 C.3       10 UNK        -0.1800 
     24 N           1.1897  -21.2962  -42.7440 N.am      10 UNK        -0.5000 
     25 C           2.5153  -21.1409  -42.8794 C.2       9 UNK         0.5000 
     26 O           3.2356  -21.9012  -43.5265 O.2       9 UNK        -0.5000 
     27 CA          3.1385  -19.9010  -42.2047 C.3       9 UNK         0.1400 
     28 CB          3.6064  -18.9031  -43.2740 C.3       9 UNK        -0.1800 
     29 N           2.2111  -19.2177  -41.2984 N.am      9 UNK        -0.5000 
     30 C           1.8912  -19.6360  -40.0660 C.2       8 UNK         0.5000 
     31 O           2.4516  -20.5688  -39.4902 O.2       8 UNK        -0.5000 
     32 CA          0.6891  -18.9381  -39.4038 C.3       8 UNK         0.1400 
     33 CB          1.1170  -17.6452  -38.6921 C.3       8 UNK        -0.1800 
     34 N          -0.3668  -18.6506  -40.3819 N.am      8 UNK        -0.5000 
     35 C          -1.1796  -19.5836  -40.9011 C.2       7 UNK         0.5000 
     36 O          -1.1530  -20.7648  -40.5587 O.2       7 UNK        -0.5000 
     37 CA         -2.1645  -19.1623  -42.0075 C.3       7 UNK         0.1400 
     38 CB         -3.6021  -19.1286  -41.4681 C.3       7 UNK        -0.1800 
     39 N          -1.8529  -17.8619  -42.5955 N.am      7 UNK        -0.5000 
     40 C          -1.0001  -17.6513  -43.6061 C.2       6 UNK         0.5000 
     41 O          -0.3625  -18.5493  -44.1613 O.2       6 UNK        -0.5000 
     42 CA         -0.8706  -16.1954  -44.1058 C.3       6 UNK         0.1400 
     43 CB         -2.0374  -15.2881  -43.6610 C.3       6 UNK        -0.1800 
     44 N           0.3895  -15.5176  -43.7887 N.am      6 UNK        -0.5000 
     45 C           1.2328  -15.6914  -42.7596 C.2       5 UNK         0.5000 
     46 O           1.1314  -16.5837  -41.9170 O.2       5 UNK        -0.5000 
     47 CA          2.3612  -14.6455  -42.6344 C.3       5 UNK         0.1400 
     48 CB          3.5561  -15.1148  -41.7804 C.3       5 UNK        -0.1800 
     49 N           2.8040  -14.1063  -43.9231 N.am      5 UNK        -0.5000 
     50 C           3.4013  -14.7522  -44.9361 C.2       4 UNK         0.5000 
     51 O           3.7186  -15.9405  -44.9033 O.2       4 UNK        -0.5000 
     52 CA          3.6765  -13.9365  -46.2192 C.3       4 UNK         0.1400 
     53 CB          2.7488  -14.3993  -47.3547 C.3       4 UNK        -0.1800 
     54 N           3.5147  -12.4911  -46.0328 N.am      4 UNK        -0.5000 
     55 C           4.3750  -11.7015  -45.3734 C.2       3 UNK         0.5000 
     56 O           5.4607  -12.0858  -44.9382 O.2       3 UNK        -0.5000 
     57 CA          3.9211  -10.2533  -45.1124 C.3       3 UNK         0.1400 
     58 CB          4.3486   -9.3255  -46.2600 C.3       3 UNK        -0.1800 
     59 N           2.4719  -10.1601  -44.9139 N.am      3 UNK        -0.5000 
     60 C           1.8356  -10.5479  -43.7981 C.2       2 UNK         0.5000 
     61 O           2.4119  -10.9851  -42.8025 O.2       2 UNK        -0.5000 
     62 CA          0.2960  -10.4791  -43.8076 C.3       2 UNK         0.1400 
     63 CB         -0.1859   -9.0871  -43.3730 C.3       2 UNK        -0.1800 
     64 N          -0.2792  -10.8037  -45.1135 N.am      2 UNK        -0.5000 
     65 C          -0.2172  -12.0110  -45.6939 C.2       1 UNK         0.5000 
     66 O           0.2877  -12.9959  -45.1569 O.2       1 UNK        -0.5000 
     67 C          -0.9753  -20.5412  -47.3032 C.2       11 UNK         0.5000 
     68 O          -1.4194  -21.1879  -48.2506 O.2       11 UNK        -0.5000 
     69 N          -1.7265  -19.7243  -46.5486 N.am      12 UNK        -0.5000 
     70 CA         -3.1573  -19.4917  -46.7743 C.3       12 UNK         0.1400 
     71 CB         -3.6314  -18.3057  -45.9233 C.3       12 UNK        -0.1800 
     72 C          -4.0155  -20.7409  -46.4969 C.2       12 UNK         0.5000 
     73 O          -5.0669  -20.9087  -47.1126 O.2       12 UNK        -0.5000 
     74 N          -3.5304  -21.6152  -45.6047 N.am      13 UNK        -0.5000 
     75 CA         -4.1325  -22.9117  -45.2921 C.3       13 UNK         0.1400 
     76 CB         -3.5365  -23.4300  -43.9738 C.3       13 UNK        -0.1800 
     77 C          -3.9505  -23.9526  -46.4173 C.2       13 UNK         0.5000 
     78 O          -4.7109  -24.9191  -46.4682 O.2       13 UNK        -0.5000 
     79 N          -2.9613  -23.7419  -47.2972 N.am      14 UNK        -0.5000 
     80 CA         -2.6394  -24.6128  -48.4277 C.3       14 UNK         0.1400 
     81 CB         -1.1175  -24.6001  -48.6465 C.3       14 UNK        -0.1800 
     82 C          -3.3873  -24.2296  -49.7195 C.2       14 UNK         0.5000 
     83 O          -3.1455  -24.8631  -50.7508 O.2       14 UNK        -0.5000 
     84 N          -4.2655  -23.2143  -49.6625 N.am      15 UNK        -0.5000 
     85 CA         -5.1214  -22.7547  -50.7616 C.3       15 UNK         0.1400 
     86 CB         -6.0543  -21.6484  -50.2492 C.3       15 UNK        -0.1800 
     87 C          -5.9499  -23.9026  -51.3640 C.2       15 UNK         0.5000 
     88 O          -6.5214  -24.6971  -50.6134 O.2       15 UNK        -0.5000 
     89 N          -5.9522  -23.9957  -52.6992 N.am      16 UNK        -0.5000 
     90 CA         -6.5114  -25.0586  -53.5466 C.3       16 UNK         0.1400 
     91 CB         -8.0342  -25.1914  -53.3582 C.3       16 UNK        -0.1800 
     92 C          -5.8094  -26.4280  -53.4098 C.2       16 UNK         0.5000 
     93 O          -5.6254  -27.1082  -54.4191 O.2       16 UNK        -0.5000 
     94 N          -5.4299  -26.8063  -52.1836 N.am      17 UNK        -0.5000 
     95 CA         -4.8049  -28.0774  -51.8256 C.3       17 UNK         0.1400 
     96 CB         -4.7835  -28.2111  -50.2947 C.3       17 UNK        -0.1800 
     97 C          -3.3902  -28.2572  -52.4029 C.2       17 UNK         0.5000 
     98 O          -3.0789  -29.3423  -52.8968 O.2       17 UNK        -0.5000 
     99 N          -2.5622  -27.2068  -52.3273 N.am      18 UNK        -0.5000 
    100 CA        -1.1709  -27.2333  -52.7871 C.3       18 UNK         0.1400 
    101 CB        -0.2536  -27.7430  -51.6623 C.3       18 UNK        -0.1800 
    102 C         -0.6905  -25.8759  -53.3222 C.2       18 UNK         0.5000 
    103 O          0.1137  -25.8542  -54.2545 O.2       18 UNK        -0.5000 
    104 N         -1.1932  -24.7685  -52.7582 N.am      19 UNK        -0.5000 
    105 CA        -0.8759  -23.4052  -53.1982 C.3       19 UNK         0.1400 
    106 CB        -1.0492  -22.4419  -52.0142 C.3       19 UNK        -0.1800 
    107 C         -1.7152  -22.9544  -54.4132 C.2       19 UNK         0.5000 
    108 O         -1.4288  -21.9011  -54.9832 O.2       19 UNK        -0.5000 
    109 N         -2.7134  -23.7670  -54.7947 N.am      20 UNK        -0.5000 
    110 CA        -3.6562  -23.5699  -55.8985 C.3       20 UNK         0.1400 
    111 CB        -2.9215  -23.5339  -57.2580 C.3       20 UNK        -0.1800 
    112 C         -4.5932  -22.3674  -55.6553 C.2       20 UNK         0.5000 
    113 O         -4.9111  -22.0674  -54.5008 O.2       20 UNK        -0.5000 
    114 N         -5.0696  -21.7400  -56.7367 N.am      21 UNK        -0.5000 
    115 CA        -5.9676  -20.5879  -56.7184 C.3       21 UNK         0.1400 
    116 CB        -6.7143  -20.5219  -58.0627 C.3       21 UNK        -0.1800 
    117 C         -5.1844  -19.2965  -56.4177 C.2       21 UNK         0.5000 
    118 O         -4.8016  -18.5756  -57.3417 O.2       21 UNK        -0.5000 
    119 N         -4.9249  -19.0608  -55.1280 N.am      22 UNK        -0.5000 
    120 CA        -4.2130  -17.8913  -54.5902 C.3       22 UNK         0.1400 
    121 C         -4.9010  -16.5390  -54.9320 C.2       22 UNK         0.5000 
    122 N         -4.1312  -15.5015  -55.2315 N.am      22 UNK        -0.7600 
    123 O         -6.1227  -16.4112  -54.8828 O.2       22 UNK        -0.5000 
    124 C124       -4.0155  -18.0067  -53.0585 C.3       23 UNK        -0.0398 
    125 S125       -3.1392  -19.5298  -52.5750 S.3       23 UNK        -0.2404 
    126 C126       -3.1293  -19.3672  -50.7658 C.3       23 UNK        -0.0205 
    127 H127        1.0616   -9.1714  -49.9768 H         1 UNK         0.0600 
    128 H128        1.0409   -8.2317  -48.4809 H         1 UNK         0.0600 
    129 H129       -0.4785   -8.7084  -49.2459 H         1 UNK         0.0600 
    130 H130       -1.4643  -10.4275  -48.1981 H         1 UNK         0.3000 
    131 H131       -0.1004  -12.8358  -47.6463 H         1 UNK         0.0600 
    132 H132       -2.7856  -12.3522  -46.3206 H         1 UNK         0.0800 
    133 H133       -2.7349  -12.2906  -48.0542 H         1 UNK         0.0800 
    134 H134       -1.3850  -13.9883  -49.4883 H         1 UNK         0.0800 
    135 H135       -3.0590  -14.4834  -49.5364 H         1 UNK         0.0800 
    136 H136       -3.6079  -16.8043  -49.9554 H         1 UNK         0.1150 
    137 H137       -0.4383  -19.6288  -50.5267 H         1 UNK         0.1150 
    138 H138        0.4232  -15.7104  -49.0063 H         1 UNK         0.1150 
    139 H139        2.0572  -18.0043  -50.6751 H         1 UNK         0.0800 
    140 H140        2.1804  -17.2962  -49.0839 H         1 UNK         0.0800 
    141 H141        0.8885  -18.5791  -47.0989 H         1 UNK         0.0800 
    142 H142        2.2715  -19.5100  -46.6064 H         1 UNK         0.0800 
    143 H143        0.8635  -21.6198  -47.3808 H         1 UNK         0.0600 
    144 H144        0.7387  -20.2448  -44.8192 H         1 UNK         0.3000 
    145 H145       -0.6800  -22.1078  -42.9837 H         1 UNK         0.0600 
    146 H146        0.7531  -23.7708  -41.7748 H         1 UNK         0.0600 
    147 H147       -0.0379  -24.4631  -43.1805 H         1 UNK         0.0600 
    148 H148        1.6680  -24.0509  -43.2567 H         1 UNK         0.0600 
    149 H149        0.7151  -20.6147  -42.1706 H         1 UNK         0.3000 
    150 H150        4.0101  -20.2370  -41.6396 H         1 UNK         0.0600 
    151 H151        4.2479  -19.3828  -44.0143 H         1 UNK         0.0600 
    152 H152        4.1872  -18.0992  -42.8268 H         1 UNK         0.0600 
    153 H153        2.7655  -18.4571  -43.8076 H         1 UNK         0.0600 
    154 H154        1.7373  -18.3942  -41.6618 H         1 UNK         0.3000 
    155 H155        0.2846  -19.6151  -38.6481 H         1 UNK         0.0600 
    156 H156        1.5650  -16.9275  -39.3786 H         1 UNK         0.0600 
    157 H157        1.8546  -17.8567  -37.9171 H         1 UNK         0.0600 
    158 H158        0.2677  -17.1620  -38.2090 H         1 UNK         0.0600 
    159 H159       -0.3758  -17.7169  -40.7730 H         1 UNK         0.3000 
    160 H160       -2.1201  -19.9237  -42.7892 H         1 UNK         0.0600 
    161 H161       -3.7195  -18.3840  -40.6797 H         1 UNK         0.0600 
    162 H162       -3.8874  -20.0958  -41.0519 H         1 UNK         0.0600 
    163 H163       -4.3146  -18.8956  -42.2597 H         1 UNK         0.0600 
    164 H164       -2.3325  -17.0655  -42.2011 H         1 UNK         0.3000 
    165 H165       -0.9046  -16.2600  -45.1938 H         1 UNK         0.0600 
    166 H166       -1.9875  -14.3198  -44.1588 H         1 UNK         0.0600 
    167 H167       -3.0037  -15.7241  -43.9186 H         1 UNK         0.0600 
    168 H168       -2.0224  -15.1003  -42.5868 H         1 UNK         0.0600 
    169 H169        0.5799  -14.7158  -44.3843 H         1 UNK         0.3000 
    170 H170        1.9081  -13.8047  -42.1075 H         1 UNK         0.0600 
    171 H171        3.2324  -15.4470  -40.7935 H         1 UNK         0.0600 
    172 H172        4.0907  -15.9401  -42.2454 H         1 UNK         0.0600 
    173 H173        4.2679  -14.3033  -41.6293 H         1 UNK         0.0600 
    174 H174        2.5602  -13.1390  -44.0845 H         1 UNK         0.3000 
    175 H175        4.7079  -14.1322  -46.5195 H         1 UNK         0.0600 
    176 H176        1.6984  -14.3036  -47.0814 H         1 UNK         0.0600 
    177 H177        2.9148  -13.8230  -48.2651 H         1 UNK         0.0600 
    178 H178        2.9263  -15.4478  -47.5957 H         1 UNK         0.0600 
    179 H179        2.6730  -12.0732  -46.4108 H         1 UNK         0.3000 
    180 H180        4.4164   -9.9091  -44.2018 H         1 UNK         0.0600 
    181 H181        3.9107   -9.6254  -47.2119 H         1 UNK         0.0600 
    182 H182        5.4323   -9.3356  -46.3829 H         1 UNK         0.0600 
    183 H183        4.0538   -8.2944  -46.0646 H         1 UNK         0.0600 
    184 H184        1.9265   -9.8650  -45.7115 H         1 UNK         0.3000 
    185 H185       -0.0732  -11.2100  -43.0848 H         1 UNK         0.0600 
    186 H186       -1.2732   -9.0503  -43.3030 H         1 UNK         0.0600 
    187 H187        0.2108   -8.8260  -42.3910 H         1 UNK         0.0600 
    188 H188        0.1326   -8.3129  -44.0723 H         1 UNK         0.0600 
    189 H189       -0.7012  -10.0442  -45.6276 H         1 UNK         0.3000 
    190 H190       -1.2943  -19.2559  -45.7592 H         1 UNK         0.3000 
    191 H191       -3.2942  -19.2281  -47.8238 H         1 UNK         0.0600 
    192 H192       -3.5620  -18.5206  -44.8572 H         1 UNK         0.0600 
    193 H193       -3.0463  -17.4103  -46.1334 H         1 UNK         0.0600 
    194 H194       -4.6734  -18.0668  -46.1393 H         1 UNK         0.0600 
    195 H195       -2.6497  -21.4036  -45.1633 H         1 UNK         0.3000 
    196 H196       -5.2051  -22.7657  -45.1475 H         1 UNK         0.0600 
    197 H197       -2.4714  -23.6413  -44.0685 H         1 UNK         0.0600 
    198 H198       -3.6685  -22.7092  -43.1665 H         1 UNK         0.0600 
    199 H199       -4.0244  -24.3554  -43.6650 H         1 UNK         0.0600 
    200 H200       -2.3891  -22.9115  -47.2086 H         1 UNK         0.3000 
    201 H201       -2.9291  -25.6381  -48.1894 H         1 UNK         0.0600 
    202 H202       -0.5895  -24.9292  -47.7515 H         1 UNK         0.0600 
    203 H203       -0.7519  -23.6063  -48.9012 H         1 UNK         0.0600 
    204 H204       -0.8280  -25.2689  -49.4560 H         1 UNK         0.0600 
    205 H205       -4.4042  -22.7611  -48.7709 H         1 UNK         0.3000 
    206 H206       -4.4739  -22.3360  -51.5342 H         1 UNK         0.0600 
    207 H207       -5.4950  -20.8309  -49.7993 H         1 UNK         0.0600 
    208 H208       -6.6469  -21.2297  -51.0635 H         1 UNK         0.0600 
    209 H209       -6.7469  -22.0253  -49.4953 H         1 UNK         0.0600 
    210 H210       -5.4703  -23.2650  -53.2205 H         1 UNK         0.3000 
    211 H211       -6.3470  -24.7288  -54.5727 H         1 UNK         0.0600 
    212 H212       -8.4540  -25.8910  -54.0820 H         1 UNK         0.0600 
    213 H213       -8.5341  -24.2338  -53.5041 H         1 UNK         0.0600 
    214 H214       -8.2950  -25.5591  -52.3656 H         1 UNK         0.0600 
    215 H215       -5.6511  -26.1742  -51.4195 H         1 UNK         0.3000 
    216 H216       -5.4299  -28.8778  -52.2268 H         1 UNK         0.0600 
    217 H217       -4.2048  -27.4130  -49.8283 H         1 UNK         0.0600 
    218 H218       -4.3398  -29.1600  -49.9907 H         1 UNK         0.0600 
    219 H219       -5.7919  -28.1768  -49.8821 H         1 UNK         0.0600 
    220 H220       -2.8908  -26.3589  -51.8737 H         1 UNK         0.3000 
    221 H221       -1.0894  -27.9266  -53.6273 H         1 UNK         0.0600 
    222 H222       -0.5071  -28.7647  -51.3795 H         1 UNK         0.0600 
    223 H223       -0.3285  -27.1222  -50.7703 H         1 UNK         0.0600 
    224 H224        0.7907  -27.7440  -51.9771 H         1 UNK         0.0600 
    225 H225       -1.8499  -24.8441  -51.9850 H         1 UNK         0.3000 
    226 H226        0.1727  -23.3668  -53.5008 H         1 UNK         0.0600 
    227 H227       -2.0866  -22.3864  -51.6885 H         1 UNK         0.0600 
    228 H228       -0.4427  -22.7452  -51.1614 H         1 UNK         0.0600 
    229 H229       -0.7386  -21.4327  -52.2863 H         1 UNK         0.0600 
    230 H230       -2.8576  -24.5969  -54.2400 H         1 UNK         0.3000 
    231 H231       -4.2955  -24.4532  -55.9015 H         1 UNK         0.0600 
    232 H232       -2.3592  -22.6096  -57.3950 H         1 UNK         0.0600 
    233 H233       -3.6201  -23.6239  -58.0904 H         1 UNK         0.0600 
    234 H234       -2.2199  -24.3637  -57.3446 H         1 UNK         0.0600 
    235 H235       -4.7426  -22.0324  -57.6459 H         1 UNK         0.3000 
    236 H236       -6.7138  -20.7250  -55.9324 H         1 UNK         0.0600 
    237 H237       -7.3199  -21.4145  -58.2202 H         1 UNK         0.0600 
    238 H238       -7.3874  -19.6641  -58.0921 H         1 UNK         0.0600 
    239 H239       -6.0280  -20.4305  -58.9056 H         1 UNK         0.0600 
    240 H240       -5.1979  -19.7602  -54.4504 H         1 UNK         0.3000 
    241 H241       -3.2257  -17.8899  -55.0563 H         1 UNK         0.0600 
    242 H242       -4.5642  -14.6151  -55.4405 H         1 UNK         0.3800 
    243 H243       -3.1267  -15.5808  -55.2716 H         1 UNK         0.3800 
    244 H244       -4.9785  -17.9812  -52.5451 H         1 UNK         0.0800 
    245 H245       -3.4424  -17.1549  -52.6884 H         1 UNK         0.0800 
    246 H246       -2.8857  -20.3354  -50.3265 H         1 UNK         0.0800 
    247 H247       -4.1308  -19.1144  -50.4178 H         1 UNK         0.0800 
@<TRIPOS>BOND
     1    1    2 1    
     2    1  127 1    
     3    1  128 1    
     4    1  129 1    
     5    2    3 2    
     6    2    4 am   BACKBONE|DICT|INTERRES
     7    4    5 1    
     8    4  130 1    
     9    5    6 1    
    10    5   65 1    
    11    5  131 1    
    12    6    7 1    
    13    6  132 1    
    14    6  133 1    
    15    7    8 1    
    16    8    9 1    
    17    8  134 1    
    18    8  135 1    
    19    9   10 ar   
    20    9   14 ar   
    21   10   11 ar   
    22   10  136 1    
    23   11   12 ar   
    24   11  126 1    
    25   12   13 ar   
    26   12  137 1    
    27   13   14 ar   
    28   13   15 1    
    29   14  138 1    
    30   15   16 1    
    31   15  139 1    
    32   15  140 1    
    33   16   17 1    
    34   17   18 1    
    35   17  141 1    
    36   17  142 1    
    37   18   19 1    
    38   18   67 1    
    39   18  143 1    
    40   19   20 am   BACKBONE|DICT|INTERRES
    41   19  144 1    
    42   20   21 2    
    43   20   22 1    
    44   22   23 1    
    45   22   24 1    
    46   22  145 1    
    47   23  146 1    
    48   23  147 1    
    49   23  148 1    
    50   24   25 am   BACKBONE|DICT|INTERRES
    51   24  149 1    
    52   25   26 2    
    53   25   27 1    
    54   27   28 1    
    55   27   29 1    
    56   27  150 1    
    57   28  151 1    
    58   28  152 1    
    59   28  153 1    
    60   29   30 am   BACKBONE|DICT|INTERRES
    61   29  154 1    
    62   30   31 2    
    63   30   32 1    
    64   32   33 1    
    65   32   34 1    
    66   32  155 1    
    67   33  156 1    
    68   33  157 1    
    69   33  158 1    
    70   34   35 am   BACKBONE|DICT|INTERRES
    71   34  159 1    
    72   35   36 2    
    73   35   37 1    
    74   37   38 1    
    75   37   39 1    
    76   37  160 1    
    77   38  161 1    
    78   38  162 1    
    79   38  163 1    
    80   39   40 am   BACKBONE|DICT|INTERRES
    81   39  164 1    
    82   40   41 2    
    83   40   42 1    
    84   42   43 1    
    85   42   44 1    
    86   42  165 1    
    87   43  166 1    
    88   43  167 1    
    89   43  168 1    
    90   44   45 am   BACKBONE|DICT|INTERRES
    91   44  169 1    
    92   45   46 2    
    93   45   47 1    
    94   47   48 1    
    95   47   49 1    
    96   47  170 1    
    97   48  171 1    
    98   48  172 1    
    99   48  173 1    
   100   49   50 am   BACKBONE|DICT|INTERRES
   101   49  174 1    
   102   50   51 2    
   103   50   52 1    
   104   52   53 1    
   105   52   54 1    
   106   52  175 1    
   107   53  176 1    
   108   53  177 1    
   109   53  178 1    
   110   54   55 am   BACKBONE|DICT|INTERRES
   111   54  179 1    
   112   55   56 2    
   113   55   57 1    
   114   57   58 1    
   115   57   59 1    
   116   57  180 1    
   117   58  181 1    
   118   58  182 1    
   119   58  183 1    
   120   59   60 am   BACKBONE|DICT|INTERRES
   121   59  184 1    
   122   60   61 2    
   123   60   62 1    
   124   62   63 1    
   125   62   64 1    
   126   62  185 1    
   127   63  186 1    
   128   63  187 1    
   129   63  188 1    
   130   64   65 am   BACKBONE|DICT|INTERRES
   131   64  189 1    
   132   65   66 2    
   133   67   68 2    
   134   67   69 am   BACKBONE|DICT|INTERRES
   135   69   70 1    
   136   69  190 1    
   137   70   71 1    
   138   70   72 1    
   139   70  191 1    
   140   71  192 1    
   141   71  193 1    
   142   71  194 1    
   143   72   73 2    
   144   72   74 am   BACKBONE|DICT|INTERRES
   145   74   75 1    
   146   74  195 1    
   147   75   76 1    
   148   75   77 1    
   149   75  196 1    
   150   76  197 1    
   151   76  198 1    
   152   76  199 1    
   153   77   78 2    
   154   77   79 am   BACKBONE|DICT|INTERRES
   155   79   80 1    
   156   79  200 1    
   157   80   81 1    
   158   80   82 1    
   159   80  201 1    
   160   81  202 1    
   161   81  203 1    
   162   81  204 1    
   163   82   83 2    
   164   82   84 am   BACKBONE|DICT|INTERRES
   165   84   85 1    
   166   84  205 1    
   167   85   86 1    
   168   85   87 1    
   169   85  206 1    
   170   86  207 1    
   171   86  208 1    
   172   86  209 1    
   173   87   88 2    
   174   87   89 am   BACKBONE|DICT|INTERRES
   175   89   90 1    
   176   89  210 1    
   177   90   91 1    
   178   90   92 1    
   179   90  211 1    
   180   91  212 1    
   181   91  213 1    
   182   91  214 1    
   183   92   93 2    
   184   92   94 am   BACKBONE|DICT|INTERRES
   185   94   95 1    
   186   94  215 1    
   187   95   96 1    
   188   95   97 1    
   189   95  216 1    
   190   96  217 1    
   191   96  218 1    
   192   96  219 1    
   193   97   98 2    
   194   97   99 am   BACKBONE|DICT|INTERRES
   195   99  100 1    
   196   99  220 1    
   197  100  101 1    
   198  100  102 1    
   199  100  221 1    
   200  101  222 1    
   201  101  223 1    
   202  101  224 1    
   203  102  103 2    
   204  102  104 am   BACKBONE|DICT|INTERRES
   205  104  105 1    
   206  104  225 1    
   207  105  106 1    
   208  105  107 1    
   209  105  226 1    
   210  106  227 1    
   211  106  228 1    
   212  106  229 1    
   213  107  108 2    
   214  107  109 am   BACKBONE|DICT|INTERRES
   215  109  110 1    
   216  109  230 1    
   217  110  111 1    
   218  110  112 1    
   219  110  231 1    
   220  111  232 1    
   221  111  233 1    
   222  111  234 1    
   223  112  113 2    
   224  112  114 am   BACKBONE|DICT|INTERRES
   225  114  115 1    
   226  114  235 1    
   227  115  116 1    
   228  115  117 1    
   229  115  236 1    
   230  116  237 1    
   231  116  238 1    
   232  116  239 1    
   233  117  118 2    
   234  117  119 am   BACKBONE|DICT|INTERRES
   235  119  120 1    
   236  119  240 1    
   237  120  121 1    
   238  120  124 1    
   239  120  241 1    
   240  121  122 am   BACKBONE|DICT|INTERRES
   241  121  123 2    
   242  122  242 1    
   243  122  243 1    
   244  124  125 1    
   245  124  244 1    
   246  124  245 1    
   247  125  126 1    
   248  126  246 1    
   249  126  247 1    
@<TRIPOS>SUBSTRUCTURE
     1 UNK         1 GROUP             0       ****    0 ROOT    
