@<TRIPOS>MOLECULE
3R540
247   249    1
SMALL
USER_CHARGES


@<TRIPOS>ATOM
      1 CA          1.2355  -14.2216  -40.5941 C.3       0 UNK        -0.1800 
      2 C           0.9060  -13.1826  -41.6563 C.2       0 UNK         0.5000 
      3 O           1.1611  -11.9944  -41.4553 O.2       0 UNK        -0.5000 
      4 N           0.3442  -13.6241  -42.7885 N.am      1 UNK        -0.5000 
      5 CA         -0.0527  -12.7946  -43.9329 C.3       1 UNK         0.1400 
      6 C6         -1.1280  -13.4947  -44.8041 C.3       23 UNK        -0.0398 
      7 S7         -2.6572  -13.8002  -43.8595 S.3       23 UNK        -0.2404 
      8 C8         -3.9291  -13.6876  -45.1560 C.3       23 UNK        -0.0205 
      9 C9         -3.9441  -14.9104  -46.0625 C.ar      23 UNK        -0.0193 
     10 C10        -3.6302  -14.7917  -47.4197 C.ar      23 UNK        -0.1150 
     11 C11        -3.7117  -15.9017  -48.2666 C.ar      23 UNK        -0.0193 
     12 C12        -4.0903  -17.1396  -47.7390 C.ar      23 UNK        -0.1150 
     13 C13        -4.3713  -17.2834  -46.3751 C.ar      23 UNK        -0.0193 
     14 C14        -4.3081  -16.1586  -45.5476 C.ar      23 UNK        -0.1150 
     15 C15        -4.7502  -18.6402  -45.7861 C.3       23 UNK        -0.0205 
     16 S16        -3.6387  -19.9669  -46.3493 S.3       23 UNK        -0.2404 
     17 C17        -3.8485  -21.2449  -45.0653 C.3       23 UNK        -0.0398 
     18 CA         -3.1436  -22.5490  -45.5019 C.3       11 UNK         0.1400 
     19 N          -1.7003  -22.3729  -45.7268 N.am      11 UNK        -0.5000 
     20 C          -0.9001  -23.2395  -46.3644 C.2       10 UNK         0.5000 
     21 O          -1.3009  -24.3084  -46.8256 O.2       10 UNK        -0.5000 
     22 CA          0.5829  -22.8662  -46.5151 C.3       10 UNK         0.1400 
     23 CB          0.8491  -22.3127  -47.9231 C.3       10 UNK        -0.1800 
     24 N           1.0107  -21.8885  -45.5149 N.am      10 UNK        -0.5000 
     25 C           1.3731  -22.1950  -44.2609 C.2       9 UNK         0.5000 
     26 O           1.4229  -23.3474  -43.8306 O.2       9 UNK        -0.5000 
     27 CA          1.7143  -21.0213  -43.3206 C.3       9 UNK         0.1400 
     28 CB          3.2151  -20.7013  -43.3822 C.3       9 UNK        -0.1800 
     29 N           0.9510  -19.8085  -43.6200 N.am      9 UNK        -0.5000 
     30 C          -0.3700  -19.6806  -43.4222 C.2       8 UNK         0.5000 
     31 O          -1.0659  -20.5538  -42.9038 O.2       8 UNK        -0.5000 
     32 CA         -1.0412  -18.3843  -43.9232 C.3       8 UNK         0.1400 
     33 CB         -1.1405  -17.3616  -42.7826 C.3       8 UNK        -0.1800 
     34 N          -0.3748  -17.7573  -45.0677 N.am      8 UNK        -0.5000 
     35 C          -0.0860  -18.3522  -46.2346 C.2       7 UNK         0.5000 
     36 O          -0.3642  -19.5211  -46.4924 O.2       7 UNK        -0.5000 
     37 CA          0.7160  -17.5306  -47.2599 C.3       7 UNK         0.1400 
     38 CB         -0.2428  -16.8628  -48.2527 C.3       7 UNK        -0.1800 
     39 N           1.5988  -16.5134  -46.6751 N.am      7 UNK        -0.5000 
     40 C           2.5550  -16.7327  -45.7584 C.2       6 UNK         0.5000 
     41 O           2.7757  -17.8338  -45.2502 O.2       6 UNK        -0.5000 
     42 CA          3.3610  -15.4973  -45.3129 C.3       6 UNK         0.1400 
     43 CB          4.6443  -15.8476  -44.5313 C.3       6 UNK        -0.1800 
     44 N           3.6351  -14.5694  -46.4159 N.am      6 UNK        -0.5000 
     45 C           4.4269  -14.7759  -47.4796 C.2       5 UNK         0.5000 
     46 O           5.0538  -15.8176  -47.6789 O.2       5 UNK        -0.5000 
     47 CA          4.5409  -13.6008  -48.4748 C.3       5 UNK         0.1400 
     48 CB          5.1721  -14.0014  -49.8253 C.3       5 UNK        -0.1800 
     49 N           3.2738  -12.8879  -48.6726 N.am      5 UNK        -0.5000 
     50 C           2.1430  -13.3711  -49.2128 C.2       4 UNK         0.5000 
     51 O           2.0357  -14.5192  -49.6419 O.2       4 UNK        -0.5000 
     52 CA          0.9228  -12.4265  -49.2689 C.3       4 UNK         0.1400 
     53 CB         -0.3800  -13.1622  -48.9078 C.3       4 UNK        -0.1800 
     54 N           1.0837  -11.2953  -48.3567 N.am      4 UNK        -0.5000 
     55 C           1.3754  -10.0360  -48.7075 C.2       3 UNK         0.5000 
     56 O           1.4757   -9.6557  -49.8742 O.2       3 UNK        -0.5000 
     57 CA          1.6221   -9.0319  -47.5605 C.3       3 UNK         0.1400 
     58 CB          0.3661   -8.1821  -47.3145 C.3       3 UNK        -0.1800 
     59 N           2.0198   -9.6638  -46.2983 N.am      3 UNK        -0.5000 
     60 C           3.1574  -10.3445  -46.0992 C.2       2 UNK         0.5000 
     61 O           4.0310  -10.4792  -46.9558 O.2       2 UNK        -0.5000 
     62 CA          3.3086  -11.0614  -44.7436 C.3       2 UNK         0.1400 
     63 CB          4.0067  -10.1491  -43.7253 C.3       2 UNK        -0.1800 
     64 N           2.0427  -11.5377  -44.1750 N.am      2 UNK        -0.5000 
     65 C           1.1856  -12.3861  -44.7578 C.2       1 UNK         0.5000 
     66 O           1.3645  -12.8576  -45.8825 O.2       1 UNK        -0.5000 
     67 C          -3.4734  -23.7461  -44.5850 C.2       11 UNK         0.5000 
     68 O          -4.5681  -24.2996  -44.6894 O.2       11 UNK        -0.5000 
     69 N          -2.4970  -24.1868  -43.7789 N.am      12 UNK        -0.5000 
     70 CA         -2.5285  -25.4429  -43.0260 C.3       12 UNK         0.1400 
     71 CB         -1.3594  -25.4453  -42.0294 C.3       12 UNK        -0.1800 
     72 C          -2.4750  -26.7027  -43.9212 C.2       12 UNK         0.5000 
     73 O          -2.9011  -27.7703  -43.4805 O.2       12 UNK        -0.5000 
     74 N          -1.9721  -26.5595  -45.1554 N.am      13 UNK        -0.5000 
     75 CA         -1.8633  -27.6015  -46.1771 C.3       13 UNK         0.1400 
     76 CB         -0.3917  -27.7080  -46.6175 C.3       13 UNK        -0.1800 
     77 C          -2.8057  -27.2918  -47.3580 C.2       13 UNK         0.5000 
     78 O          -2.4320  -27.4782  -48.5187 O.2       13 UNK        -0.5000 
     79 N          -4.0086  -26.7871  -47.0404 N.am      14 UNK        -0.5000 
     80 CA         -5.0837  -26.4129  -47.9688 C.3       14 UNK         0.1400 
     81 CB         -5.6694  -27.6659  -48.6534 C.3       14 UNK        -0.1800 
     82 C          -4.6601  -25.3245  -48.9775 C.2       14 UNK         0.5000 
     83 O          -5.0445  -25.3780  -50.1456 O.2       14 UNK        -0.5000 
     84 N          -3.8420  -24.3744  -48.5051 N.am      15 UNK        -0.5000 
     85 CA         -3.2222  -23.2794  -49.2590 C.3       15 UNK         0.1400 
     86 CB         -4.2840  -22.3010  -49.7925 C.3       15 UNK        -0.1800 
     87 C          -2.2665  -23.8153  -50.3376 C.2       15 UNK         0.5000 
     88 O          -2.3351  -23.3897  -51.4899 O.2       15 UNK        -0.5000 
     89 N          -1.4238  -24.7796  -49.9352 N.am      16 UNK        -0.5000 
     90 CA         -0.5201  -25.5728  -50.7765 C.3       16 UNK         0.1400 
     91 CB          0.6374  -24.7019  -51.3115 C.3       16 UNK        -0.1800 
     92 C          -1.2816  -26.3145  -51.8952 C.2       16 UNK         0.5000 
     93 O          -0.8938  -26.2414  -53.0613 O.2       16 UNK        -0.5000 
     94 N          -2.3915  -26.9678  -51.5181 N.am      17 UNK        -0.5000 
     95 CA         -3.3824  -27.5921  -52.4052 C.3       17 UNK         0.1400 
     96 CB         -2.8025  -28.8617  -53.0617 C.3       17 UNK        -0.1800 
     97 C          -3.9643  -26.5870  -53.4268 C.2       17 UNK         0.5000 
     98 O          -3.9783  -26.8486  -54.6307 O.2       17 UNK        -0.5000 
     99 N          -4.4021  -25.4351  -52.9025 N.am      18 UNK        -0.5000 
    100 CA        -4.9760  -24.2688  -53.5798 C.3       18 UNK         0.1400 
    101 CB        -6.2746  -24.6437  -54.3222 C.3       18 UNK        -0.1800 
    102 C         -4.0057  -23.4658  -54.4751 C.2       18 UNK         0.5000 
    103 O         -4.4478  -22.5154  -55.1225 O.2       18 UNK        -0.5000 
    104 N         -2.7104  -23.8100  -54.4928 N.am      19 UNK        -0.5000 
    105 CA        -1.6868  -23.1164  -55.2805 C.3       19 UNK         0.1400 
    106 CB        -0.4349  -23.9993  -55.3823 C.3       19 UNK        -0.1800 
    107 C         -1.3155  -21.7270  -54.7245 C.2       19 UNK         0.5000 
    108 O         -0.9010  -20.8626  -55.4976 O.2       19 UNK        -0.5000 
    109 N         -1.4672  -21.5365  -53.4085 N.am      20 UNK        -0.5000 
    110 CA        -1.1490  -20.3086  -52.6776 C.3       20 UNK         0.1400 
    111 CB        -0.1225  -20.6455  -51.5788 C.3       20 UNK        -0.1800 
    112 C         -2.4157  -19.6528  -52.0919 C.2       20 UNK         0.5000 
    113 O         -2.3132  -18.8868  -51.1335 O.2       20 UNK        -0.5000 
    114 N         -3.5913  -19.9796  -52.6469 N.am      21 UNK        -0.5000 
    115 CA        -4.8909  -19.4720  -52.2065 C.3       21 UNK         0.1400 
    116 CB        -6.0005  -20.3089  -52.8612 C.3       21 UNK        -0.1800 
    117 C         -5.0925  -17.9758  -52.5121 C.2       21 UNK         0.5000 
    118 O         -4.5774  -17.4700  -53.5122 O.2       21 UNK        -0.5000 
    119 N         -5.8826  -17.3220  -51.6563 N.am      22 UNK        -0.5000 
    120 CA        -6.3631  -15.9423  -51.7992 C.3       22 UNK         0.1400 
    121 C         -7.9025  -15.9553  -51.9911 C.2       22 UNK         0.5000 
    122 N         -8.4379  -15.0763  -52.8269 N.am      22 UNK        -0.7600 
    123 O         -8.6212  -16.7314  -51.3639 O.2       22 UNK        -0.5000 
    124 C124       -5.9823  -15.0848  -50.5633 C.3       23 UNK        -0.0398 
    125 S125       -4.2617  -14.4837  -50.6287 S.3       23 UNK        -0.2404 
    126 C126       -3.3514  -15.7887  -49.7431 C.3       23 UNK        -0.0205 
    127 H127        0.7095  -13.9902  -39.6680 H         1 UNK         0.0600 
    128 H128        2.3060  -14.2211  -40.3891 H         1 UNK         0.0600 
    129 H129        0.9493  -15.2264  -40.9055 H         1 UNK         0.0600 
    130 H130        0.1429  -14.6078  -42.8784 H         1 UNK         0.3000 
    131 H131       -0.4935  -11.8704  -43.5525 H         1 UNK         0.0600 
    132 H132       -0.7637  -14.4446  -45.1985 H         1 UNK         0.0800 
    133 H133       -1.3720  -12.8761  -45.6696 H         1 UNK         0.0800 
    134 H134       -4.9051  -13.5979  -44.6774 H         1 UNK         0.0800 
    135 H135       -3.7895  -12.7708  -45.7309 H         1 UNK         0.0800 
    136 H136       -3.3371  -13.8331  -47.8241 H         1 UNK         0.1150 
    137 H137       -4.1416  -18.0023  -48.3884 H         1 UNK         0.1150 
    138 H138       -4.5416  -16.2497  -44.4960 H         1 UNK         0.1150 
    139 H139       -4.7241  -18.5982  -44.6961 H         1 UNK         0.0800 
    140 H140       -5.7751  -18.8831  -46.0686 H         1 UNK         0.0800 
    141 H141       -4.9170  -21.4122  -44.9178 H         1 UNK         0.0800 
    142 H142       -3.4508  -20.8810  -44.1174 H         1 UNK         0.0800 
    143 H143       -3.5816  -22.8066  -46.4626 H         1 UNK         0.0600 
    144 H144       -1.3079  -21.4876  -45.4354 H         1 UNK         0.3000 
    145 H145        1.1673  -23.7811  -46.3963 H         1 UNK         0.0600 
    146 H146        0.2672  -21.4146  -48.1290 H         1 UNK         0.0600 
    147 H147        1.9028  -22.0709  -48.0616 H         1 UNK         0.0600 
    148 H148        0.5808  -23.0468  -48.6811 H         1 UNK         0.0600 
    149 H149        0.9125  -20.9138  -45.7772 H         1 UNK         0.3000 
    150 H150        1.4740  -21.3318  -42.3015 H         1 UNK         0.0600 
    151 H151        3.8120  -21.5750  -43.1175 H         1 UNK         0.0600 
    152 H152        3.4781  -19.9042  -42.6865 H         1 UNK         0.0600 
    153 H153        3.5184  -20.3866  -44.3816 H         1 UNK         0.0600 
    154 H154        1.4556  -19.0590  -44.0808 H         1 UNK         0.3000 
    155 H155       -2.0534  -18.6410  -44.2367 H         1 UNK         0.0600 
    156 H156       -1.6436  -17.7909  -41.9151 H         1 UNK         0.0600 
    157 H157       -1.7170  -16.4894  -43.0873 H         1 UNK         0.0600 
    158 H158       -0.1558  -17.0243  -42.4577 H         1 UNK         0.0600 
    159 H159       -0.0899  -16.7984  -44.9527 H         1 UNK         0.3000 
    160 H160        1.3463  -18.2312  -47.8111 H         1 UNK         0.0600 
    161 H161       -0.8336  -16.0836  -47.7708 H         1 UNK         0.0600 
    162 H162       -0.9389  -17.5890  -48.6764 H         1 UNK         0.0600 
    163 H163        0.2965  -16.4148  -49.0859 H         1 UNK         0.0600 
    164 H164        1.5155  -15.5811  -47.0545 H         1 UNK         0.3000 
    165 H165        2.7115  -14.9600  -44.6218 H         1 UNK         0.0600 
    166 H166        5.3259  -16.4623  -45.1195 H         1 UNK         0.0600 
    167 H167        5.1789  -14.9477  -44.2274 H         1 UNK         0.0600 
    168 H168        4.4074  -16.4049  -43.6242 H         1 UNK         0.0600 
    169 H169        3.0913  -13.7135  -46.3920 H         1 UNK         0.3000 
    170 H170        5.2154  -12.8829  -48.0060 H         1 UNK         0.0600 
    171 H171        4.5955  -14.7762  -50.3311 H         1 UNK         0.0600 
    172 H172        5.2450  -13.1451  -50.4957 H         1 UNK         0.0600 
    173 H173        6.1820  -14.3880  -49.6842 H         1 UNK         0.0600 
    174 H174        3.2666  -11.9338  -48.3320 H         1 UNK         0.3000 
    175 H175        0.8384  -12.0755  -50.2990 H         1 UNK         0.0600 
    176 H176       -0.3305  -13.6088  -47.9147 H         1 UNK         0.0600 
    177 H177       -1.2354  -12.4870  -48.9299 H         1 UNK         0.0600 
    178 H178       -0.5841  -13.9619  -49.6195 H         1 UNK         0.0600 
    179 H179        1.0654  -11.5364  -47.3723 H         1 UNK         0.3000 
    180 H180        2.4307   -8.3685  -47.8743 H         1 UNK         0.0600 
    181 H181        0.0556   -7.6700  -48.2262 H         1 UNK         0.0600 
    182 H182        0.5486   -7.4165  -46.5602 H         1 UNK         0.0600 
    183 H183       -0.4732   -8.7927  -46.9789 H         1 UNK         0.0600 
    184 H184        1.3588   -9.6091  -45.5373 H         1 UNK         0.3000 
    185 H185        3.9426  -11.9352  -44.9066 H         1 UNK         0.0600 
    186 H186        4.2034  -10.6781  -42.7925 H         1 UNK         0.0600 
    187 H187        4.9663   -9.7976  -44.1071 H         1 UNK         0.0600 
    188 H188        3.4033   -9.2710  -43.4921 H         1 UNK         0.0600 
    189 H189        1.8449  -11.2677  -43.2165 H         1 UNK         0.3000 
    190 H190       -1.6294  -23.6696  -43.7554 H         1 UNK         0.3000 
    191 H191       -3.4625  -25.4793  -42.4616 H         1 UNK         0.0600 
    192 H192       -0.3966  -25.3906  -42.5396 H         1 UNK         0.0600 
    193 H193       -1.4236  -24.6004  -41.3434 H         1 UNK         0.0600 
    194 H194       -1.3607  -26.3539  -41.4257 H         1 UNK         0.0600 
    195 H195       -1.6807  -25.6377  -45.4635 H         1 UNK         0.3000 
    196 H196       -2.1680  -28.5690  -45.7739 H         1 UNK         0.0600 
    197 H197        0.2577  -27.9224  -45.7687 H         1 UNK         0.0600 
    198 H198       -0.0422  -26.7846  -47.0811 H         1 UNK         0.0600 
    199 H199       -0.2546  -28.5127  -47.3408 H         1 UNK         0.0600 
    200 H200       -4.2086  -26.6382  -46.0606 H         1 UNK         0.3000 
    201 H201       -5.8735  -25.9688  -47.3613 H         1 UNK         0.0600 
    202 H202       -6.5449  -27.4125  -49.2523 H         1 UNK         0.0600 
    203 H203       -5.9853  -28.4050  -47.9172 H         1 UNK         0.0600 
    204 H204       -4.9469  -28.1421  -49.3167 H         1 UNK         0.0600 
    205 H205       -3.5106  -24.4871  -47.5576 H         1 UNK         0.3000 
    206 H206       -2.6003  -22.7119  -48.5695 H         1 UNK         0.0600 
    207 H207       -4.9404  -21.9567  -48.9935 H         1 UNK         0.0600 
    208 H208       -4.9030  -22.7445  -50.5713 H         1 UNK         0.0600 
    209 H209       -3.8013  -21.4212  -50.2122 H         1 UNK         0.0600 
    210 H210       -1.4684  -25.0594  -48.9629 H         1 UNK         0.3000 
    211 H211       -0.0896  -26.3434  -50.1354 H         1 UNK         0.0600 
    212 H212        1.2237  -24.2785  -50.4980 H         1 UNK         0.0600 
    213 H213        1.3225  -25.2925  -51.9206 H         1 UNK         0.0600 
    214 H214        0.2778  -23.8794  -51.9301 H         1 UNK         0.0600 
    215 H215       -2.6059  -26.9927  -50.5259 H         1 UNK         0.3000 
    216 H216       -4.2141  -27.8997  -51.7699 H         1 UNK         0.0600 
    217 H217       -3.5658  -29.3847  -53.6389 H         1 UNK         0.0600 
    218 H218       -1.9812  -28.6302  -53.7406 H         1 UNK         0.0600 
    219 H219       -2.4301  -29.5577  -52.3102 H         1 UNK         0.0600 
    220 H220       -4.3771  -25.3518  -51.8882 H         1 UNK         0.3000 
    221 H221       -5.2526  -23.5904  -52.7739 H         1 UNK         0.0600 
    222 H222       -6.0787  -25.2754  -55.1889 H         1 UNK         0.0600 
    223 H223       -6.9642  -25.1753  -53.6664 H         1 UNK         0.0600 
    224 H224       -6.7925  -23.7531  -54.6799 H         1 UNK         0.0600 
    225 H225       -2.3999  -24.5761  -53.9089 H         1 UNK         0.3000 
    226 H226       -2.0778  -22.9735  -56.2901 H         1 UNK         0.0600 
    227 H227       -0.6765  -24.9872  -55.7752 H         1 UNK         0.0600 
    228 H228        0.3029  -23.5535  -56.0503 H         1 UNK         0.0600 
    229 H229        0.0428  -24.1311  -54.4112 H         1 UNK         0.0600 
    230 H230       -1.8297  -22.3012  -52.8389 H         1 UNK         0.3000 
    231 H231       -0.6979  -19.5723  -53.3452 H         1 UNK         0.0600 
    232 H232        0.2117  -19.7454  -51.0612 H         1 UNK         0.0600 
    233 H233        0.7624  -21.1237  -51.9989 H         1 UNK         0.0600 
    234 H234       -0.5409  -21.3174  -50.8292 H         1 UNK         0.0600 
    235 H235       -3.5889  -20.5908  -53.4508 H         1 UNK         0.3000 
    236 H236       -4.9558  -19.6049  -51.1249 H         1 UNK         0.0600 
    237 H237       -5.9341  -21.3533  -52.5606 H         1 UNK         0.0600 
    238 H238       -6.9888  -19.9525  -52.5679 H         1 UNK         0.0600 
    239 H239       -5.9461  -20.2675  -53.9499 H         1 UNK         0.0600 
    240 H240       -6.3201  -17.8387  -50.9066 H         1 UNK         0.3000 
    241 H241       -5.9269  -15.4857  -52.6901 H         1 UNK         0.0600 
    242 H242       -9.4387  -15.0657  -52.9511 H         1 UNK         0.3800 
    243 H243       -7.8702  -14.4228  -53.3450 H         1 UNK         0.3800 
    244 H244       -6.6070  -14.1911  -50.5078 H         1 UNK         0.0800 
    245 H245       -6.1616  -15.6272  -49.6337 H         1 UNK         0.0800 
    246 H246       -2.2851  -15.5851  -49.8293 H         1 UNK         0.0800 
    247 H247       -3.5160  -16.7366  -50.2532 H         1 UNK         0.0800 
@<TRIPOS>BOND
     1    1    2 1    
     2    1  127 1    
     3    1  128 1    
     4    1  129 1    
     5    2    3 2    
     6    2    4 am   BACKBONE|DICT|INTERRES
     7    4    5 1    
     8    4  130 1    
     9    5    6 1    
    10    5   65 1    
    11    5  131 1    
    12    6    7 1    
    13    6  132 1    
    14    6  133 1    
    15    7    8 1    
    16    8    9 1    
    17    8  134 1    
    18    8  135 1    
    19    9   10 ar   
    20    9   14 ar   
    21   10   11 ar   
    22   10  136 1    
    23   11   12 ar   
    24   11  126 1    
    25   12   13 ar   
    26   12  137 1    
    27   13   14 ar   
    28   13   15 1    
    29   14  138 1    
    30   15   16 1    
    31   15  139 1    
    32   15  140 1    
    33   16   17 1    
    34   17   18 1    
    35   17  141 1    
    36   17  142 1    
    37   18   19 1    
    38   18   67 1    
    39   18  143 1    
    40   19   20 am   BACKBONE|DICT|INTERRES
    41   19  144 1    
    42   20   21 2    
    43   20   22 1    
    44   22   23 1    
    45   22   24 1    
    46   22  145 1    
    47   23  146 1    
    48   23  147 1    
    49   23  148 1    
    50   24   25 am   BACKBONE|DICT|INTERRES
    51   24  149 1    
    52   25   26 2    
    53   25   27 1    
    54   27   28 1    
    55   27   29 1    
    56   27  150 1    
    57   28  151 1    
    58   28  152 1    
    59   28  153 1    
    60   29   30 am   BACKBONE|DICT|INTERRES
    61   29  154 1    
    62   30   31 2    
    63   30   32 1    
    64   32   33 1    
    65   32   34 1    
    66   32  155 1    
    67   33  156 1    
    68   33  157 1    
    69   33  158 1    
    70   34   35 am   BACKBONE|DICT|INTERRES
    71   34  159 1    
    72   35   36 2    
    73   35   37 1    
    74   37   38 1    
    75   37   39 1    
    76   37  160 1    
    77   38  161 1    
    78   38  162 1    
    79   38  163 1    
    80   39   40 am   BACKBONE|DICT|INTERRES
    81   39  164 1    
    82   40   41 2    
    83   40   42 1    
    84   42   43 1    
    85   42   44 1    
    86   42  165 1    
    87   43  166 1    
    88   43  167 1    
    89   43  168 1    
    90   44   45 am   BACKBONE|DICT|INTERRES
    91   44  169 1    
    92   45   46 2    
    93   45   47 1    
    94   47   48 1    
    95   47   49 1    
    96   47  170 1    
    97   48  171 1    
    98   48  172 1    
    99   48  173 1    
   100   49   50 am   BACKBONE|DICT|INTERRES
   101   49  174 1    
   102   50   51 2    
   103   50   52 1    
   104   52   53 1    
   105   52   54 1    
   106   52  175 1    
   107   53  176 1    
   108   53  177 1    
   109   53  178 1    
   110   54   55 am   BACKBONE|DICT|INTERRES
   111   54  179 1    
   112   55   56 2    
   113   55   57 1    
   114   57   58 1    
   115   57   59 1    
   116   57  180 1    
   117   58  181 1    
   118   58  182 1    
   119   58  183 1    
   120   59   60 am   BACKBONE|DICT|INTERRES
   121   59  184 1    
   122   60   61 2    
   123   60   62 1    
   124   62   63 1    
   125   62   64 1    
   126   62  185 1    
   127   63  186 1    
   128   63  187 1    
   129   63  188 1    
   130   64   65 am   BACKBONE|DICT|INTERRES
   131   64  189 1    
   132   65   66 2    
   133   67   68 2    
   134   67   69 am   BACKBONE|DICT|INTERRES
   135   69   70 1    
   136   69  190 1    
   137   70   71 1    
   138   70   72 1    
   139   70  191 1    
   140   71  192 1    
   141   71  193 1    
   142   71  194 1    
   143   72   73 2    
   144   72   74 am   BACKBONE|DICT|INTERRES
   145   74   75 1    
   146   74  195 1    
   147   75   76 1    
   148   75   77 1    
   149   75  196 1    
   150   76  197 1    
   151   76  198 1    
   152   76  199 1    
   153   77   78 2    
   154   77   79 am   BACKBONE|DICT|INTERRES
   155   79   80 1    
   156   79  200 1    
   157   80   81 1    
   158   80   82 1    
   159   80  201 1    
   160   81  202 1    
   161   81  203 1    
   162   81  204 1    
   163   82   83 2    
   164   82   84 am   BACKBONE|DICT|INTERRES
   165   84   85 1    
   166   84  205 1    
   167   85   86 1    
   168   85   87 1    
   169   85  206 1    
   170   86  207 1    
   171   86  208 1    
   172   86  209 1    
   173   87   88 2    
   174   87   89 am   BACKBONE|DICT|INTERRES
   175   89   90 1    
   176   89  210 1    
   177   90   91 1    
   178   90   92 1    
   179   90  211 1    
   180   91  212 1    
   181   91  213 1    
   182   91  214 1    
   183   92   93 2    
   184   92   94 am   BACKBONE|DICT|INTERRES
   185   94   95 1    
   186   94  215 1    
   187   95   96 1    
   188   95   97 1    
   189   95  216 1    
   190   96  217 1    
   191   96  218 1    
   192   96  219 1    
   193   97   98 2    
   194   97   99 am   BACKBONE|DICT|INTERRES
   195   99  100 1    
   196   99  220 1    
   197  100  101 1    
   198  100  102 1    
   199  100  221 1    
   200  101  222 1    
   201  101  223 1    
   202  101  224 1    
   203  102  103 2    
   204  102  104 am   BACKBONE|DICT|INTERRES
   205  104  105 1    
   206  104  225 1    
   207  105  106 1    
   208  105  107 1    
   209  105  226 1    
   210  106  227 1    
   211  106  228 1    
   212  106  229 1    
   213  107  108 2    
   214  107  109 am   BACKBONE|DICT|INTERRES
   215  109  110 1    
   216  109  230 1    
   217  110  111 1    
   218  110  112 1    
   219  110  231 1    
   220  111  232 1    
   221  111  233 1    
   222  111  234 1    
   223  112  113 2    
   224  112  114 am   BACKBONE|DICT|INTERRES
   225  114  115 1    
   226  114  235 1    
   227  115  116 1    
   228  115  117 1    
   229  115  236 1    
   230  116  237 1    
   231  116  238 1    
   232  116  239 1    
   233  117  118 2    
   234  117  119 am   BACKBONE|DICT|INTERRES
   235  119  120 1    
   236  119  240 1    
   237  120  121 1    
   238  120  124 1    
   239  120  241 1    
   240  121  122 am   BACKBONE|DICT|INTERRES
   241  121  123 2    
   242  122  242 1    
   243  122  243 1    
   244  124  125 1    
   245  124  244 1    
   246  124  245 1    
   247  125  126 1    
   248  126  246 1    
   249  126  247 1    
@<TRIPOS>SUBSTRUCTURE
     1 UNK         1 GROUP             0       ****    0 ROOT    
