@<TRIPOS>MOLECULE
3R540
247   249    1
SMALL
USER_CHARGES


@<TRIPOS>ATOM
      1 CA          7.0102  -15.8335  -45.0047 C.3       0 UNK        -0.1800 
      2 C           5.9368  -14.7973  -44.7042 C.2       0 UNK         0.5000 
      3 O           5.6914  -14.4918  -43.5378 O.2       0 UNK        -0.5000 
      4 N           5.2959  -14.2570  -45.7485 N.am      1 UNK        -0.5000 
      5 CA          4.3571  -13.1348  -45.6551 C.3       1 UNK         0.1400 
      6 C6          3.5484  -12.9324  -46.9606 C.3       23 UNK        -0.0398 
      7 S7          2.5177  -14.3715  -47.4188 S.3       23 UNK        -0.2404 
      8 C8          3.3355  -14.9136  -48.9565 C.3       23 UNK        -0.0205 
      9 C9          2.4712  -15.8526  -49.7894 C.ar      23 UNK        -0.0193 
     10 C10         1.3780  -15.3385  -50.4912 C.ar      23 UNK        -0.1150 
     11 C11         0.6288  -16.1529  -51.3435 C.ar      23 UNK        -0.0193 
     12 C12         0.9763  -17.4996  -51.4887 C.ar      23 UNK        -0.1150 
     13 C13         2.0698  -18.0308  -50.7976 C.ar      23 UNK        -0.0193 
     14 C14         2.8067  -17.2039  -49.9394 C.ar      23 UNK        -0.1150 
     15 C15         2.5196  -19.4634  -51.0662 C.3       23 UNK        -0.0205 
     16 S16         2.2250  -20.5982  -49.6745 S.3       23 UNK        -0.2404 
     17 C17         0.4388  -20.9528  -49.8039 C.3       23 UNK        -0.0398 
     18 CA          0.0167  -22.1341  -48.8901 C.3       11 UNK         0.1400 
     19 N           0.2197  -21.8483  -47.4648 N.am      11 UNK        -0.5000 
     20 C           0.0791  -22.7306  -46.4653 C.2       10 UNK         0.5000 
     21 O          -0.2000  -23.9159  -46.6357 O.2       10 UNK        -0.5000 
     22 CA          0.2166  -22.1916  -45.0294 C.3       10 UNK         0.1400 
     23 CB          1.6906  -22.0789  -44.6114 C.3       10 UNK        -0.1800 
     24 N          -0.4563  -20.9035  -44.8572 N.am      10 UNK        -0.5000 
     25 C          -1.7868  -20.7407  -44.8930 C.2       9 UNK         0.5000 
     26 O          -2.5830  -21.6702  -45.0219 O.2       9 UNK        -0.5000 
     27 CA         -2.3166  -19.2963  -44.8215 C.3       9 UNK         0.1400 
     28 CB         -2.3955  -18.8119  -43.3665 C.3       9 UNK        -0.1800 
     29 N          -1.5045  -18.3638  -45.6008 N.am      9 UNK        -0.5000 
     30 C          -1.3667  -18.4070  -46.9337 C.2       8 UNK         0.5000 
     31 O          -1.9644  -19.1978  -47.6632 O.2       8 UNK        -0.5000 
     32 CA         -0.3418  -17.4364  -47.5435 C.3       8 UNK         0.1400 
     33 CB         -0.9957  -16.0687  -47.7700 C.3       8 UNK        -0.1800 
     34 N           0.8620  -17.2940  -46.7173 N.am      8 UNK        -0.5000 
     35 C           1.6874  -18.3074  -46.4157 C.2       7 UNK         0.5000 
     36 O           1.5014  -19.4597  -46.7907 O.2       7 UNK        -0.5000 
     37 CA          2.8829  -18.0260  -45.4935 C.3       7 UNK         0.1400 
     38 CB          4.1432  -17.6900  -46.2984 C.3       7 UNK        -0.1800 
     39 N           2.6024  -16.9843  -44.5063 N.am      7 UNK        -0.5000 
     40 C           1.8058  -17.1831  -43.4465 C.2       6 UNK         0.5000 
     41 O           1.2640  -18.2599  -43.1927 O.2       6 UNK        -0.5000 
     42 CA          1.5419  -15.9703  -42.5376 C.3       6 UNK         0.1400 
     43 CB          2.6897  -15.7771  -41.5361 C.3       6 UNK        -0.1800 
     44 N           1.3267  -14.7222  -43.2711 N.am      6 UNK        -0.5000 
     45 C           0.3226  -14.4938  -44.1276 C.2       5 UNK         0.5000 
     46 O          -0.4996  -15.3515  -44.4523 O.2       5 UNK        -0.5000 
     47 CA          0.2076  -13.0510  -44.6632 C.3       5 UNK         0.1400 
     48 CB         -0.9335  -12.8655  -45.6773 C.3       5 UNK        -0.1800 
     49 N           0.0182  -12.1037  -43.5641 N.am      5 UNK        -0.5000 
     50 C           1.0044  -11.5936  -42.8209 C.2       4 UNK         0.5000 
     51 O           2.1973  -11.8698  -42.9934 O.2       4 UNK        -0.5000 
     52 CA          0.5922  -10.6538  -41.6795 C.3       4 UNK         0.1400 
     53 CB          0.3290  -11.4525  -40.3936 C.3       4 UNK        -0.1800 
     54 N           1.6967   -9.7333  -41.4536 N.am      4 UNK        -0.5000 
     55 C           1.6328   -8.3988  -41.5064 C.2       3 UNK         0.5000 
     56 O           0.5813   -7.7584  -41.5394 O.2       3 UNK        -0.5000 
     57 CA          2.9841   -7.6564  -41.5722 C.3       3 UNK         0.1400 
     58 CB          3.4176   -7.1983  -40.1714 C.3       3 UNK        -0.1800 
     59 N           4.0557   -8.4663  -42.1656 N.am      3 UNK        -0.5000 
     60 C           4.0859   -8.8880  -43.4387 C.2       2 UNK         0.5000 
     61 O           3.2405   -8.5742  -44.2787 O.2       2 UNK        -0.5000 
     62 CA          5.2209   -9.8408  -43.8458 C.3       2 UNK         0.1400 
     63 CB          6.2336  -10.1579  -42.7242 C.3       2 UNK        -0.1800 
     64 N           4.6226  -11.0815  -44.3308 N.am      2 UNK        -0.5000 
     65 C           5.1309  -11.8463  -45.3003 C.2       1 UNK         0.5000 
     66 O           6.1653  -11.5735  -45.9158 O.2       1 UNK        -0.5000 
     67 C          -1.4329  -22.5781  -49.1813 C.2       11 UNK         0.5000 
     68 O          -1.6342  -23.5241  -49.9440 O.2       11 UNK        -0.5000 
     69 N          -2.4115  -21.9238  -48.5380 N.am      12 UNK        -0.5000 
     70 CA         -3.8229  -22.3039  -48.5718 C.3       12 UNK         0.1400 
     71 CB         -4.6823  -21.2014  -47.9367 C.3       12 UNK        -0.1800 
     72 C          -4.0833  -23.6678  -47.9114 C.2       12 UNK         0.5000 
     73 O          -4.7490  -24.5094  -48.5153 O.2       12 UNK        -0.5000 
     74 N          -3.5311  -23.8750  -46.7073 N.am      13 UNK        -0.5000 
     75 CA         -3.6503  -25.1151  -45.9373 C.3       13 UNK         0.1400 
     76 CB         -3.0390  -24.9217  -44.5420 C.3       13 UNK        -0.1800 
     77 C          -3.0246  -26.3322  -46.6418 C.2       13 UNK         0.5000 
     78 O          -3.6362  -27.4004  -46.6553 O.2       13 UNK        -0.5000 
     79 N          -1.8485  -26.1435  -47.2567 N.am      14 UNK        -0.5000 
     80 CA         -1.1381  -27.1568  -48.0435 C.3       14 UNK         0.1400 
     81 CB          0.2409  -26.6115  -48.4442 C.3       14 UNK        -0.1800 
     82 C          -1.9161  -27.6170  -49.2916 C.2       14 UNK         0.5000 
     83 O          -1.8094  -28.7797  -49.6826 O.2       14 UNK        -0.5000 
     84 N          -2.7062  -26.7049  -49.8699 N.am      15 UNK        -0.5000 
     85 CA         -3.6093  -26.9566  -50.9919 C.3       15 UNK         0.1400 
     86 CB         -3.6920  -25.6726  -51.8290 C.3       15 UNK        -0.1800 
     87 C          -5.0169  -27.4014  -50.5419 C.2       15 UNK         0.5000 
     88 O          -5.8938  -27.5549  -51.3934 O.2       15 UNK        -0.5000 
     89 N          -5.2344  -27.5501  -49.2246 N.am      16 UNK        -0.5000 
     90 CA         -6.4978  -27.8924  -48.5572 C.3       16 UNK         0.1400 
     91 CB         -6.8853  -29.3535  -48.8645 C.3       16 UNK        -0.1800 
     92 C          -7.6451  -26.8996  -48.8534 C.2       16 UNK         0.5000 
     93 O          -8.8156  -27.2818  -48.8064 O.2       16 UNK        -0.5000 
     94 N          -7.2812  -25.6493  -49.1793 N.am      17 UNK        -0.5000 
     95 CA         -8.1365  -24.5465  -49.6269 C.3       17 UNK         0.1400 
     96 CB         -9.0129  -24.0417  -48.4626 C.3       17 UNK        -0.1800 
     97 C          -8.9545  -24.8549  -50.9043 C.2       17 UNK         0.5000 
     98 O          -9.9947  -24.2312  -51.1222 O.2       17 UNK        -0.5000 
     99 N          -8.4826  -25.8018  -51.7323 N.am      18 UNK        -0.5000 
    100 CA        -9.1651  -26.2496  -52.9513 C.3       18 UNK         0.1400 
    101 CB        -8.5275  -27.5607  -53.4347 C.3       18 UNK        -0.1800 
    102 C         -9.1553  -25.1977  -54.0771 C.2       18 UNK         0.5000 
    103 O        -10.1142  -25.1183  -54.8459 O.2       18 UNK        -0.5000 
    104 N         -8.0804  -24.4049  -54.1350 N.am      19 UNK        -0.5000 
    105 CA        -7.8848  -23.2756  -55.0408 C.3       19 UNK         0.1400 
    106 CB        -7.6565  -23.7436  -56.4921 C.3       19 UNK        -0.1800 
    107 C         -6.7035  -22.4503  -54.5202 C.2       19 UNK         0.5000 
    108 O         -6.8686  -21.2655  -54.2298 O.2       19 UNK        -0.5000 
    109 N         -5.5607  -23.1343  -54.3480 N.am      20 UNK        -0.5000 
    110 CA        -4.2928  -22.6614  -53.7827 C.3       20 UNK         0.1400 
    111 CB        -4.5021  -22.1626  -52.3378 C.3       20 UNK        -0.1800 
    112 C         -3.5665  -21.5967  -54.6282 C.2       20 UNK         0.5000 
    113 O         -4.1144  -21.0539  -55.5894 O.2       20 UNK        -0.5000 
    114 N         -2.3267  -21.2982  -54.2195 N.am      21 UNK        -0.5000 
    115 CA        -1.5009  -20.2210  -54.7720 C.3       21 UNK         0.1400 
    116 CB        -0.0460  -20.4411  -54.3287 C.3       21 UNK        -0.1800 
    117 C         -1.9802  -18.8163  -54.3501 C.2       21 UNK         0.5000 
    118 O         -1.6225  -17.8375  -55.0056 O.2       21 UNK        -0.5000 
    119 N         -2.7649  -18.7475  -53.2669 N.am      22 UNK        -0.5000 
    120 CA        -3.3229  -17.5204  -52.6792 C.3       22 UNK         0.1400 
    121 C         -4.8774  -17.5329  -52.5861 C.2       22 UNK         0.5000 
    122 N         -5.5737  -18.4515  -53.2451 N.am      22 UNK        -0.7600 
    123 O         -5.4699  -16.6893  -51.9194 O.2       22 UNK        -0.5000 
    124 C124       -2.6278  -17.1890  -51.3246 C.3       23 UNK        -0.0398 
    125 S125       -2.0698  -15.4554  -51.2459 S.3       23 UNK        -0.2404 
    126 C126       -0.5018  -15.5497  -52.1647 C.3       23 UNK        -0.0205 
    127 H127        6.8538  -16.7258  -44.3987 H         1 UNK         0.0600 
    128 H128        7.0066  -16.1281  -46.0545 H         1 UNK         0.0600 
    129 H129        7.9943  -15.4299  -44.7671 H         1 UNK         0.0600 
    130 H130        5.5648  -14.5226  -46.6840 H         1 UNK         0.3000 
    131 H131        3.6535  -13.3518  -44.8488 H         1 UNK         0.0600 
    132 H132        2.8767  -12.0785  -46.8552 H         1 UNK         0.0800 
    133 H133        4.2173  -12.6800  -47.7851 H         1 UNK         0.0800 
    134 H134        3.5703  -14.0411  -49.5678 H         1 UNK         0.0800 
    135 H135        4.2911  -15.3804  -48.7159 H         1 UNK         0.0800 
    136 H136        1.1264  -14.2916  -50.3937 H         1 UNK         0.1150 
    137 H137        0.4204  -18.1227  -52.1746 H         1 UNK         0.1150 
    138 H138        3.6675  -17.6055  -49.4241 H         1 UNK         0.1150 
    139 H139        2.0477  -19.8603  -51.9655 H         1 UNK         0.0800 
    140 H140        3.5902  -19.4540  -51.2751 H         1 UNK         0.0800 
    141 H141        0.2162  -21.1825  -50.8471 H         1 UNK         0.0800 
    142 H142       -0.1199  -20.0493  -49.5573 H         1 UNK         0.0800 
    143 H143        0.6548  -22.9863  -49.1341 H         1 UNK         0.0600 
    144 H144        0.5361  -20.9068  -47.2366 H         1 UNK         0.3000 
    145 H145       -0.2621  -22.9082  -44.3591 H         1 UNK         0.0600 
    146 H146        1.7845  -21.7055  -43.5915 H         1 UNK         0.0600 
    147 H147        2.1768  -23.0545  -44.6473 H         1 UNK         0.0600 
    148 H148        2.2532  -21.4133  -45.2648 H         1 UNK         0.0600 
    149 H149        0.1330  -20.0860  -44.7817 H         1 UNK         0.3000 
    150 H150       -3.3258  -19.2908  -45.2383 H         1 UNK         0.0600 
    151 H151       -3.0261  -19.4722  -42.7698 H         1 UNK         0.0600 
    152 H152       -2.8234  -17.8109  -43.3069 H         1 UNK         0.0600 
    153 H153       -1.4121  -18.7835  -42.8962 H         1 UNK         0.0600 
    154 H154       -0.9816  -17.6660  -45.0869 H         1 UNK         0.3000 
    155 H155       -0.0327  -17.8315  -48.5130 H         1 UNK         0.0600 
    156 H156       -0.3000  -15.3560  -48.2101 H         1 UNK         0.0600 
    157 H157       -1.3785  -15.6475  -46.8426 H         1 UNK         0.0600 
    158 H158       -1.8448  -16.1591  -48.4462 H         1 UNK         0.0600 
    159 H159        1.0640  -16.3722  -46.3598 H         1 UNK         0.3000 
    160 H160        3.0894  -18.9545  -44.9562 H         1 UNK         0.0600 
    161 H161        4.0866  -16.7039  -46.7515 H         1 UNK         0.0600 
    162 H162        4.3013  -18.4133  -47.0997 H         1 UNK         0.0600 
    163 H163        5.0251  -17.7228  -45.6616 H         1 UNK         0.0600 
    164 H164        3.0044  -16.0714  -44.6593 H         1 UNK         0.3000 
    165 H165        0.6313  -16.1792  -41.9721 H         1 UNK         0.0600 
    166 H166        3.6250  -15.5280  -42.0384 H         1 UNK         0.0600 
    167 H167        2.4662  -14.9775  -40.8295 H         1 UNK         0.0600 
    168 H168        2.8598  -16.6851  -40.9562 H         1 UNK         0.0600 
    169 H169        1.9321  -13.9442  -43.0361 H         1 UNK         0.3000 
    170 H170        1.1400  -12.8160  -45.1779 H         1 UNK         0.0600 
    171 H171       -0.7441  -13.4439  -46.5804 H         1 UNK         0.0600 
    172 H172       -1.8963  -13.1791  -45.2720 H         1 UNK         0.0600 
    173 H173       -1.0225  -11.8231  -45.9838 H         1 UNK         0.0600 
    174 H174       -0.9382  -11.8684  -43.3399 H         1 UNK         0.3000 
    175 H175       -0.3128  -10.1164  -41.9705 H         1 UNK         0.0600 
    176 H176        0.0610  -10.7912  -39.5694 H         1 UNK         0.0600 
    177 H177       -0.4951  -12.1539  -40.5295 H         1 UNK         0.0600 
    178 H178        1.2044  -12.0281  -40.0893 H         1 UNK         0.0600 
    179 H179        2.6102  -10.1640  -41.4896 H         1 UNK         0.3000 
    180 H180        2.8438   -6.7710  -42.1957 H         1 UNK         0.0600 
    181 H181        3.5906   -8.0452  -39.5062 H         1 UNK         0.0600 
    182 H182        2.6525   -6.5711  -39.7118 H         1 UNK         0.0600 
    183 H183        4.3348   -6.6106  -40.2143 H         1 UNK         0.0600 
    184 H184        4.7930   -8.7629  -41.5424 H         1 UNK         0.3000 
    185 H185        5.7533   -9.3453  -44.6604 H         1 UNK         0.0600 
    186 H186        7.0350  -10.7974  -43.0949 H         1 UNK         0.0600 
    187 H187        6.7040   -9.2503  -42.3438 H         1 UNK         0.0600 
    188 H188        5.7644  -10.6762  -41.8869 H         1 UNK         0.0600 
    189 H189        3.7481  -11.3509  -43.8832 H         1 UNK         0.3000 
    190 H190       -2.1727  -21.1095  -47.9792 H         1 UNK         0.3000 
    191 H191       -4.1211  -22.3922  -49.6145 H         1 UNK         0.0600 
    192 H192       -4.5615  -20.2562  -48.4664 H         1 UNK         0.0600 
    193 H193       -5.7407  -21.4623  -47.9730 H         1 UNK         0.0600 
    194 H194       -4.4206  -21.0334  -46.8923 H         1 UNK         0.0600 
    195 H195       -3.0272  -23.1138  -46.2610 H         1 UNK         0.3000 
    196 H196       -4.7154  -25.3209  -45.8129 H         1 UNK         0.0600 
    197 H197       -3.1390  -25.8271  -43.9421 H         1 UNK         0.0600 
    198 H198       -3.5377  -24.1172  -44.0013 H         1 UNK         0.0600 
    199 H199       -1.9776  -24.6800  -44.5978 H         1 UNK         0.0600 
    200 H200       -1.3813  -25.2450  -47.1507 H         1 UNK         0.3000 
    201 H201       -0.9898  -28.0307  -47.4061 H         1 UNK         0.0600 
    202 H202        0.8402  -26.3721  -47.5656 H         1 UNK         0.0600 
    203 H203        0.1539  -25.7061  -49.0464 H         1 UNK         0.0600 
    204 H204        0.7989  -27.3445  -49.0282 H         1 UNK         0.0600 
    205 H205       -2.7236  -25.7692  -49.4845 H         1 UNK         0.3000 
    206 H206       -3.2028  -27.7498  -51.6223 H         1 UNK         0.0600 
    207 H207       -2.7072  -25.3730  -52.1878 H         1 UNK         0.0600 
    208 H208       -4.3317  -25.8057  -52.7021 H         1 UNK         0.0600 
    209 H209       -4.0962  -24.8499  -51.2404 H         1 UNK         0.0600 
    210 H210       -4.4588  -27.3777  -48.5960 H         1 UNK         0.3000 
    211 H211       -6.3056  -27.8183  -47.4862 H         1 UNK         0.0600 
    212 H212       -7.1562  -29.4878  -49.9123 H         1 UNK         0.0600 
    213 H213       -7.7385  -29.6688  -48.2629 H         1 UNK         0.0600 
    214 H214       -6.0638  -30.0339  -48.6402 H         1 UNK         0.0600 
    215 H215       -6.2907  -25.4226  -49.1194 H         1 UNK         0.3000 
    216 H216       -7.4573  -23.7374  -49.8989 H         1 UNK         0.0600 
    217 H217       -8.4071  -23.8111  -47.5862 H         1 UNK         0.0600 
    218 H218       -9.7599  -24.7800  -48.1699 H         1 UNK         0.0600 
    219 H219       -9.5437  -23.1291  -48.7361 H         1 UNK         0.0600 
    220 H220       -7.6317  -26.2946  -51.4834 H         1 UNK         0.3000 
    221 H221      -10.2077  -26.4542  -52.6988 H         1 UNK         0.0600 
    222 H222       -7.4802  -27.4227  -53.7062 H         1 UNK         0.0600 
    223 H223       -8.5739  -28.3297  -52.6632 H         1 UNK         0.0600 
    224 H224       -9.0465  -27.9476  -54.3126 H         1 UNK         0.0600 
    225 H225       -7.3709  -24.5217  -53.4252 H         1 UNK         0.3000 
    226 H226       -8.7753  -22.6442  -55.0091 H         1 UNK         0.0600 
    227 H227       -8.5478  -24.2183  -56.9018 H         1 UNK         0.0600 
    228 H228       -7.4165  -22.8992  -57.1396 H         1 UNK         0.0600 
    229 H229       -6.8365  -24.4584  -56.5652 H         1 UNK         0.0600 
    230 H230       -5.5419  -24.0867  -54.6835 H         1 UNK         0.3000 
    231 H231       -3.6398  -23.5341  -53.7523 H         1 UNK         0.0600 
    232 H232       -3.5485  -22.0626  -51.8193 H         1 UNK         0.0600 
    233 H233       -5.1169  -22.8551  -51.7640 H         1 UNK         0.0600 
    234 H234       -4.9946  -21.1904  -52.3069 H         1 UNK         0.0600 
    235 H235       -1.9295  -21.8117  -53.4461 H         1 UNK         0.3000 
    236 H236       -1.5412  -20.2714  -55.8622 H         1 UNK         0.0600 
    237 H237        0.6074  -19.6610  -54.7221 H         1 UNK         0.0600 
    238 H238        0.0470  -20.4310  -53.2429 H         1 UNK         0.0600 
    239 H239        0.3365  -21.3959  -54.6899 H         1 UNK         0.0600 
    240 H240       -3.0166  -19.6068  -52.8030 H         1 UNK         0.3000 
    241 H241       -3.1304  -16.7032  -53.3762 H         1 UNK         0.0600 
    242 H242       -5.1267  -19.1251  -53.8472 H         1 UNK         0.3800 
    243 H243       -6.5791  -18.4529  -53.1749 H         1 UNK         0.3800 
    244 H244       -3.2850  -17.3782  -50.4738 H         1 UNK         0.0800 
    245 H245       -1.7665  -17.8333  -51.1503 H         1 UNK         0.0800 
    246 H246       -0.6468  -16.1137  -53.0869 H         1 UNK         0.0800 
    247 H247       -0.2226  -14.5417  -52.4747 H         1 UNK         0.0800 
@<TRIPOS>BOND
     1    1    2 1    
     2    1  127 1    
     3    1  128 1    
     4    1  129 1    
     5    2    3 2    
     6    2    4 am   BACKBONE|DICT|INTERRES
     7    4    5 1    
     8    4  130 1    
     9    5    6 1    
    10    5   65 1    
    11    5  131 1    
    12    6    7 1    
    13    6  132 1    
    14    6  133 1    
    15    7    8 1    
    16    8    9 1    
    17    8  134 1    
    18    8  135 1    
    19    9   10 ar   
    20    9   14 ar   
    21   10   11 ar   
    22   10  136 1    
    23   11   12 ar   
    24   11  126 1    
    25   12   13 ar   
    26   12  137 1    
    27   13   14 ar   
    28   13   15 1    
    29   14  138 1    
    30   15   16 1    
    31   15  139 1    
    32   15  140 1    
    33   16   17 1    
    34   17   18 1    
    35   17  141 1    
    36   17  142 1    
    37   18   19 1    
    38   18   67 1    
    39   18  143 1    
    40   19   20 am   BACKBONE|DICT|INTERRES
    41   19  144 1    
    42   20   21 2    
    43   20   22 1    
    44   22   23 1    
    45   22   24 1    
    46   22  145 1    
    47   23  146 1    
    48   23  147 1    
    49   23  148 1    
    50   24   25 am   BACKBONE|DICT|INTERRES
    51   24  149 1    
    52   25   26 2    
    53   25   27 1    
    54   27   28 1    
    55   27   29 1    
    56   27  150 1    
    57   28  151 1    
    58   28  152 1    
    59   28  153 1    
    60   29   30 am   BACKBONE|DICT|INTERRES
    61   29  154 1    
    62   30   31 2    
    63   30   32 1    
    64   32   33 1    
    65   32   34 1    
    66   32  155 1    
    67   33  156 1    
    68   33  157 1    
    69   33  158 1    
    70   34   35 am   BACKBONE|DICT|INTERRES
    71   34  159 1    
    72   35   36 2    
    73   35   37 1    
    74   37   38 1    
    75   37   39 1    
    76   37  160 1    
    77   38  161 1    
    78   38  162 1    
    79   38  163 1    
    80   39   40 am   BACKBONE|DICT|INTERRES
    81   39  164 1    
    82   40   41 2    
    83   40   42 1    
    84   42   43 1    
    85   42   44 1    
    86   42  165 1    
    87   43  166 1    
    88   43  167 1    
    89   43  168 1    
    90   44   45 am   BACKBONE|DICT|INTERRES
    91   44  169 1    
    92   45   46 2    
    93   45   47 1    
    94   47   48 1    
    95   47   49 1    
    96   47  170 1    
    97   48  171 1    
    98   48  172 1    
    99   48  173 1    
   100   49   50 am   BACKBONE|DICT|INTERRES
   101   49  174 1    
   102   50   51 2    
   103   50   52 1    
   104   52   53 1    
   105   52   54 1    
   106   52  175 1    
   107   53  176 1    
   108   53  177 1    
   109   53  178 1    
   110   54   55 am   BACKBONE|DICT|INTERRES
   111   54  179 1    
   112   55   56 2    
   113   55   57 1    
   114   57   58 1    
   115   57   59 1    
   116   57  180 1    
   117   58  181 1    
   118   58  182 1    
   119   58  183 1    
   120   59   60 am   BACKBONE|DICT|INTERRES
   121   59  184 1    
   122   60   61 2    
   123   60   62 1    
   124   62   63 1    
   125   62   64 1    
   126   62  185 1    
   127   63  186 1    
   128   63  187 1    
   129   63  188 1    
   130   64   65 am   BACKBONE|DICT|INTERRES
   131   64  189 1    
   132   65   66 2    
   133   67   68 2    
   134   67   69 am   BACKBONE|DICT|INTERRES
   135   69   70 1    
   136   69  190 1    
   137   70   71 1    
   138   70   72 1    
   139   70  191 1    
   140   71  192 1    
   141   71  193 1    
   142   71  194 1    
   143   72   73 2    
   144   72   74 am   BACKBONE|DICT|INTERRES
   145   74   75 1    
   146   74  195 1    
   147   75   76 1    
   148   75   77 1    
   149   75  196 1    
   150   76  197 1    
   151   76  198 1    
   152   76  199 1    
   153   77   78 2    
   154   77   79 am   BACKBONE|DICT|INTERRES
   155   79   80 1    
   156   79  200 1    
   157   80   81 1    
   158   80   82 1    
   159   80  201 1    
   160   81  202 1    
   161   81  203 1    
   162   81  204 1    
   163   82   83 2    
   164   82   84 am   BACKBONE|DICT|INTERRES
   165   84   85 1    
   166   84  205 1    
   167   85   86 1    
   168   85   87 1    
   169   85  206 1    
   170   86  207 1    
   171   86  208 1    
   172   86  209 1    
   173   87   88 2    
   174   87   89 am   BACKBONE|DICT|INTERRES
   175   89   90 1    
   176   89  210 1    
   177   90   91 1    
   178   90   92 1    
   179   90  211 1    
   180   91  212 1    
   181   91  213 1    
   182   91  214 1    
   183   92   93 2    
   184   92   94 am   BACKBONE|DICT|INTERRES
   185   94   95 1    
   186   94  215 1    
   187   95   96 1    
   188   95   97 1    
   189   95  216 1    
   190   96  217 1    
   191   96  218 1    
   192   96  219 1    
   193   97   98 2    
   194   97   99 am   BACKBONE|DICT|INTERRES
   195   99  100 1    
   196   99  220 1    
   197  100  101 1    
   198  100  102 1    
   199  100  221 1    
   200  101  222 1    
   201  101  223 1    
   202  101  224 1    
   203  102  103 2    
   204  102  104 am   BACKBONE|DICT|INTERRES
   205  104  105 1    
   206  104  225 1    
   207  105  106 1    
   208  105  107 1    
   209  105  226 1    
   210  106  227 1    
   211  106  228 1    
   212  106  229 1    
   213  107  108 2    
   214  107  109 am   BACKBONE|DICT|INTERRES
   215  109  110 1    
   216  109  230 1    
   217  110  111 1    
   218  110  112 1    
   219  110  231 1    
   220  111  232 1    
   221  111  233 1    
   222  111  234 1    
   223  112  113 2    
   224  112  114 am   BACKBONE|DICT|INTERRES
   225  114  115 1    
   226  114  235 1    
   227  115  116 1    
   228  115  117 1    
   229  115  236 1    
   230  116  237 1    
   231  116  238 1    
   232  116  239 1    
   233  117  118 2    
   234  117  119 am   BACKBONE|DICT|INTERRES
   235  119  120 1    
   236  119  240 1    
   237  120  121 1    
   238  120  124 1    
   239  120  241 1    
   240  121  122 am   BACKBONE|DICT|INTERRES
   241  121  123 2    
   242  122  242 1    
   243  122  243 1    
   244  124  125 1    
   245  124  244 1    
   246  124  245 1    
   247  125  126 1    
   248  126  246 1    
   249  126  247 1    
@<TRIPOS>SUBSTRUCTURE
     1 UNK         1 GROUP             0       ****    0 ROOT    
