@<TRIPOS>MOLECULE
3R540
247   249    1
SMALL
USER_CHARGES


@<TRIPOS>ATOM
      1 CA          2.2216  -12.1294  -42.7889 C.3       0 UNK        -0.1800 
      2 C           1.6223  -11.5051  -44.0386 C.2       0 UNK         0.5000 
      3 O           1.8404  -10.3208  -44.2956 O.2       0 UNK        -0.5000 
      4 N           0.8757  -12.2961  -44.8209 N.am      1 UNK        -0.5000 
      5 CA          0.3164  -11.8807  -46.1124 C.3       1 UNK         0.1400 
      6 C6         -0.9610  -12.6673  -46.5066 C.3       23 UNK        -0.0398 
      7 S7         -0.7550  -14.4614  -46.8016 S.3       23 UNK        -0.2404 
      8 C8         -0.4475  -14.4977  -48.5981 C.3       23 UNK        -0.0205 
      9 C9         -1.1226  -15.6774  -49.2810 C.ar      23 UNK        -0.0193 
     10 C10        -2.2954  -15.4901  -50.0158 C.ar      23 UNK        -0.1150 
     11 C11        -2.8795  -16.5565  -50.7044 C.ar      23 UNK        -0.0193 
     12 C12        -2.3018  -17.8270  -50.6230 C.ar      23 UNK        -0.1150 
     13 C13        -1.1266  -18.0355  -49.8927 C.ar      23 UNK        -0.0193 
     14 C14        -0.5404  -16.9457  -49.2326 C.ar      23 UNK        -0.1150 
     15 C15        -0.5107  -19.4388  -49.8903 C.3       23 UNK        -0.0205 
     16 S16         0.8541  -19.7135  -48.7031 S.3       23 UNK        -0.2404 
     17 C17        -0.0557  -19.6253  -47.1242 C.3       23 UNK        -0.0398 
     18 CA         -0.1296  -20.9601  -46.3508 C.3       11 UNK         0.1400 
     19 N          -0.7799  -20.7656  -45.0567 N.am      11 UNK        -0.5000 
     20 C          -0.9077  -21.6906  -44.0971 C.2       10 UNK         0.5000 
     21 O          -0.4179  -22.8181  -44.1545 O.2       10 UNK        -0.5000 
     22 CA         -1.7910  -21.2987  -42.9010 C.3       10 UNK         0.1400 
     23 CB         -1.0180  -20.4145  -41.9096 C.3       10 UNK        -0.1800 
     24 N          -3.0083  -20.6089  -43.3349 N.am      10 UNK        -0.5000 
     25 C          -4.0001  -21.1908  -44.0253 C.2       9 UNK         0.5000 
     26 O          -4.0120  -22.3833  -44.3297 O.2       9 UNK        -0.5000 
     27 CA         -5.1532  -20.2785  -44.4826 C.3       9 UNK         0.1400 
     28 CB         -6.1715  -20.0840  -43.3494 C.3       9 UNK        -0.1800 
     29 N          -4.6878  -18.9703  -44.9466 N.am      9 UNK        -0.5000 
     30 C          -3.9707  -18.7711  -46.0622 C.2       8 UNK         0.5000 
     31 O          -3.6465  -19.6698  -46.8348 O.2       8 UNK        -0.5000 
     32 CA         -3.4838  -17.3346  -46.3255 C.3       8 UNK         0.1400 
     33 CB         -4.5542  -16.5249  -47.0672 C.3       8 UNK        -0.1800 
     34 N          -3.0999  -16.6350  -45.0977 N.am      8 UNK        -0.5000 
     35 C          -2.0873  -17.0144  -44.3104 C.2       7 UNK         0.5000 
     36 O          -1.3783  -18.0020  -44.5303 O.2       7 UNK        -0.5000 
     37 CA         -1.8546  -16.1871  -43.0433 C.3       7 UNK         0.1400 
     38 CB         -2.7732  -16.6599  -41.9022 C.3       7 UNK        -0.1800 
     39 N          -0.4599  -16.3570  -42.6713 N.am      7 UNK        -0.5000 
     40 C           0.2623  -15.5417  -41.8998 C.2       6 UNK         0.5000 
     41 O          -0.2027  -14.5720  -41.3007 O.2       6 UNK        -0.5000 
     42 CA          1.7683  -15.8547  -41.7972 C.3       6 UNK         0.1400 
     43 CB          2.0540  -16.7024  -40.5485 C.3       6 UNK        -0.1800 
     44 N           2.3150  -16.5425  -42.9715 N.am      6 UNK        -0.5000 
     45 C           2.3639  -16.0423  -44.2133 C.2       5 UNK         0.5000 
     46 O           1.9403  -14.9285  -44.5254 O.2       5 UNK        -0.5000 
     47 CA          3.0475  -16.9230  -45.2727 C.3       5 UNK         0.1400 
     48 CB          2.4804  -16.6619  -46.6752 C.3       5 UNK        -0.1800 
     49 N           4.4823  -16.6535  -45.2723 N.am      5 UNK        -0.5000 
     50 C           5.3359  -17.0978  -44.3388 C.2       4 UNK         0.5000 
     51 O           5.0329  -17.9277  -43.4799 O.2       4 UNK        -0.5000 
     52 CA          6.7555  -16.4975  -44.3391 C.3       4 UNK         0.1400 
     53 CB          7.7278  -17.4126  -45.0986 C.3       4 UNK        -0.1800 
     54 N           6.8197  -15.1523  -44.9139 N.am      4 UNK        -0.5000 
     55 C           6.2304  -14.0580  -44.4109 C.2       3 UNK         0.5000 
     56 O           5.5922  -14.0446  -43.3580 O.2       3 UNK        -0.5000 
     57 CA          6.3649  -12.7575  -45.2285 C.3       3 UNK         0.1400 
     58 CB          7.6934  -12.6632  -46.0112 C.3       3 UNK        -0.1800 
     59 N           5.2256  -12.5272  -46.1247 N.am      3 UNK        -0.5000 
     60 C           4.7736  -13.3300  -47.0996 C.2       2 UNK         0.5000 
     61 O           5.2131  -14.4582  -47.3295 O.2       2 UNK        -0.5000 
     62 CA          3.6032  -12.7751  -47.9226 C.3       2 UNK         0.1400 
     63 CB          3.3132  -13.5820  -49.2046 C.3       2 UNK        -0.1800 
     64 N           2.4275  -12.7126  -47.0618 N.am      2 UNK        -0.5000 
     65 C           1.3896  -11.8812  -47.2231 C.2       1 UNK         0.5000 
     66 O           1.2707  -11.1139  -48.1793 O.2       1 UNK        -0.5000 
     67 C          -0.8114  -22.0835  -47.1595 C.2       11 UNK         0.5000 
     68 O          -0.1224  -22.9918  -47.6218 O.2       11 UNK        -0.5000 
     69 N          -2.1475  -22.0347  -47.2679 N.am      12 UNK        -0.5000 
     70 CA         -2.9632  -23.0431  -47.9438 C.3       12 UNK         0.1400 
     71 CB         -4.4355  -22.6089  -47.9507 C.3       12 UNK        -0.1800 
     72 C          -2.8232  -24.4465  -47.3329 C.2       12 UNK         0.5000 
     73 O          -2.7211  -25.4186  -48.0793 O.2       12 UNK        -0.5000 
     74 N          -2.7875  -24.5260  -45.9958 N.am      13 UNK        -0.5000 
     75 CA         -2.5580  -25.7633  -45.2513 C.3       13 UNK         0.1400 
     76 CB         -2.8252  -25.5236  -43.7576 C.3       13 UNK        -0.1800 
     77 C          -1.1458  -26.3365  -45.4736 C.2       13 UNK         0.5000 
     78 O          -1.0094  -27.5442  -45.6704 O.2       13 UNK        -0.5000 
     79 N          -0.1285  -25.4637  -45.4597 N.am      14 UNK        -0.5000 
     80 CA          1.2745  -25.8184  -45.6787 C.3       14 UNK         0.1400 
     81 CB          2.1695  -24.6324  -45.2868 C.3       14 UNK        -0.1800 
     82 C           1.5638  -26.2675  -47.1230 C.2       14 UNK         0.5000 
     83 O           2.2533  -27.2685  -47.3220 O.2       14 UNK        -0.5000 
     84 N           1.0275  -25.5274  -48.1021 N.am      15 UNK        -0.5000 
     85 CA          1.1791  -25.8017  -49.5330 C.3       15 UNK         0.1400 
     86 CB          0.8858  -24.5124  -50.3158 C.3       15 UNK        -0.1800 
     87 C           0.2802  -26.9477  -50.0371 C.2       15 UNK         0.5000 
     88 O           0.5393  -27.4819  -51.1159 O.2       15 UNK        -0.5000 
     89 N          -0.7641  -27.2816  -49.2651 N.am      16 UNK        -0.5000 
     90 CA         -1.8331  -28.2451  -49.5540 C.3       16 UNK         0.1400 
     91 CB         -1.2737  -29.6717  -49.7346 C.3       16 UNK        -0.1800 
     92 C          -2.7608  -27.8076  -50.7107 C.2       16 UNK         0.5000 
     93 O          -3.4561  -28.6442  -51.2900 O.2       16 UNK        -0.5000 
     94 N          -2.7782  -26.5035  -51.0070 N.am      17 UNK        -0.5000 
     95 CA         -3.6118  -25.8419  -52.0017 C.3       17 UNK         0.1400 
     96 CB         -3.1235  -26.1617  -53.4268 C.3       17 UNK        -0.1800 
     97 C          -3.5483  -24.3336  -51.7331 C.2       17 UNK         0.5000 
     98 O          -2.4630  -23.8119  -51.4721 O.2       17 UNK        -0.5000 
     99 N          -4.7002  -23.6579  -51.8087 N.am      18 UNK        -0.5000 
    100 CA        -4.8234  -22.2135  -51.5838 C.3       18 UNK         0.1400 
    101 CB        -6.2446  -21.9196  -51.0789 C.3       18 UNK        -0.1800 
    102 C         -4.5197  -21.3693  -52.8372 C.2       18 UNK         0.5000 
    103 O         -4.3536  -20.1556  -52.7128 O.2       18 UNK        -0.5000 
    104 N         -4.4799  -22.0190  -54.0116 N.am      19 UNK        -0.5000 
    105 CA        -4.3701  -21.4414  -55.3573 C.3       19 UNK         0.1400 
    106 CB        -3.0681  -20.6250  -55.5086 C.3       19 UNK        -0.1800 
    107 C         -5.6172  -20.6230  -55.7565 C.2       19 UNK         0.5000 
    108 O         -6.5458  -20.4585  -54.9623 O.2       19 UNK        -0.5000 
    109 N         -5.6309  -20.1182  -56.9966 N.am      20 UNK        -0.5000 
    110 CA        -6.7457  -19.3533  -57.5696 C.3       20 UNK         0.1400 
    111 CB        -6.4646  -19.1062  -59.0599 C.3       20 UNK        -0.1800 
    112 C         -7.0392  -18.0202  -56.8488 C.2       20 UNK         0.5000 
    113 O         -8.1591  -17.5159  -56.9403 O.2       20 UNK        -0.5000 
    114 N         -6.0326  -17.4755  -56.1532 N.am      21 UNK        -0.5000 
    115 CA        -6.1189  -16.2252  -55.4043 C.3       21 UNK         0.1400 
    116 CB        -4.6977  -15.6957  -55.1582 C.3       21 UNK        -0.1800 
    117 C         -6.9001  -16.3417  -54.0801 C.2       21 UNK         0.5000 
    118 O         -7.5259  -15.3572  -53.6836 O.2       21 UNK        -0.5000 
    119 N         -6.8483  -17.5086  -53.4190 N.am      22 UNK        -0.5000 
    120 CA        -7.4644  -17.7406  -52.0960 C.3       22 UNK         0.1400 
    121 C         -8.4062  -18.9758  -52.0341 C.2       22 UNK         0.5000 
    122 N         -8.4475  -19.8609  -53.0206 N.am      22 UNK        -0.7600 
    123 O         -9.1500  -19.1229  -51.0683 O.2       22 UNK        -0.5000 
    124 C124       -6.4123  -17.7759  -50.9512 C.3       23 UNK        -0.0398 
    125 S125       -5.6339  -16.1508  -50.6626 S.3       23 UNK        -0.2404 
    126 C126       -4.0839  -16.3091  -51.5993 C.3       23 UNK        -0.0205 
    127 H127        2.6649  -11.3668  -42.1484 H         1 UNK         0.0600 
    128 H128        3.0005  -12.8433  -43.0567 H         1 UNK         0.0600 
    129 H129        1.4532  -12.6452  -42.2154 H         1 UNK         0.0600 
    130 H130        0.8209  -13.2883  -44.6084 H         1 UNK         0.3000 
    131 H131        0.0007  -10.8403  -46.0071 H         1 UNK         0.0600 
    132 H132       -1.4291  -12.2063  -47.3775 H         1 UNK         0.0800 
    133 H133       -1.6963  -12.5595  -45.7083 H         1 UNK         0.0800 
    134 H134        0.6276  -14.5524  -48.7650 H         1 UNK         0.0800 
    135 H135       -0.7750  -13.5683  -49.0650 H         1 UNK         0.0800 
    136 H136       -2.7385  -14.5062  -50.0810 H         1 UNK         0.1150 
    137 H137       -2.7506  -18.6513  -51.1600 H         1 UNK         0.1150 
    138 H138        0.3827  -17.0648  -48.6890 H         1 UNK         0.1150 
    139 H139       -1.2923  -20.1764  -49.6995 H         1 UNK         0.0800 
    140 H140       -0.1328  -19.6456  -50.8922 H         1 UNK         0.0800 
    141 H141       -1.0570  -19.2330  -47.2994 H         1 UNK         0.0800 
    142 H142        0.4431  -18.8821  -46.5031 H         1 UNK         0.0800 
    143 H143        0.8931  -21.2840  -46.1465 H         1 UNK         0.0600 
    144 H144       -1.1830  -19.8467  -44.8945 H         1 UNK         0.3000 
    145 H145       -2.0832  -22.2159  -42.3850 H         1 UNK         0.0600 
    146 H146       -1.6262  -20.1763  -41.0369 H         1 UNK         0.0600 
    147 H147       -0.1229  -20.9246  -41.5514 H         1 UNK         0.0600 
    148 H148       -0.6991  -19.4755  -42.3620 H         1 UNK         0.0600 
    149 H149       -3.0580  -19.6176  -43.1591 H         1 UNK         0.3000 
    150 H150       -5.6598  -20.7731  -45.3140 H         1 UNK         0.0600 
    151 H151       -6.5476  -21.0445  -42.9944 H         1 UNK         0.0600 
    152 H152       -7.0311  -19.5050  -43.6874 H         1 UNK         0.0600 
    153 H153       -5.7329  -19.5670  -42.4950 H         1 UNK         0.0600 
    154 H154       -4.9102  -18.1736  -44.3687 H         1 UNK         0.3000 
    155 H155       -2.6032  -17.3942  -46.9685 H         1 UNK         0.0600 
    156 H156       -5.4408  -16.3623  -46.4536 H         1 UNK         0.0600 
    157 H157       -4.8702  -17.0469  -47.9704 H         1 UNK         0.0600 
    158 H158       -4.1691  -15.5521  -47.3742 H         1 UNK         0.0600 
    159 H159       -3.6353  -15.8133  -44.8583 H         1 UNK         0.3000 
    160 H160       -2.0435  -15.1353  -43.2686 H         1 UNK         0.0600 
    161 H161       -2.5909  -17.7036  -41.6447 H         1 UNK         0.0600 
    162 H162       -3.8240  -16.5660  -42.1782 H         1 UNK         0.0600 
    163 H163       -2.6229  -16.0648  -41.0014 H         1 UNK         0.0600 
    164 H164        0.0016  -17.1144  -43.1589 H         1 UNK         0.3000 
    165 H165        2.2980  -14.9064  -41.6934 H         1 UNK         0.0600 
    166 H166        3.1242  -16.8640  -40.4176 H         1 UNK         0.0600 
    167 H167        1.6887  -16.2071  -39.6478 H         1 UNK         0.0600 
    168 H168        1.5703  -17.6784  -40.6059 H         1 UNK         0.0600 
    169 H169        2.7587  -17.4350  -42.8013 H         1 UNK         0.3000 
    170 H170        2.8686  -17.9722  -45.0277 H         1 UNK         0.0600 
    171 H171        2.6891  -15.6476  -47.0079 H         1 UNK         0.0600 
    172 H172        2.8941  -17.3526  -47.4100 H         1 UNK         0.0600 
    173 H173        1.3976  -16.7805  -46.6773 H         1 UNK         0.0600 
    174 H174        4.8112  -15.9571  -45.9328 H         1 UNK         0.3000 
    175 H175        7.0841  -16.4333  -43.2999 H         1 UNK         0.0600 
    176 H176        7.4608  -17.4953  -46.1530 H         1 UNK         0.0600 
    177 H177        8.7503  -17.0393  -45.0383 H         1 UNK         0.0600 
    178 H178        7.7252  -18.4195  -44.6789 H         1 UNK         0.0600 
    179 H179        7.2766  -15.0694  -45.8108 H         1 UNK         0.3000 
    180 H180        6.3574  -11.9413  -44.5043 H         1 UNK         0.0600 
    181 H181        7.7492  -13.3831  -46.8282 H         1 UNK         0.0600 
    182 H182        8.5479  -12.8384  -45.3561 H         1 UNK         0.0600 
    183 H183        7.8186  -11.6699  -46.4424 H         1 UNK         0.0600 
    184 H184        4.7492  -11.6465  -45.9881 H         1 UNK         0.3000 
    185 H185        3.8784  -11.7609  -48.2203 H         1 UNK         0.0600 
    186 H186        3.0292  -14.6111  -48.9900 H         1 UNK         0.0600 
    187 H187        2.5114  -13.1280  -49.7866 H         1 UNK         0.0600 
    188 H188        4.1951  -13.6168  -49.8452 H         1 UNK         0.0600 
    189 H189        2.4413  -13.3090  -46.2427 H         1 UNK         0.3000 
    190 H190       -2.6471  -21.2272  -46.9027 H         1 UNK         0.3000 
    191 H191       -2.6163  -23.0956  -48.9758 H         1 UNK         0.0600 
    192 H192       -5.0517  -23.3415  -48.4726 H         1 UNK         0.0600 
    193 H193       -4.5654  -21.6513  -48.4541 H         1 UNK         0.0600 
    194 H194       -4.8313  -22.5099  -46.9404 H         1 UNK         0.0600 
    195 H195       -2.9356  -23.6834  -45.4497 H         1 UNK         0.3000 
    196 H196       -3.2763  -26.5048  -45.6071 H         1 UNK         0.0600 
    197 H197       -2.6800  -26.4390  -43.1828 H         1 UNK         0.0600 
    198 H198       -3.8503  -25.1927  -43.5898 H         1 UNK         0.0600 
    199 H199       -2.1590  -24.7662  -43.3440 H         1 UNK         0.0600 
    200 H200       -0.3228  -24.4886  -45.2523 H         1 UNK         0.3000 
    201 H201        1.5160  -26.6535  -45.0179 H         1 UNK         0.0600 
    202 H202        2.0340  -24.3674  -44.2381 H         1 UNK         0.0600 
    203 H203        1.9507  -23.7469  -45.8846 H         1 UNK         0.0600 
    204 H204        3.2237  -24.8735  -45.4284 H         1 UNK         0.0600 
    205 H205        0.5113  -24.6838  -47.8555 H         1 UNK         0.3000 
    206 H206        2.2151  -26.0878  -49.7260 H         1 UNK         0.0600 
    207 H207        1.5642  -23.7104  -50.0240 H         1 UNK         0.0600 
    208 H208        1.0038  -24.6658  -51.3892 H         1 UNK         0.0600 
    209 H209       -0.1331  -24.1642  -50.1439 H         1 UNK         0.0600 
    210 H210       -0.9092  -26.7346  -48.4259 H         1 UNK         0.3000 
    211 H211       -2.4614  -28.2556  -48.6623 H         1 UNK         0.0600 
    212 H212       -0.7078  -29.7735  -50.6608 H         1 UNK         0.0600 
    213 H213       -2.0797  -30.4056  -49.7651 H         1 UNK         0.0600 
    214 H214       -0.6188  -29.9456  -48.9074 H         1 UNK         0.0600 
    215 H215       -2.2144  -25.8755  -50.4469 H         1 UNK         0.3000 
    216 H216       -4.6411  -26.1862  -51.8818 H         1 UNK         0.0600 
    217 H217       -3.7170  -25.6312  -54.1722 H         1 UNK         0.0600 
    218 H218       -3.2047  -27.2257  -53.6485 H         1 UNK         0.0600 
    219 H219       -2.0816  -25.8703  -53.5666 H         1 UNK         0.0600 
    220 H220       -5.5538  -24.1540  -52.0231 H         1 UNK         0.3000 
    221 H221       -4.1155  -21.9076  -50.8113 H         1 UNK         0.0600 
    222 H222       -6.3478  -20.8725  -50.7948 H         1 UNK         0.0600 
    223 H223       -6.9933  -22.1283  -51.8440 H         1 UNK         0.0600 
    224 H224       -6.4913  -22.5157  -50.2012 H         1 UNK         0.0600 
    225 H225       -4.6562  -23.0119  -53.9853 H         1 UNK         0.3000 
    226 H226       -4.3183  -22.2884  -56.0429 H         1 UNK         0.0600 
    227 H227       -3.1077  -19.6836  -54.9598 H         1 UNK         0.0600 
    228 H228       -2.2075  -21.1867  -55.1452 H         1 UNK         0.0600 
    229 H229       -2.8724  -20.3820  -56.5532 H         1 UNK         0.0600 
    230 H230       -4.8438  -20.2882  -57.6060 H         1 UNK         0.3000 
    231 H231       -7.6455  -19.9669  -57.4898 H         1 UNK         0.0600 
    232 H232       -5.5583  -18.5171  -59.2057 H         1 UNK         0.0600 
    233 H233       -7.2871  -18.5642  -59.5289 H         1 UNK         0.0600 
    234 H234       -6.3471  -20.0452  -59.6011 H         1 UNK         0.0600 
    235 H235       -5.1466  -17.9577  -56.1386 H         1 UNK         0.3000 
    236 H236       -6.6421  -15.4928  -56.0232 H         1 UNK         0.0600 
    237 H237       -4.0812  -16.4234  -54.6306 H         1 UNK         0.0600 
    238 H238       -4.2001  -15.4587  -56.0987 H         1 UNK         0.0600 
    239 H239       -4.7159  -14.7816  -54.5632 H         1 UNK         0.0600 
    240 H240       -6.3411  -18.2859  -53.8190 H         1 UNK         0.3000 
    241 H241       -8.1377  -16.9108  -51.8741 H         1 UNK         0.0600 
    242 H242       -9.0927  -20.6301  -52.9465 H         1 UNK         0.3800 
    243 H243       -7.7912  -19.8497  -53.7977 H         1 UNK         0.3800 
    244 H244       -6.8790  -18.0652  -50.0080 H         1 UNK         0.0800 
    245 H245       -5.6468  -18.5266  -51.1450 H         1 UNK         0.0800 
    246 H246       -4.1721  -17.1009  -52.3442 H         1 UNK         0.0800 
    247 H247       -3.9255  -15.3868  -52.1596 H         1 UNK         0.0800 
@<TRIPOS>BOND
     1    1    2 1    
     2    1  127 1    
     3    1  128 1    
     4    1  129 1    
     5    2    3 2    
     6    2    4 am   BACKBONE|DICT|INTERRES
     7    4    5 1    
     8    4  130 1    
     9    5    6 1    
    10    5   65 1    
    11    5  131 1    
    12    6    7 1    
    13    6  132 1    
    14    6  133 1    
    15    7    8 1    
    16    8    9 1    
    17    8  134 1    
    18    8  135 1    
    19    9   10 ar   
    20    9   14 ar   
    21   10   11 ar   
    22   10  136 1    
    23   11   12 ar   
    24   11  126 1    
    25   12   13 ar   
    26   12  137 1    
    27   13   14 ar   
    28   13   15 1    
    29   14  138 1    
    30   15   16 1    
    31   15  139 1    
    32   15  140 1    
    33   16   17 1    
    34   17   18 1    
    35   17  141 1    
    36   17  142 1    
    37   18   19 1    
    38   18   67 1    
    39   18  143 1    
    40   19   20 am   BACKBONE|DICT|INTERRES
    41   19  144 1    
    42   20   21 2    
    43   20   22 1    
    44   22   23 1    
    45   22   24 1    
    46   22  145 1    
    47   23  146 1    
    48   23  147 1    
    49   23  148 1    
    50   24   25 am   BACKBONE|DICT|INTERRES
    51   24  149 1    
    52   25   26 2    
    53   25   27 1    
    54   27   28 1    
    55   27   29 1    
    56   27  150 1    
    57   28  151 1    
    58   28  152 1    
    59   28  153 1    
    60   29   30 am   BACKBONE|DICT|INTERRES
    61   29  154 1    
    62   30   31 2    
    63   30   32 1    
    64   32   33 1    
    65   32   34 1    
    66   32  155 1    
    67   33  156 1    
    68   33  157 1    
    69   33  158 1    
    70   34   35 am   BACKBONE|DICT|INTERRES
    71   34  159 1    
    72   35   36 2    
    73   35   37 1    
    74   37   38 1    
    75   37   39 1    
    76   37  160 1    
    77   38  161 1    
    78   38  162 1    
    79   38  163 1    
    80   39   40 am   BACKBONE|DICT|INTERRES
    81   39  164 1    
    82   40   41 2    
    83   40   42 1    
    84   42   43 1    
    85   42   44 1    
    86   42  165 1    
    87   43  166 1    
    88   43  167 1    
    89   43  168 1    
    90   44   45 am   BACKBONE|DICT|INTERRES
    91   44  169 1    
    92   45   46 2    
    93   45   47 1    
    94   47   48 1    
    95   47   49 1    
    96   47  170 1    
    97   48  171 1    
    98   48  172 1    
    99   48  173 1    
   100   49   50 am   BACKBONE|DICT|INTERRES
   101   49  174 1    
   102   50   51 2    
   103   50   52 1    
   104   52   53 1    
   105   52   54 1    
   106   52  175 1    
   107   53  176 1    
   108   53  177 1    
   109   53  178 1    
   110   54   55 am   BACKBONE|DICT|INTERRES
   111   54  179 1    
   112   55   56 2    
   113   55   57 1    
   114   57   58 1    
   115   57   59 1    
   116   57  180 1    
   117   58  181 1    
   118   58  182 1    
   119   58  183 1    
   120   59   60 am   BACKBONE|DICT|INTERRES
   121   59  184 1    
   122   60   61 2    
   123   60   62 1    
   124   62   63 1    
   125   62   64 1    
   126   62  185 1    
   127   63  186 1    
   128   63  187 1    
   129   63  188 1    
   130   64   65 am   BACKBONE|DICT|INTERRES
   131   64  189 1    
   132   65   66 2    
   133   67   68 2    
   134   67   69 am   BACKBONE|DICT|INTERRES
   135   69   70 1    
   136   69  190 1    
   137   70   71 1    
   138   70   72 1    
   139   70  191 1    
   140   71  192 1    
   141   71  193 1    
   142   71  194 1    
   143   72   73 2    
   144   72   74 am   BACKBONE|DICT|INTERRES
   145   74   75 1    
   146   74  195 1    
   147   75   76 1    
   148   75   77 1    
   149   75  196 1    
   150   76  197 1    
   151   76  198 1    
   152   76  199 1    
   153   77   78 2    
   154   77   79 am   BACKBONE|DICT|INTERRES
   155   79   80 1    
   156   79  200 1    
   157   80   81 1    
   158   80   82 1    
   159   80  201 1    
   160   81  202 1    
   161   81  203 1    
   162   81  204 1    
   163   82   83 2    
   164   82   84 am   BACKBONE|DICT|INTERRES
   165   84   85 1    
   166   84  205 1    
   167   85   86 1    
   168   85   87 1    
   169   85  206 1    
   170   86  207 1    
   171   86  208 1    
   172   86  209 1    
   173   87   88 2    
   174   87   89 am   BACKBONE|DICT|INTERRES
   175   89   90 1    
   176   89  210 1    
   177   90   91 1    
   178   90   92 1    
   179   90  211 1    
   180   91  212 1    
   181   91  213 1    
   182   91  214 1    
   183   92   93 2    
   184   92   94 am   BACKBONE|DICT|INTERRES
   185   94   95 1    
   186   94  215 1    
   187   95   96 1    
   188   95   97 1    
   189   95  216 1    
   190   96  217 1    
   191   96  218 1    
   192   96  219 1    
   193   97   98 2    
   194   97   99 am   BACKBONE|DICT|INTERRES
   195   99  100 1    
   196   99  220 1    
   197  100  101 1    
   198  100  102 1    
   199  100  221 1    
   200  101  222 1    
   201  101  223 1    
   202  101  224 1    
   203  102  103 2    
   204  102  104 am   BACKBONE|DICT|INTERRES
   205  104  105 1    
   206  104  225 1    
   207  105  106 1    
   208  105  107 1    
   209  105  226 1    
   210  106  227 1    
   211  106  228 1    
   212  106  229 1    
   213  107  108 2    
   214  107  109 am   BACKBONE|DICT|INTERRES
   215  109  110 1    
   216  109  230 1    
   217  110  111 1    
   218  110  112 1    
   219  110  231 1    
   220  111  232 1    
   221  111  233 1    
   222  111  234 1    
   223  112  113 2    
   224  112  114 am   BACKBONE|DICT|INTERRES
   225  114  115 1    
   226  114  235 1    
   227  115  116 1    
   228  115  117 1    
   229  115  236 1    
   230  116  237 1    
   231  116  238 1    
   232  116  239 1    
   233  117  118 2    
   234  117  119 am   BACKBONE|DICT|INTERRES
   235  119  120 1    
   236  119  240 1    
   237  120  121 1    
   238  120  124 1    
   239  120  241 1    
   240  121  122 am   BACKBONE|DICT|INTERRES
   241  121  123 2    
   242  122  242 1    
   243  122  243 1    
   244  124  125 1    
   245  124  244 1    
   246  124  245 1    
   247  125  126 1    
   248  126  246 1    
   249  126  247 1    
@<TRIPOS>SUBSTRUCTURE
     1 UNK         1 GROUP             0       ****    0 ROOT    
