@<TRIPOS>MOLECULE
3R540
247   249    1
SMALL
USER_CHARGES


@<TRIPOS>ATOM
      1 CA          7.7182  -11.6541  -51.2139 C.3       0 UNK        -0.1800 
      2 C           7.0110  -11.6208  -49.8662 C.2       0 UNK         0.5000 
      3 O           7.5494  -11.0703  -48.9052 O.2       0 UNK        -0.5000 
      4 N           5.8130  -12.2131  -49.7898 N.am      1 UNK        -0.5000 
      5 CA          4.9582  -12.2229  -48.6010 C.3       1 UNK         0.1400 
      6 C6          3.8265  -13.2723  -48.7402 C.3       23 UNK        -0.0398 
      7 S7          2.8827  -13.5014  -47.1947 S.3       23 UNK        -0.2404 
      8 C8          2.9136  -15.3083  -46.9755 C.3       23 UNK        -0.0205 
      9 C9          2.0823  -16.0655  -48.0063 C.ar      23 UNK        -0.0193 
     10 C10         0.8183  -15.6091  -48.3987 C.ar      23 UNK        -0.1150 
     11 C11         0.0592  -16.3230  -49.3291 C.ar      23 UNK        -0.0193 
     12 C12         0.5634  -17.5122  -49.8621 C.ar      23 UNK        -0.1150 
     13 C13         1.8228  -17.9809  -49.4792 C.ar      23 UNK        -0.0193 
     14 C14         2.5756  -17.2543  -48.5519 C.ar      23 UNK        -0.1150 
     15 C15         2.3844  -19.2581  -50.0846 C.3       23 UNK        -0.0205 
     16 S16         2.3070  -20.6555  -48.9243 S.3       23 UNK        -0.2404 
     17 C17         0.5157  -20.9955  -48.8764 C.3       23 UNK        -0.0398 
     18 CA          0.2223  -22.3656  -48.2232 C.3       11 UNK         0.1400 
     19 N           0.5962  -22.4063  -46.8070 N.am      11 UNK        -0.5000 
     20 C           0.6199  -23.5153  -46.0556 C.2       10 UNK         0.5000 
     21 O           0.3711  -24.6403  -46.4872 O.2       10 UNK        -0.5000 
     22 CA          0.9147  -23.3294  -44.5581 C.3       10 UNK         0.1400 
     23 CB          2.4238  -23.2034  -44.2990 C.3       10 UNK        -0.1800 
     24 N           0.2147  -22.1683  -44.0094 N.am      10 UNK        -0.5000 
     25 C          -1.1136  -22.1000  -43.8430 C.2       9 UNK         0.5000 
     26 O          -1.8823  -23.0273  -44.0964 O.2       9 UNK        -0.5000 
     27 CA         -1.6806  -20.7581  -43.3466 C.3       9 UNK         0.1400 
     28 CB         -1.5840  -20.6597  -41.8172 C.3       9 UNK        -0.1800 
     29 N          -1.0101  -19.6068  -43.9505 N.am      9 UNK        -0.5000 
     30 C          -1.0978  -19.2789  -45.2486 C.2       8 UNK         0.5000 
     31 O          -1.7613  -19.9088  -46.0700 O.2       8 UNK        -0.5000 
     32 CA         -0.2656  -18.0722  -45.7181 C.3       8 UNK         0.1400 
     33 CB         -1.0226  -16.7695  -45.4230 C.3       8 UNK        -0.1800 
     34 N           1.0555  -17.9975  -45.0951 N.am      8 UNK        -0.5000 
     35 C           1.9696  -18.9769  -45.0607 C.2       7 UNK         0.5000 
     36 O           1.8347  -20.0574  -45.6316 O.2       7 UNK        -0.5000 
     37 CA          3.2142  -18.7397  -44.1845 C.3       7 UNK         0.1400 
     38 CB          4.4401  -18.4320  -45.0557 C.3       7 UNK        -0.1800 
     39 N           3.0536  -17.6767  -43.1864 N.am      7 UNK        -0.5000 
     40 C           2.1727  -17.6621  -42.1774 C.2       6 UNK         0.5000 
     41 O           1.3449  -18.5551  -41.9890 O.2       6 UNK        -0.5000 
     42 CA          2.1816  -16.4322  -41.2473 C.3       6 UNK         0.1400 
     43 CB          3.2443  -16.5861  -40.1434 C.3       6 UNK        -0.1800 
     44 N           2.3011  -15.1314  -41.9261 N.am      6 UNK        -0.5000 
     45 C           3.3262  -14.6157  -42.6187 C.2       5 UNK         0.5000 
     46 O           4.3645  -15.2331  -42.8621 O.2       5 UNK        -0.5000 
     47 CA          3.1373  -13.1772  -43.1487 C.3       5 UNK         0.1400 
     48 CB          4.4053  -12.6323  -43.8296 C.3       5 UNK        -0.1800 
     49 N           2.0245  -13.0677  -44.0935 N.am      5 UNK        -0.5000 
     50 C           0.7224  -13.0743  -43.7879 C.2       4 UNK         0.5000 
     51 O           0.2967  -13.1810  -42.6361 O.2       4 UNK        -0.5000 
     52 CA         -0.2443  -12.9185  -44.9715 C.3       4 UNK         0.1400 
     53 CB         -1.7284  -12.9654  -44.5551 C.3       4 UNK        -0.1800 
     54 N           0.0517  -11.6800  -45.6861 N.am      4 UNK        -0.5000 
     55 C          -0.2849  -11.4182  -46.9531 C.2       3 UNK         0.5000 
     56 O          -0.8720  -12.2182  -47.6820 O.2       3 UNK        -0.5000 
     57 CA          0.0919  -10.0324  -47.5121 C.3       3 UNK         0.1400 
     58 CB         -0.7957   -8.9236  -46.9139 C.3       3 UNK        -0.1800 
     59 N           1.5179   -9.6996  -47.4083 N.am      3 UNK        -0.5000 
     60 C           2.2623   -9.4672  -46.3191 C.2       2 UNK         0.5000 
     61 O           1.8352   -9.5279  -45.1643 O.2       2 UNK        -0.5000 
     62 CA          3.7517   -9.1682  -46.5869 C.3       2 UNK         0.1400 
     63 CB          4.4907   -8.6390  -45.3447 C.3       2 UNK        -0.1800 
     64 N           4.4241  -10.3730  -47.0736 N.am      2 UNK        -0.5000 
     65 C           4.3832  -10.8137  -48.3378 C.2       1 UNK         0.5000 
     66 O           3.8619  -10.1834  -49.2622 O.2       1 UNK        -0.5000 
     67 C          -1.2446  -22.7888  -48.4357 C.2       11 UNK         0.5000 
     68 O          -1.5125  -23.5890  -49.3312 O.2       11 UNK        -0.5000 
     69 N          -2.1589  -22.2966  -47.5860 N.am      12 UNK        -0.5000 
     70 CA         -3.5691  -22.6885  -47.5716 C.3       12 UNK         0.1400 
     71 CB         -4.3502  -21.8133  -46.5815 C.3       12 UNK        -0.1800 
     72 C          -3.7706  -24.1801  -47.2595 C.2       12 UNK         0.5000 
     73 O          -4.5705  -24.8288  -47.9330 O.2       12 UNK        -0.5000 
     74 N          -3.0211  -24.7064  -46.2806 N.am      13 UNK        -0.5000 
     75 CA         -3.0118  -26.1256  -45.9247 C.3       13 UNK         0.1400 
     76 CB         -2.2054  -26.3369  -44.6347 C.3       13 UNK        -0.1800 
     77 C          -2.4804  -27.0162  -47.0627 C.2       13 UNK         0.5000 
     78 O          -3.1017  -28.0332  -47.3712 O.2       13 UNK        -0.5000 
     79 N          -1.3750  -26.5978  -47.6963 N.am      14 UNK        -0.5000 
     80 CA         -0.7639  -27.2697  -48.8464 C.3       14 UNK         0.1400 
     81 CB          0.5853  -26.6099  -49.1689 C.3       14 UNK        -0.1800 
     82 C          -1.6729  -27.2864  -50.0902 C.2       14 UNK         0.5000 
     83 O          -1.7275  -28.2980  -50.7902 O.2       14 UNK        -0.5000 
     84 N          -2.3949  -26.1820  -50.3213 N.am      15 UNK        -0.5000 
     85 CA         -3.3941  -26.0395  -51.3816 C.3       15 UNK         0.1400 
     86 CB         -3.6378  -24.5425  -51.6331 C.3       15 UNK        -0.1800 
     87 C          -4.7284  -26.7489  -51.0741 C.2       15 UNK         0.5000 
     88 O          -5.5805  -26.8122  -51.9585 O.2       15 UNK        -0.5000 
     89 N          -4.9127  -27.2300  -49.8351 N.am      16 UNK        -0.5000 
     90 CA         -6.1387  -27.8239  -49.2886 C.3       16 UNK         0.1400 
     91 CB         -6.4384  -29.1805  -49.9593 C.3       16 UNK        -0.1800 
     92 C          -7.3331  -26.8447  -49.3289 C.2       16 UNK         0.5000 
     93 O          -8.4532  -27.2373  -49.6600 O.2       16 UNK        -0.5000 
     94 N          -7.0470  -25.5748  -49.0063 N.am      17 UNK        -0.5000 
     95 CA         -7.9445  -24.4157  -48.9901 C.3       17 UNK         0.1400 
     96 CB         -9.0583  -24.5972  -47.9378 C.3       17 UNK        -0.1800 
     97 C          -8.4929  -24.0058  -50.3757 C.2       17 UNK         0.5000 
     98 O          -9.4786  -23.2683  -50.4405 O.2       17 UNK        -0.5000 
     99 N          -7.8495  -24.4604  -51.4608 N.am      18 UNK        -0.5000 
    100 CA        -8.1647  -24.0616  -52.8326 C.3       18 UNK         0.1400 
    101 CB        -7.5015  -25.0438  -53.8103 C.3       18 UNK        -0.1800 
    102 C         -7.7057  -22.6227  -53.1340 C.2       18 UNK         0.5000 
    103 O         -6.7976  -22.1065  -52.4774 O.2       18 UNK        -0.5000 
    104 N         -8.3015  -22.0306  -54.1782 N.am      19 UNK        -0.5000 
    105 CA        -8.0558  -20.6656  -54.6637 C.3       19 UNK         0.1400 
    106 CB        -9.1094  -20.3320  -55.7325 C.3       19 UNK        -0.1800 
    107 C         -6.6311  -20.4003  -55.2009 C.2       19 UNK         0.5000 
    108 O         -6.3013  -19.2510  -55.4967 O.2       19 UNK        -0.5000 
    109 N         -5.8065  -21.4517  -55.3054 N.am      20 UNK        -0.5000 
    110 CA        -4.3706  -21.3816  -55.5782 C.3       20 UNK         0.1400 
    111 CB        -3.8451  -22.8066  -55.8131 C.3       20 UNK        -0.1800 
    112 C         -3.5682  -20.6921  -54.4530 C.2       20 UNK         0.5000 
    113 O         -2.4776  -20.1857  -54.7202 O.2       20 UNK        -0.5000 
    114 N         -4.1178  -20.6753  -53.2319 N.am      21 UNK        -0.5000 
    115 CA        -3.5904  -19.9612  -52.0742 C.3       21 UNK         0.1400 
    116 CB        -3.2760  -20.9823  -50.9707 C.3       21 UNK        -0.1800 
    117 C         -4.6204  -18.9321  -51.5799 C.2       21 UNK         0.5000 
    118 O         -5.7894  -18.9735  -51.9706 O.2       21 UNK        -0.5000 
    119 N         -4.1604  -18.0326  -50.7055 N.am      22 UNK        -0.5000 
    120 CA        -4.9697  -17.0038  -50.0307 C.3       22 UNK         0.1400 
    121 C         -5.8770  -17.5261  -48.8752 C.2       22 UNK         0.5000 
    122 N         -5.7827  -18.7852  -48.4659 N.am      22 UNK        -0.7600 
    123 O         -6.6964  -16.7762  -48.3514 O.2       22 UNK        -0.5000 
    124 C124       -4.0952  -15.8016  -49.5829 C.3       23 UNK        -0.0398 
    125 S125       -2.6136  -16.2909  -48.6281 S.3       23 UNK        -0.2404 
    126 C126       -1.2941  -15.7969  -49.7759 C.3       23 UNK        -0.0205 
    127 H127        7.1332  -12.1838  -51.9663 H         1 UNK         0.0600 
    128 H128        8.6825  -12.1535  -51.1195 H         1 UNK         0.0600 
    129 H129        7.8921  -10.6390  -51.5711 H         1 UNK         0.0600 
    130 H130        5.4119  -12.6197  -50.6227 H         1 UNK         0.3000 
    131 H131        5.5827  -12.5110  -47.7521 H         1 UNK         0.0600 
    132 H132        3.1299  -12.9960  -49.5339 H         1 UNK         0.0800 
    133 H133        4.2522  -14.2320  -49.0367 H         1 UNK         0.0800 
    134 H134        2.5325  -15.5459  -45.9822 H         1 UNK         0.0800 
    135 H135        3.9529  -15.6386  -46.9974 H         1 UNK         0.0800 
    136 H136        0.4194  -14.6943  -47.9834 H         1 UNK         0.1150 
    137 H137       -0.0199  -18.0671  -50.5832 H         1 UNK         0.1150 
    138 H138        3.5467  -17.6232  -48.2526 H         1 UNK         0.1150 
    139 H139        1.8616  -19.5166  -51.0067 H         1 UNK         0.0800 
    140 H140        3.4260  -19.0928  -50.3637 H         1 UNK         0.0800 
    141 H141        0.1373  -20.9702  -49.9001 H         1 UNK         0.0800 
    142 H142        0.0140  -20.1908  -48.3364 H         1 UNK         0.0800 
    143 H143        0.8339  -23.1121  -48.7348 H         1 UNK         0.0600 
    144 H144        0.8800  -21.5248  -46.3863 H         1 UNK         0.3000 
    145 H145        0.5575  -24.2189  -44.0348 H         1 UNK         0.0600 
    146 H146        2.6343  -23.1054  -43.2339 H         1 UNK         0.0600 
    147 H147        2.9521  -24.0888  -44.6546 H         1 UNK         0.0600 
    148 H148        2.8557  -22.3414  -44.8072 H         1 UNK         0.0600 
    149 H149        0.7677  -21.3409  -43.8400 H         1 UNK         0.3000 
    150 H150       -2.7361  -20.7197  -43.6243 H         1 UNK         0.0600 
    151 H151       -2.0950  -21.4964  -41.3391 H         1 UNK         0.0600 
    152 H152       -2.0477  -19.7435  -41.4512 H         1 UNK         0.0600 
    153 H153       -0.5476  -20.6691  -41.4770 H         1 UNK         0.0600 
    154 H154       -0.4015  -19.0666  -43.3479 H         1 UNK         0.3000 
    155 H155       -0.1262  -18.1620  -46.7972 H         1 UNK         0.0600 
    156 H156       -1.0480  -16.5454  -44.3560 H         1 UNK         0.0600 
    157 H157       -0.5598  -15.9298  -45.9358 H         1 UNK         0.0600 
    158 H158       -2.0556  -16.8261  -45.7675 H         1 UNK         0.0600 
    159 H159        1.2583  -17.1599  -44.5729 H         1 UNK         0.3000 
    160 H160        3.4044  -19.6703  -43.6462 H         1 UNK         0.0600 
    161 H161        4.3387  -17.4764  -45.5676 H         1 UNK         0.0600 
    162 H162        4.5844  -19.2001  -45.8172 H         1 UNK         0.0600 
    163 H163        5.3494  -18.3943  -44.4557 H         1 UNK         0.0600 
    164 H164        3.6950  -16.8883  -43.2439 H         1 UNK         0.3000 
    165 H165        1.2071  -16.4128  -40.7567 H         1 UNK         0.0600 
    166 H166        3.1995  -15.7586  -39.4354 H         1 UNK         0.0600 
    167 H167        3.0869  -17.5057  -39.5782 H         1 UNK         0.0600 
    168 H168        4.2549  -16.6249  -40.5508 H         1 UNK         0.0600 
    169 H169        1.4759  -14.5409  -41.8623 H         1 UNK         0.3000 
    170 H170        2.9244  -12.5402  -42.2877 H         1 UNK         0.0600 
    171 H171        5.2496  -12.6282  -43.1392 H         1 UNK         0.0600 
    172 H172        4.6905  -13.2318  -44.6949 H         1 UNK         0.0600 
    173 H173        4.2562  -11.6081  -44.1657 H         1 UNK         0.0600 
    174 H174        2.2812  -12.9996  -45.0702 H         1 UNK         0.3000 
    175 H175       -0.0475  -13.7545  -45.6429 H         1 UNK         0.0600 
    176 H176       -1.9903  -12.1239  -43.9129 H         1 UNK         0.0600 
    177 H177       -2.3866  -12.9422  -45.4235 H         1 UNK         0.0600 
    178 H178       -1.9529  -13.8823  -44.0087 H         1 UNK         0.0600 
    179 H179        0.5852  -10.9755  -45.1810 H         1 UNK         0.3000 
    180 H180       -0.1172  -10.0654  -48.5826 H         1 UNK         0.0600 
    181 H181       -0.6561   -8.8197  -45.8377 H         1 UNK         0.0600 
    182 H182       -1.8513   -9.1391  -47.0837 H         1 UNK         0.0600 
    183 H183       -0.5834   -7.9585  -47.3739 H         1 UNK         0.0600 
    184 H184        2.0146   -9.6960  -48.2926 H         1 UNK         0.3000 
    185 H185        3.8019   -8.3902  -47.3518 H         1 UNK         0.0600 
    186 H186        4.4810   -9.3539  -44.5228 H         1 UNK         0.0600 
    187 H187        5.5310   -8.4085  -45.5749 H         1 UNK         0.0600 
    188 H188        4.0283   -7.7203  -44.9819 H         1 UNK         0.0600 
    189 H189        4.8498  -10.9572  -46.3692 H         1 UNK         0.3000 
    190 H190       -1.8796  -21.5943  -46.9054 H         1 UNK         0.3000 
    191 H191       -3.9739  -22.5099  -48.5680 H         1 UNK         0.0600 
    192 H192       -3.9806  -21.9297  -45.5626 H         1 UNK         0.0600 
    193 H193       -5.4093  -22.0742  -46.5799 H         1 UNK         0.0600 
    194 H194       -4.2749  -20.7583  -46.8439 H         1 UNK         0.0600 
    195 H195       -2.4220  -24.0951  -45.7355 H         1 UNK         0.3000 
    196 H196       -4.0438  -26.4234  -45.7274 H         1 UNK         0.0600 
    197 H197       -2.2065  -27.3874  -44.3414 H         1 UNK         0.0600 
    198 H198       -2.6306  -25.7681  -43.8077 H         1 UNK         0.0600 
    199 H199       -1.1663  -26.0297  -44.7511 H         1 UNK         0.0600 
    200 H200       -0.8975  -25.7691  -47.3502 H         1 UNK         0.3000 
    201 H201       -0.5747  -28.3067  -48.5618 H         1 UNK         0.0600 
    202 H202        1.2644  -26.6655  -48.3180 H         1 UNK         0.0600 
    203 H203        0.4660  -25.5588  -49.4328 H         1 UNK         0.0600 
    204 H204        1.0734  -27.1068  -50.0082 H         1 UNK         0.0600 
    205 H205       -2.2352  -25.3639  -49.7396 H         1 UNK         0.3000 
    206 H206       -2.9958  -26.4782  -52.2985 H         1 UNK         0.0600 
    207 H207       -2.7154  -24.0386  -51.9212 H         1 UNK         0.0600 
    208 H208       -4.3565  -24.3836  -52.4377 H         1 UNK         0.0600 
    209 H209       -4.0281  -24.0476  -50.7431 H         1 UNK         0.0600 
    210 H210       -4.1580  -27.1141  -49.1708 H         1 UNK         0.3000 
    211 H211       -5.9385  -28.0153  -48.2334 H         1 UNK         0.0600 
    212 H212       -6.7049  -29.0650  -51.0102 H         1 UNK         0.0600 
    213 H213       -7.2698  -29.6845  -49.4652 H         1 UNK         0.0600 
    214 H214       -5.5767  -29.8455  -49.9026 H         1 UNK         0.0600 
    215 H215       -6.0876  -25.3698  -48.7268 H         1 UNK         0.3000 
    216 H216       -7.3267  -23.5778  -48.6641 H         1 UNK         0.0600 
    217 H217       -9.6228  -23.6743  -47.8006 H         1 UNK         0.0600 
    218 H218       -8.6429  -24.8674  -46.9670 H         1 UNK         0.0600 
    219 H219       -9.7678  -25.3724  -48.2280 H         1 UNK         0.0600 
    220 H220       -7.0526  -25.0702  -51.3385 H         1 UNK         0.3000 
    221 H221       -9.2472  -24.1175  -52.9663 H         1 UNK         0.0600 
    222 H222       -6.4135  -24.9852  -53.7645 H         1 UNK         0.0600 
    223 H223       -7.7911  -26.0724  -53.5940 H         1 UNK         0.0600 
    224 H224       -7.7961  -24.8357  -54.8394 H         1 UNK         0.0600 
    225 H225       -9.0128  -22.5459  -54.6769 H         1 UNK         0.3000 
    226 H226       -8.1999  -19.9883  -53.8194 H         1 UNK         0.0600 
    227 H227      -10.1200  -20.4254  -55.3345 H         1 UNK         0.0600 
    228 H228       -8.9984  -19.3069  -56.0888 H         1 UNK         0.0600 
    229 H229       -9.0252  -20.9908  -56.5977 H         1 UNK         0.0600 
    230 H230       -6.1703  -22.3560  -55.0467 H         1 UNK         0.3000 
    231 H231       -4.2256  -20.8025  -56.4924 H         1 UNK         0.0600 
    232 H232       -2.7802  -22.7964  -56.0488 H         1 UNK         0.0600 
    233 H233       -4.3570  -23.2841  -56.6488 H         1 UNK         0.0600 
    234 H234       -3.9800  -23.4353  -54.9318 H         1 UNK         0.0600 
    235 H235       -5.0473  -21.0639  -53.1056 H         1 UNK         0.3000 
    236 H236       -2.6755  -19.4233  -52.3309 H         1 UNK         0.0600 
    237 H237       -2.5119  -21.6871  -51.2976 H         1 UNK         0.0600 
    238 H238       -2.9004  -20.4980  -50.0686 H         1 UNK         0.0600 
    239 H239       -4.1644  -21.5529  -50.6987 H         1 UNK         0.0600 
    240 H240       -3.1959  -18.0732  -50.4106 H         1 UNK         0.3000 
    241 H241       -5.6699  -16.6153  -50.7728 H         1 UNK         0.0600 
    242 H242       -5.1220  -19.4115  -48.8921 H         1 UNK         0.3800 
    243 H243       -6.3825  -19.1075  -47.7239 H         1 UNK         0.3800 
    244 H244       -3.7832  -15.2422  -50.4655 H         1 UNK         0.0800 
    245 H245       -4.6734  -15.0916  -48.9890 H         1 UNK         0.0800 
    246 H246       -1.2650  -14.7079  -49.8418 H         1 UNK         0.0800 
    247 H247       -1.5218  -16.1616  -50.7787 H         1 UNK         0.0800 
@<TRIPOS>BOND
     1    1    2 1    
     2    1  127 1    
     3    1  128 1    
     4    1  129 1    
     5    2    3 2    
     6    2    4 am   BACKBONE|DICT|INTERRES
     7    4    5 1    
     8    4  130 1    
     9    5    6 1    
    10    5   65 1    
    11    5  131 1    
    12    6    7 1    
    13    6  132 1    
    14    6  133 1    
    15    7    8 1    
    16    8    9 1    
    17    8  134 1    
    18    8  135 1    
    19    9   10 ar   
    20    9   14 ar   
    21   10   11 ar   
    22   10  136 1    
    23   11   12 ar   
    24   11  126 1    
    25   12   13 ar   
    26   12  137 1    
    27   13   14 ar   
    28   13   15 1    
    29   14  138 1    
    30   15   16 1    
    31   15  139 1    
    32   15  140 1    
    33   16   17 1    
    34   17   18 1    
    35   17  141 1    
    36   17  142 1    
    37   18   19 1    
    38   18   67 1    
    39   18  143 1    
    40   19   20 am   BACKBONE|DICT|INTERRES
    41   19  144 1    
    42   20   21 2    
    43   20   22 1    
    44   22   23 1    
    45   22   24 1    
    46   22  145 1    
    47   23  146 1    
    48   23  147 1    
    49   23  148 1    
    50   24   25 am   BACKBONE|DICT|INTERRES
    51   24  149 1    
    52   25   26 2    
    53   25   27 1    
    54   27   28 1    
    55   27   29 1    
    56   27  150 1    
    57   28  151 1    
    58   28  152 1    
    59   28  153 1    
    60   29   30 am   BACKBONE|DICT|INTERRES
    61   29  154 1    
    62   30   31 2    
    63   30   32 1    
    64   32   33 1    
    65   32   34 1    
    66   32  155 1    
    67   33  156 1    
    68   33  157 1    
    69   33  158 1    
    70   34   35 am   BACKBONE|DICT|INTERRES
    71   34  159 1    
    72   35   36 2    
    73   35   37 1    
    74   37   38 1    
    75   37   39 1    
    76   37  160 1    
    77   38  161 1    
    78   38  162 1    
    79   38  163 1    
    80   39   40 am   BACKBONE|DICT|INTERRES
    81   39  164 1    
    82   40   41 2    
    83   40   42 1    
    84   42   43 1    
    85   42   44 1    
    86   42  165 1    
    87   43  166 1    
    88   43  167 1    
    89   43  168 1    
    90   44   45 am   BACKBONE|DICT|INTERRES
    91   44  169 1    
    92   45   46 2    
    93   45   47 1    
    94   47   48 1    
    95   47   49 1    
    96   47  170 1    
    97   48  171 1    
    98   48  172 1    
    99   48  173 1    
   100   49   50 am   BACKBONE|DICT|INTERRES
   101   49  174 1    
   102   50   51 2    
   103   50   52 1    
   104   52   53 1    
   105   52   54 1    
   106   52  175 1    
   107   53  176 1    
   108   53  177 1    
   109   53  178 1    
   110   54   55 am   BACKBONE|DICT|INTERRES
   111   54  179 1    
   112   55   56 2    
   113   55   57 1    
   114   57   58 1    
   115   57   59 1    
   116   57  180 1    
   117   58  181 1    
   118   58  182 1    
   119   58  183 1    
   120   59   60 am   BACKBONE|DICT|INTERRES
   121   59  184 1    
   122   60   61 2    
   123   60   62 1    
   124   62   63 1    
   125   62   64 1    
   126   62  185 1    
   127   63  186 1    
   128   63  187 1    
   129   63  188 1    
   130   64   65 am   BACKBONE|DICT|INTERRES
   131   64  189 1    
   132   65   66 2    
   133   67   68 2    
   134   67   69 am   BACKBONE|DICT|INTERRES
   135   69   70 1    
   136   69  190 1    
   137   70   71 1    
   138   70   72 1    
   139   70  191 1    
   140   71  192 1    
   141   71  193 1    
   142   71  194 1    
   143   72   73 2    
   144   72   74 am   BACKBONE|DICT|INTERRES
   145   74   75 1    
   146   74  195 1    
   147   75   76 1    
   148   75   77 1    
   149   75  196 1    
   150   76  197 1    
   151   76  198 1    
   152   76  199 1    
   153   77   78 2    
   154   77   79 am   BACKBONE|DICT|INTERRES
   155   79   80 1    
   156   79  200 1    
   157   80   81 1    
   158   80   82 1    
   159   80  201 1    
   160   81  202 1    
   161   81  203 1    
   162   81  204 1    
   163   82   83 2    
   164   82   84 am   BACKBONE|DICT|INTERRES
   165   84   85 1    
   166   84  205 1    
   167   85   86 1    
   168   85   87 1    
   169   85  206 1    
   170   86  207 1    
   171   86  208 1    
   172   86  209 1    
   173   87   88 2    
   174   87   89 am   BACKBONE|DICT|INTERRES
   175   89   90 1    
   176   89  210 1    
   177   90   91 1    
   178   90   92 1    
   179   90  211 1    
   180   91  212 1    
   181   91  213 1    
   182   91  214 1    
   183   92   93 2    
   184   92   94 am   BACKBONE|DICT|INTERRES
   185   94   95 1    
   186   94  215 1    
   187   95   96 1    
   188   95   97 1    
   189   95  216 1    
   190   96  217 1    
   191   96  218 1    
   192   96  219 1    
   193   97   98 2    
   194   97   99 am   BACKBONE|DICT|INTERRES
   195   99  100 1    
   196   99  220 1    
   197  100  101 1    
   198  100  102 1    
   199  100  221 1    
   200  101  222 1    
   201  101  223 1    
   202  101  224 1    
   203  102  103 2    
   204  102  104 am   BACKBONE|DICT|INTERRES
   205  104  105 1    
   206  104  225 1    
   207  105  106 1    
   208  105  107 1    
   209  105  226 1    
   210  106  227 1    
   211  106  228 1    
   212  106  229 1    
   213  107  108 2    
   214  107  109 am   BACKBONE|DICT|INTERRES
   215  109  110 1    
   216  109  230 1    
   217  110  111 1    
   218  110  112 1    
   219  110  231 1    
   220  111  232 1    
   221  111  233 1    
   222  111  234 1    
   223  112  113 2    
   224  112  114 am   BACKBONE|DICT|INTERRES
   225  114  115 1    
   226  114  235 1    
   227  115  116 1    
   228  115  117 1    
   229  115  236 1    
   230  116  237 1    
   231  116  238 1    
   232  116  239 1    
   233  117  118 2    
   234  117  119 am   BACKBONE|DICT|INTERRES
   235  119  120 1    
   236  119  240 1    
   237  120  121 1    
   238  120  124 1    
   239  120  241 1    
   240  121  122 am   BACKBONE|DICT|INTERRES
   241  121  123 2    
   242  122  242 1    
   243  122  243 1    
   244  124  125 1    
   245  124  244 1    
   246  124  245 1    
   247  125  126 1    
   248  126  246 1    
   249  126  247 1    
@<TRIPOS>SUBSTRUCTURE
     1 UNK         1 GROUP             0       ****    0 ROOT    
