@<TRIPOS>MOLECULE
3R540
247   249    1
SMALL
USER_CHARGES


@<TRIPOS>ATOM
      1 CA          2.1976  -15.8161  -50.2330 C.3       0 UNK        -0.1800 
      2 C           0.7569  -15.3965  -49.9850 C.2       0 UNK         0.5000 
      3 O           0.3130  -14.3937  -50.5444 O.2       0 UNK        -0.5000 
      4 N           0.0432  -16.1340  -49.1216 N.am      1 UNK        -0.5000 
      5 CA         -1.3385  -15.9199  -48.6570 C.3       1 UNK         0.1400 
      6 C6         -2.4140  -16.0023  -49.7730 C.3       23 UNK        -0.0398 
      7 S7         -2.8159  -17.7246  -50.2208 S.3       23 UNK        -0.2404 
      8 C8         -2.0895  -17.8791  -51.8889 C.3       23 UNK        -0.0205 
      9 C9         -0.6013  -18.2093  -51.9026 C.ar      23 UNK        -0.0193 
     10 C10         0.2006  -17.7106  -52.9314 C.ar      23 UNK        -0.1150 
     11 C11         1.5660  -18.0240  -53.0012 C.ar      23 UNK        -0.0193 
     12 C12         2.1213  -18.8422  -52.0117 C.ar      23 UNK        -0.1150 
     13 C13         1.3338  -19.3438  -50.9726 C.ar      23 UNK        -0.0193 
     14 C14        -0.0274  -19.0403  -50.9366 C.ar      23 UNK        -0.1150 
     15 C15         1.9389  -20.2103  -49.8809 C.3       23 UNK        -0.0205 
     16 S16         1.8282  -19.3898  -48.2575 S.3       23 UNK        -0.2404 
     17 C17         2.1563  -20.8038  -47.1441 C.3       23 UNK        -0.0398 
     18 CA          0.9922  -21.7981  -46.8194 C.3       11 UNK         0.1400 
     19 N           0.9196  -22.1287  -45.3917 N.am      11 UNK        -0.5000 
     20 C           0.3055  -23.2184  -44.9013 C.2       10 UNK         0.5000 
     21 O          -0.2233  -24.0728  -45.6105 O.2       10 UNK        -0.5000 
     22 CA          0.2221  -23.3699  -43.3682 C.3       10 UNK         0.1400 
     23 CB          1.4235  -24.1690  -42.8432 C.3       10 UNK        -0.1800 
     24 N           0.1513  -22.0952  -42.6568 N.am      10 UNK        -0.5000 
     25 C          -0.7819  -21.1517  -42.8438 C.2       9 UNK         0.5000 
     26 O          -1.7669  -21.3049  -43.5668 O.2       9 UNK        -0.5000 
     27 CA         -0.5415  -19.7871  -42.1672 C.3       9 UNK         0.1400 
     28 CB         -1.4434  -19.6334  -40.9358 C.3       9 UNK        -0.1800 
     29 N           0.8564  -19.5256  -41.7895 N.am      9 UNK        -0.5000 
     30 C           1.9066  -19.5223  -42.6290 C.2       8 UNK         0.5000 
     31 O           1.8001  -19.7429  -43.8353 O.2       8 UNK        -0.5000 
     32 CA          3.3128  -19.2769  -42.0467 C.3       8 UNK         0.1400 
     33 CB          3.9625  -18.0251  -42.6567 C.3       8 UNK        -0.1800 
     34 N           3.3290  -19.1776  -40.5867 N.am      8 UNK        -0.5000 
     35 C           3.3042  -20.2344  -39.7608 C.2       7 UNK         0.5000 
     36 O           3.2760  -21.4004  -40.1565 O.2       7 UNK        -0.5000 
     37 CA          3.2860  -19.9562  -38.2436 C.3       7 UNK         0.1400 
     38 CB          4.6952  -20.1159  -37.6529 C.3       7 UNK        -0.1800 
     39 N           2.7682  -18.6347  -37.8822 N.am      7 UNK        -0.5000 
     40 C           1.5139  -18.2137  -38.0916 C.2       6 UNK         0.5000 
     41 O           0.6482  -18.9091  -38.6229 O.2       6 UNK        -0.5000 
     42 CA          1.1658  -16.7684  -37.6738 C.3       6 UNK         0.1400 
     43 CB          2.2832  -16.0528  -36.8808 C.3       6 UNK        -0.1800 
     44 N           0.7591  -15.9465  -38.8195 N.am      6 UNK        -0.5000 
     45 C           1.4542  -15.7423  -39.9472 C.2       5 UNK         0.5000 
     46 O           2.5531  -16.2517  -40.1816 O.2       5 UNK        -0.5000 
     47 CA          0.8364  -14.7609  -40.9564 C.3       5 UNK         0.1400 
     48 CB          1.3583  -13.3386  -40.7022 C.3       5 UNK        -0.1800 
     49 N           1.1778  -15.1424  -42.3235 N.am      5 UNK        -0.5000 
     50 C           0.4534  -15.9540  -43.0992 C.2       4 UNK         0.5000 
     51 O          -0.6300  -16.4269  -42.7545 O.2       4 UNK        -0.5000 
     52 CA          1.0307  -16.2599  -44.4995 C.3       4 UNK         0.1400 
     53 CB          0.1240  -17.1812  -45.3318 C.3       4 UNK        -0.1800 
     54 N           1.2787  -15.0419  -45.2714 N.am      4 UNK        -0.5000 
     55 C           2.3295  -14.2218  -45.1344 C.2       3 UNK         0.5000 
     56 O           3.2053  -14.3866  -44.2841 O.2       3 UNK        -0.5000 
     57 CA          2.4346  -13.0294  -46.1072 C.3       3 UNK         0.1400 
     58 CB          3.6523  -13.1999  -47.0296 C.3       3 UNK        -0.1800 
     59 N           1.2426  -12.8651  -46.9420 N.am      3 UNK        -0.5000 
     60 C           0.1398  -12.1886  -46.5925 C.2       2 UNK         0.5000 
     61 O           0.0103  -11.5913  -45.5241 O.2       2 UNK        -0.5000 
     62 CA         -1.0221  -12.2126  -47.6045 C.3       2 UNK         0.1400 
     63 CB         -0.8864  -11.0624  -48.6132 C.3       2 UNK        -0.1800 
     64 N          -1.0888  -13.4833  -48.3299 N.am      2 UNK        -0.5000 
     65 C          -1.4969  -14.6426  -47.8013 C.2       1 UNK         0.5000 
     66 O          -1.9474  -14.7340  -46.6604 O.2       1 UNK        -0.5000 
     67 C          -0.4043  -21.4257  -47.3705 C.2       11 UNK         0.5000 
     68 O          -0.7838  -21.9223  -48.4306 O.2       11 UNK        -0.5000 
     69 N          -1.1674  -20.6130  -46.6237 N.am      12 UNK        -0.5000 
     70 CA         -2.5418  -20.2425  -46.9736 C.3       12 UNK         0.1400 
     71 CB         -3.0280  -19.0964  -46.0761 C.3       12 UNK        -0.1800 
     72 C          -3.5113  -21.4350  -46.9051 C.2       12 UNK         0.5000 
     73 O          -4.4190  -21.5241  -47.7329 O.2       12 UNK        -0.5000 
     74 N          -3.2827  -22.3409  -45.9435 N.am      13 UNK        -0.5000 
     75 CA         -4.0059  -23.6040  -45.8067 C.3       13 UNK         0.1400 
     76 CB         -3.6627  -24.2580  -44.4603 C.3       13 UNK        -0.1800 
     77 C          -3.7258  -24.5631  -46.9783 C.2       13 UNK         0.5000 
     78 O          -4.6708  -25.1126  -47.5438 O.2       13 UNK        -0.5000 
     79 N          -2.4469  -24.7107  -47.3567 N.am      14 UNK        -0.5000 
     80 CA         -2.0004  -25.5084  -48.5039 C.3       14 UNK         0.1400 
     81 CB         -0.4672  -25.6001  -48.5033 C.3       14 UNK        -0.1800 
     82 C          -2.5100  -24.9602  -49.8501 C.2       14 UNK         0.5000 
     83 O          -2.8866  -25.7409  -50.7243 O.2       14 UNK        -0.5000 
     84 N          -2.5558  -23.6275  -49.9714 N.am      15 UNK        -0.5000 
     85 CA         -3.1377  -22.9028  -51.1010 C.3       15 UNK         0.1400 
     86 CB         -2.5886  -21.4725  -51.0991 C.3       15 UNK        -0.1800 
     87 C          -4.6795  -22.8774  -51.0947 C.2       15 UNK         0.5000 
     88 O          -5.2680  -22.3546  -52.0418 O.2       15 UNK        -0.5000 
     89 N          -5.3055  -23.4023  -50.0305 N.am      16 UNK        -0.5000 
     90 CA         -6.7479  -23.4846  -49.7918 C.3       16 UNK         0.1400 
     91 CB         -7.3733  -24.5607  -50.7014 C.3       16 UNK        -0.1800 
     92 C          -7.4457  -22.1118  -49.8808 C.2       16 UNK         0.5000 
     93 O          -8.4640  -21.9752  -50.5601 O.2       16 UNK        -0.5000 
     94 N          -6.8497  -21.1146  -49.2091 N.am      17 UNK        -0.5000 
     95 CA         -7.2563  -19.7056  -49.1750 C.3       17 UNK         0.1400 
     96 CB         -8.6115  -19.5395  -48.4557 C.3       17 UNK        -0.1800 
     97 C          -7.2179  -19.0461  -50.5707 C.2       17 UNK         0.5000 
     98 O          -8.1623  -18.3593  -50.9643 O.2       17 UNK        -0.5000 
     99 N          -6.1080  -19.2801  -51.2848 N.am      18 UNK        -0.5000 
    100 CA        -5.7800  -18.7702  -52.6208 C.3       18 UNK         0.1400 
    101 CB        -5.7243  -17.2269  -52.6404 C.3       18 UNK        -0.1800 
    102 C         -6.6504  -19.3501  -53.7536 C.2       18 UNK         0.5000 
    103 O         -6.7840  -18.7199  -54.8045 O.2       18 UNK        -0.5000 
    104 N         -7.1947  -20.5568  -53.5490 N.am      19 UNK        -0.5000 
    105 CA        -7.8040  -21.3613  -54.6101 C.3       19 UNK         0.1400 
    106 CB        -8.7518  -22.3948  -53.9867 C.3       19 UNK        -0.1800 
    107 C         -6.7301  -22.0513  -55.4760 C.2       19 UNK         0.5000 
    108 O         -6.9584  -22.2791  -56.6648 O.2       19 UNK        -0.5000 
    109 N         -5.5784  -22.3469  -54.8642 N.am      20 UNK        -0.5000 
    110 CA        -4.3634  -22.8602  -55.4834 C.3       20 UNK         0.1400 
    111 CB        -4.1246  -24.2929  -54.9698 C.3       20 UNK        -0.1800 
    112 C         -3.1874  -21.9122  -55.1679 C.2       20 UNK         0.5000 
    113 O         -3.4001  -20.8019  -54.6705 O.2       20 UNK        -0.5000 
    114 N         -1.9649  -22.3630  -55.4859 N.am      21 UNK        -0.5000 
    115 CA        -0.7030  -21.6155  -55.4171 C.3       21 UNK         0.1400 
    116 CB        -0.3436  -21.2582  -53.9585 C.3       21 UNK        -0.1800 
    117 C         -0.7037  -20.4131  -56.3878 C.2       21 UNK         0.5000 
    118 O         -1.2946  -20.5188  -57.4658 O.2       21 UNK        -0.5000 
    119 N         -0.0337  -19.3110  -56.0241 N.am      22 UNK        -0.5000 
    120 CA         0.0309  -18.0818  -56.8354 C.3       22 UNK         0.1400 
    121 C         -1.1817  -17.1171  -56.6579 C.2       22 UNK         0.5000 
    122 N         -2.1847  -17.4474  -55.8516 N.am      22 UNK        -0.7600 
    123 O         -1.2266  -16.0610  -57.2830 O.2       22 UNK        -0.5000 
    124 C124        1.4215  -17.3929  -56.7421 C.3       23 UNK        -0.0398 
    125 S125        1.7322  -16.3310  -55.2858 S.3       23 UNK        -0.2404 
    126 C126        2.4939  -17.4861  -54.0929 C.3       23 UNK        -0.0205 
    127 H127        2.4237  -16.7818  -49.7819 H         1 UNK         0.0600 
    128 H128        2.8805  -15.0762  -49.8172 H         1 UNK         0.0600 
    129 H129        2.3876  -15.8860  -51.3032 H         1 UNK         0.0600 
    130 H130        0.4872  -16.9546  -48.7329 H         1 UNK         0.3000 
    131 H131       -1.5270  -16.7442  -47.9679 H         1 UNK         0.0600 
    132 H132       -2.1185  -15.4354  -50.6560 H         1 UNK         0.0800 
    133 H133       -3.3530  -15.5563  -49.4396 H         1 UNK         0.0800 
    134 H134       -2.2896  -16.9671  -52.4531 H         1 UNK         0.0800 
    135 H135       -2.6012  -18.6784  -52.4208 H         1 UNK         0.0800 
    136 H136       -0.2577  -17.0744  -53.6729 H         1 UNK         0.1150 
    137 H137        3.1759  -19.0777  -52.0437 H         1 UNK         0.1150 
    138 H138       -0.6327  -19.4456  -50.1384 H         1 UNK         0.1150 
    139 H139        1.4073  -21.1622  -49.8577 H         1 UNK         0.0800 
    140 H140        2.9833  -20.4406  -50.0962 H         1 UNK         0.0800 
    141 H141        2.5393  -20.3637  -46.2240 H         1 UNK         0.0800 
    142 H142        3.0028  -21.3611  -47.5477 H         1 UNK         0.0800 
    143 H143        1.2523  -22.7271  -47.3323 H         1 UNK         0.0600 
    144 H144        1.2954  -21.4386  -44.7483 H         1 UNK         0.3000 
    145 H145       -0.6875  -23.9267  -43.1376 H         1 UNK         0.0600 
    146 H146        1.3352  -24.3576  -41.7731 H         1 UNK         0.0600 
    147 H147        1.4945  -25.1385  -43.3384 H         1 UNK         0.0600 
    148 H148        2.3631  -23.6420  -43.0146 H         1 UNK         0.0600 
    149 H149        0.9230  -21.8788  -42.0425 H         1 UNK         0.3000 
    150 H150       -0.8360  -19.0283  -42.8912 H         1 UNK         0.0600 
    151 H151       -2.4905  -19.7993  -41.1926 H         1 UNK         0.0600 
    152 H152       -1.3691  -18.6285  -40.5192 H         1 UNK         0.0600 
    153 H153       -1.1791  -20.3450  -40.1528 H         1 UNK         0.0600 
    154 H154        1.0217  -19.3396  -40.8078 H         1 UNK         0.3000 
    155 H155        3.9245  -20.1321  -42.3414 H         1 UNK         0.0600 
    156 H156        3.3917  -17.1232  -42.4437 H         1 UNK         0.0600 
    157 H157        4.0404  -18.1137  -43.7410 H         1 UNK         0.0600 
    158 H158        4.9720  -17.8787  -42.2724 H         1 UNK         0.0600 
    159 H159        3.2966  -18.2404  -40.1986 H         1 UNK         0.3000 
    160 H160        2.6367  -20.7049  -37.7851 H         1 UNK         0.0600 
    161 H161        5.3866  -19.3755  -38.0573 H         1 UNK         0.0600 
    162 H162        5.1035  -21.1026  -37.8757 H         1 UNK         0.0600 
    163 H163        4.6835  -20.0088  -36.5680 H         1 UNK         0.0600 
    164 H164        3.4259  -17.9910  -37.4670 H         1 UNK         0.3000 
    165 H165        0.2955  -16.8452  -37.0205 H         1 UNK         0.0600 
    166 H166        1.9531  -15.0673  -36.5520 H         1 UNK         0.0600 
    167 H167        2.5530  -16.6120  -35.9840 H         1 UNK         0.0600 
    168 H168        3.1871  -15.9122  -37.4749 H         1 UNK         0.0600 
    169 H169       -0.1442  -15.5030  -38.7287 H         1 UNK         0.3000 
    170 H170       -0.2489  -14.7578  -40.8344 H         1 UNK         0.0600 
    171 H171        1.1096  -13.0039  -39.6943 H         1 UNK         0.0600 
    172 H172        2.4426  -13.2826  -40.8090 H         1 UNK         0.0600 
    173 H173        0.9163  -12.6266  -41.3996 H         1 UNK         0.0600 
    174 H174        2.0698  -14.8156  -42.6799 H         1 UNK         0.3000 
    175 H175        1.9793  -16.7791  -44.3593 H         1 UNK         0.0600 
    176 H176       -0.8673  -16.7494  -45.4542 H         1 UNK         0.0600 
    177 H177        0.5420  -17.3639  -46.3210 H         1 UNK         0.0600 
    178 H178       -0.0030  -18.1509  -44.8551 H         1 UNK         0.0600 
    179 H179        0.5674  -14.7892  -45.9405 H         1 UNK         0.3000 
    180 H180        2.5833  -12.1286  -45.5080 H         1 UNK         0.0600 
    181 H181        3.5780  -14.1064  -47.6312 H         1 UNK         0.0600 
    182 H182        4.5751  -13.2658  -46.4517 H         1 UNK         0.0600 
    183 H183        3.7564  -12.3528  -47.7079 H         1 UNK         0.0600 
    184 H184        1.2597  -13.3132  -47.8459 H         1 UNK         0.3000 
    185 H185       -1.9537  -12.0759  -47.0511 H         1 UNK         0.0600 
    186 H186       -0.8467  -10.0986  -48.1038 H         1 UNK         0.0600 
    187 H187        0.0203  -11.1561  -49.2124 H         1 UNK         0.0600 
    188 H188       -1.7368  -11.0347  -49.2947 H         1 UNK         0.0600 
    189 H189       -0.6886  -13.5117  -49.2655 H         1 UNK         0.3000 
    190 H190       -0.8143  -20.2869  -45.7367 H         1 UNK         0.3000 
    191 H191       -2.5409  -19.8824  -48.0042 H         1 UNK         0.0600 
    192 H192       -2.9579  -19.3481  -45.0177 H         1 UNK         0.0600 
    193 H193       -4.0694  -18.8501  -46.2873 H         1 UNK         0.0600 
    194 H194       -2.4482  -18.1927  -46.2490 H         1 UNK         0.0600 
    195 H195       -2.5595  -22.1460  -45.2595 H         1 UNK         0.3000 
    196 H196       -5.0742  -23.3769  -45.8079 H         1 UNK         0.0600 
    197 H197       -4.2623  -25.1549  -44.3012 H         1 UNK         0.0600 
    198 H198       -3.8611  -23.5807  -43.6293 H         1 UNK         0.0600 
    199 H199       -2.6156  -24.5535  -44.4093 H         1 UNK         0.0600 
    200 H200       -1.7163  -24.2639  -46.8096 H         1 UNK         0.3000 
    201 H201       -2.4014  -26.5169  -48.3843 H         1 UNK         0.0600 
    202 H202       -0.1010  -26.0684  -47.5896 H         1 UNK         0.0600 
    203 H203       -0.0053  -24.6156  -48.5832 H         1 UNK         0.0600 
    204 H204       -0.1105  -26.2000  -49.3415 H         1 UNK         0.0600 
    205 H205       -2.1463  -23.0574  -49.2363 H         1 UNK         0.3000 
    206 H206       -2.8180  -23.3858  -52.0256 H         1 UNK         0.0600 
    207 H207       -1.5003  -21.4745  -51.1442 H         1 UNK         0.0600 
    208 H208       -2.9497  -20.9172  -51.9637 H         1 UNK         0.0600 
    209 H209       -2.8880  -20.9257  -50.2050 H         1 UNK         0.0600 
    210 H210       -4.7310  -23.7809  -49.2885 H         1 UNK         0.3000 
    211 H211       -6.8727  -23.8155  -48.7600 H         1 UNK         0.0600 
    212 H212       -7.2107  -24.3440  -51.7559 H         1 UNK         0.0600 
    213 H213       -8.4486  -24.6431  -50.5393 H         1 UNK         0.0600 
    214 H214       -6.9400  -25.5398  -50.4968 H         1 UNK         0.0600 
    215 H215       -5.9949  -21.3327  -48.6986 H         1 UNK         0.3000 
    216 H216       -6.5047  -19.1892  -48.5760 H         1 UNK         0.0600 
    217 H217       -8.8526  -18.4848  -48.3187 H         1 UNK         0.0600 
    218 H218       -8.5911  -19.9981  -47.4672 H         1 UNK         0.0600 
    219 H219       -9.4296  -19.9902  -49.0182 H         1 UNK         0.0600 
    220 H220       -5.4172  -19.8956  -50.8800 H         1 UNK         0.3000 
    221 H221       -4.7752  -19.1355  -52.8275 H         1 UNK         0.0600 
    222 H222       -6.7192  -16.7854  -52.5793 H         1 UNK         0.0600 
    223 H223       -5.1357  -16.8360  -51.8119 H         1 UNK         0.0600 
    224 H224       -5.2644  -16.8661  -53.5610 H         1 UNK         0.0600 
    225 H225       -7.0177  -21.0232  -52.6679 H         1 UNK         0.3000 
    226 H226       -8.3945  -20.7110  -55.2589 H         1 UNK         0.0600 
    227 H227       -9.5247  -21.9117  -53.3886 H         1 UNK         0.0600 
    228 H228       -9.2524  -22.9812  -54.7580 H         1 UNK         0.0600 
    229 H229       -8.2161  -23.0891  -53.3417 H         1 UNK         0.0600 
    230 H230       -5.4819  -22.1123  -53.8787 H         1 UNK         0.3000 
    231 H231       -4.4729  -22.8861  -56.5692 H         1 UNK         0.0600 
    232 H232       -4.9890  -24.9265  -55.1692 H         1 UNK         0.0600 
    233 H233       -3.9446  -24.3120  -53.8952 H         1 UNK         0.0600 
    234 H234       -3.2698  -24.7604  -55.4587 H         1 UNK         0.0600 
    235 H235       -1.8965  -23.2722  -55.9200 H         1 UNK         0.3000 
    236 H236        0.0681  -22.2939  -55.7844 H         1 UNK         0.0600 
    237 H237        0.6750  -20.8776  -53.8796 H         1 UNK         0.0600 
    238 H238       -1.0128  -20.5026  -53.5492 H         1 UNK         0.0600 
    239 H239       -0.4030  -22.1361  -53.3153 H         1 UNK         0.0600 
    240 H240        0.4061  -19.2728  -55.1160 H         1 UNK         0.3000 
    241 H241       -0.0463  -18.3925  -57.8791 H         1 UNK         0.0600 
    242 H242       -2.1961  -18.3398  -55.3830 H         1 UNK         0.3800 
    243 H243       -2.9691  -16.8220  -55.7630 H         1 UNK         0.3800 
    244 H244        2.2149  -18.1359  -56.8295 H         1 UNK         0.0800 
    245 H245        1.5473  -16.7507  -57.6153 H         1 UNK         0.0800 
    246 H246        3.3133  -16.9554  -53.6059 H         1 UNK         0.0800 
    247 H247        2.9499  -18.3233  -54.6224 H         1 UNK         0.0800 
@<TRIPOS>BOND
     1    1    2 1    
     2    1  127 1    
     3    1  128 1    
     4    1  129 1    
     5    2    3 2    
     6    2    4 am   BACKBONE|DICT|INTERRES
     7    4    5 1    
     8    4  130 1    
     9    5    6 1    
    10    5   65 1    
    11    5  131 1    
    12    6    7 1    
    13    6  132 1    
    14    6  133 1    
    15    7    8 1    
    16    8    9 1    
    17    8  134 1    
    18    8  135 1    
    19    9   10 ar   
    20    9   14 ar   
    21   10   11 ar   
    22   10  136 1    
    23   11   12 ar   
    24   11  126 1    
    25   12   13 ar   
    26   12  137 1    
    27   13   14 ar   
    28   13   15 1    
    29   14  138 1    
    30   15   16 1    
    31   15  139 1    
    32   15  140 1    
    33   16   17 1    
    34   17   18 1    
    35   17  141 1    
    36   17  142 1    
    37   18   19 1    
    38   18   67 1    
    39   18  143 1    
    40   19   20 am   BACKBONE|DICT|INTERRES
    41   19  144 1    
    42   20   21 2    
    43   20   22 1    
    44   22   23 1    
    45   22   24 1    
    46   22  145 1    
    47   23  146 1    
    48   23  147 1    
    49   23  148 1    
    50   24   25 am   BACKBONE|DICT|INTERRES
    51   24  149 1    
    52   25   26 2    
    53   25   27 1    
    54   27   28 1    
    55   27   29 1    
    56   27  150 1    
    57   28  151 1    
    58   28  152 1    
    59   28  153 1    
    60   29   30 am   BACKBONE|DICT|INTERRES
    61   29  154 1    
    62   30   31 2    
    63   30   32 1    
    64   32   33 1    
    65   32   34 1    
    66   32  155 1    
    67   33  156 1    
    68   33  157 1    
    69   33  158 1    
    70   34   35 am   BACKBONE|DICT|INTERRES
    71   34  159 1    
    72   35   36 2    
    73   35   37 1    
    74   37   38 1    
    75   37   39 1    
    76   37  160 1    
    77   38  161 1    
    78   38  162 1    
    79   38  163 1    
    80   39   40 am   BACKBONE|DICT|INTERRES
    81   39  164 1    
    82   40   41 2    
    83   40   42 1    
    84   42   43 1    
    85   42   44 1    
    86   42  165 1    
    87   43  166 1    
    88   43  167 1    
    89   43  168 1    
    90   44   45 am   BACKBONE|DICT|INTERRES
    91   44  169 1    
    92   45   46 2    
    93   45   47 1    
    94   47   48 1    
    95   47   49 1    
    96   47  170 1    
    97   48  171 1    
    98   48  172 1    
    99   48  173 1    
   100   49   50 am   BACKBONE|DICT|INTERRES
   101   49  174 1    
   102   50   51 2    
   103   50   52 1    
   104   52   53 1    
   105   52   54 1    
   106   52  175 1    
   107   53  176 1    
   108   53  177 1    
   109   53  178 1    
   110   54   55 am   BACKBONE|DICT|INTERRES
   111   54  179 1    
   112   55   56 2    
   113   55   57 1    
   114   57   58 1    
   115   57   59 1    
   116   57  180 1    
   117   58  181 1    
   118   58  182 1    
   119   58  183 1    
   120   59   60 am   BACKBONE|DICT|INTERRES
   121   59  184 1    
   122   60   61 2    
   123   60   62 1    
   124   62   63 1    
   125   62   64 1    
   126   62  185 1    
   127   63  186 1    
   128   63  187 1    
   129   63  188 1    
   130   64   65 am   BACKBONE|DICT|INTERRES
   131   64  189 1    
   132   65   66 2    
   133   67   68 2    
   134   67   69 am   BACKBONE|DICT|INTERRES
   135   69   70 1    
   136   69  190 1    
   137   70   71 1    
   138   70   72 1    
   139   70  191 1    
   140   71  192 1    
   141   71  193 1    
   142   71  194 1    
   143   72   73 2    
   144   72   74 am   BACKBONE|DICT|INTERRES
   145   74   75 1    
   146   74  195 1    
   147   75   76 1    
   148   75   77 1    
   149   75  196 1    
   150   76  197 1    
   151   76  198 1    
   152   76  199 1    
   153   77   78 2    
   154   77   79 am   BACKBONE|DICT|INTERRES
   155   79   80 1    
   156   79  200 1    
   157   80   81 1    
   158   80   82 1    
   159   80  201 1    
   160   81  202 1    
   161   81  203 1    
   162   81  204 1    
   163   82   83 2    
   164   82   84 am   BACKBONE|DICT|INTERRES
   165   84   85 1    
   166   84  205 1    
   167   85   86 1    
   168   85   87 1    
   169   85  206 1    
   170   86  207 1    
   171   86  208 1    
   172   86  209 1    
   173   87   88 2    
   174   87   89 am   BACKBONE|DICT|INTERRES
   175   89   90 1    
   176   89  210 1    
   177   90   91 1    
   178   90   92 1    
   179   90  211 1    
   180   91  212 1    
   181   91  213 1    
   182   91  214 1    
   183   92   93 2    
   184   92   94 am   BACKBONE|DICT|INTERRES
   185   94   95 1    
   186   94  215 1    
   187   95   96 1    
   188   95   97 1    
   189   95  216 1    
   190   96  217 1    
   191   96  218 1    
   192   96  219 1    
   193   97   98 2    
   194   97   99 am   BACKBONE|DICT|INTERRES
   195   99  100 1    
   196   99  220 1    
   197  100  101 1    
   198  100  102 1    
   199  100  221 1    
   200  101  222 1    
   201  101  223 1    
   202  101  224 1    
   203  102  103 2    
   204  102  104 am   BACKBONE|DICT|INTERRES
   205  104  105 1    
   206  104  225 1    
   207  105  106 1    
   208  105  107 1    
   209  105  226 1    
   210  106  227 1    
   211  106  228 1    
   212  106  229 1    
   213  107  108 2    
   214  107  109 am   BACKBONE|DICT|INTERRES
   215  109  110 1    
   216  109  230 1    
   217  110  111 1    
   218  110  112 1    
   219  110  231 1    
   220  111  232 1    
   221  111  233 1    
   222  111  234 1    
   223  112  113 2    
   224  112  114 am   BACKBONE|DICT|INTERRES
   225  114  115 1    
   226  114  235 1    
   227  115  116 1    
   228  115  117 1    
   229  115  236 1    
   230  116  237 1    
   231  116  238 1    
   232  116  239 1    
   233  117  118 2    
   234  117  119 am   BACKBONE|DICT|INTERRES
   235  119  120 1    
   236  119  240 1    
   237  120  121 1    
   238  120  124 1    
   239  120  241 1    
   240  121  122 am   BACKBONE|DICT|INTERRES
   241  121  123 2    
   242  122  242 1    
   243  122  243 1    
   244  124  125 1    
   245  124  244 1    
   246  124  245 1    
   247  125  126 1    
   248  126  246 1    
   249  126  247 1    
@<TRIPOS>SUBSTRUCTURE
     1 UNK         1 GROUP             0       ****    0 ROOT    
