@<TRIPOS>MOLECULE
3R540
247   249    1
SMALL
USER_CHARGES


@<TRIPOS>ATOM
      1 CA         -4.4811  -13.0734  -47.2538 C.3       0 UNK        -0.1800 
      2 C          -4.4856  -14.5637  -47.5896 C.2       0 UNK         0.5000 
      3 O          -5.2251  -15.3188  -46.9632 O.2       0 UNK        -0.5000 
      4 N          -3.6940  -15.0395  -48.5619 N.am      1 UNK        -0.5000 
      5 CA         -2.7306  -14.3003  -49.3897 C.3       1 UNK         0.1400 
      6 C6         -2.3232  -15.1029  -50.6523 C.3       23 UNK        -0.0398 
      7 S7         -1.7148  -16.7998  -50.3373 S.3       23 UNK        -0.2404 
      8 C8          0.0877  -16.5383  -50.3290 C.3       23 UNK        -0.0205 
      9 C9          0.8713  -17.8273  -50.5375 C.ar      23 UNK        -0.0193 
     10 C10         0.7203  -18.5459  -51.7275 C.ar      23 UNK        -0.1150 
     11 C11         1.4989  -19.6778  -51.9825 C.ar      23 UNK        -0.0193 
     12 C12         2.4339  -20.0910  -51.0303 C.ar      23 UNK        -0.1150 
     13 C13         2.5887  -19.3923  -49.8292 C.ar      23 UNK        -0.0193 
     14 C14         1.7969  -18.2648  -49.5825 C.ar      23 UNK        -0.1150 
     15 C15         3.6645  -19.8257  -48.8425 C.3       23 UNK        -0.0205 
     16 S16         3.2798  -21.4123  -48.0315 S.3       23 UNK        -0.2404 
     17 C17         2.4431  -20.8732  -46.5038 C.3       23 UNK        -0.0398 
     18 CA          1.0893  -21.5852  -46.2663 C.3       11 UNK         0.1400 
     19 N           0.6962  -21.5480  -44.8542 N.am      11 UNK        -0.5000 
     20 C          -0.3731  -22.1667  -44.3316 C.2       10 UNK         0.5000 
     21 O          -1.1222  -22.9031  -44.9734 O.2       10 UNK        -0.5000 
     22 CA         -0.6890  -21.8731  -42.8537 C.3       10 UNK         0.1400 
     23 CB          0.1885  -22.7258  -41.9256 C.3       10 UNK        -0.1800 
     24 N          -0.5381  -20.4556  -42.5185 N.am      10 UNK        -0.5000 
     25 C          -1.2902  -19.4723  -43.0350 C.2       9 UNK         0.5000 
     26 O          -2.2309  -19.6688  -43.8028 O.2       9 UNK        -0.5000 
     27 CA         -0.8992  -18.0269  -42.6758 C.3       9 UNK         0.1400 
     28 CB         -1.4366  -17.6356  -41.2914 C.3       9 UNK        -0.1800 
     29 N           0.5462  -17.8099  -42.7204 N.am      9 UNK        -0.5000 
     30 C           1.3000  -17.9203  -43.8235 C.2       8 UNK         0.5000 
     31 O           0.8541  -18.1671  -44.9429 O.2       8 UNK        -0.5000 
     32 CA          2.8198  -17.7933  -43.6300 C.3       8 UNK         0.1400 
     33 CB          3.2456  -16.3183  -43.5734 C.3       8 UNK        -0.1800 
     34 N           3.2752  -18.4928  -42.4270 N.am      8 UNK        -0.5000 
     35 C           3.2659  -19.8262  -42.2827 C.2       7 UNK         0.5000 
     36 O           2.8970  -20.6042  -43.1614 O.2       7 UNK        -0.5000 
     37 CA          3.7027  -20.3811  -40.9148 C.3       7 UNK         0.1400 
     38 CB          5.2340  -20.4535  -40.8232 C.3       7 UNK        -0.1800 
     39 N           3.1859  -19.5898  -39.7980 N.am      7 UNK        -0.5000 
     40 C           1.8886  -19.4903  -39.4740 C.2       6 UNK         0.5000 
     41 O           0.9900  -20.0944  -40.0578 O.2       6 UNK        -0.5000 
     42 CA          1.5333  -18.5022  -38.3458 C.3       6 UNK         0.1400 
     43 CB          1.6374  -19.1861  -36.9747 C.3       6 UNK        -0.1800 
     44 N           2.3675  -17.2954  -38.3552 N.am      6 UNK        -0.5000 
     45 C           2.4275  -16.4302  -39.3750 C.2       5 UNK         0.5000 
     46 O           1.7658  -16.5506  -40.4120 O.2       5 UNK        -0.5000 
     47 CA          3.4265  -15.2724  -39.2427 C.3       5 UNK         0.1400 
     48 CB          4.8776  -15.7804  -39.3399 C.3       5 UNK        -0.1800 
     49 N           3.1530  -14.3452  -40.3294 N.am      5 UNK        -0.5000 
     50 C           3.5197  -13.0652  -40.4230 C.2       4 UNK         0.5000 
     51 O           4.1986  -12.4813  -39.5775 O.2       4 UNK        -0.5000 
     52 CA          3.0445  -12.3092  -41.6814 C.3       4 UNK         0.1400 
     53 CB          4.1859  -12.2102  -42.7057 C.3       4 UNK        -0.1800 
     54 N           1.8812  -12.9232  -42.3346 N.am      4 UNK        -0.5000 
     55 C           0.6357  -12.9288  -41.8346 C.2       3 UNK         0.5000 
     56 O           0.3386  -12.4070  -40.7591 O.2       3 UNK        -0.5000 
     57 CA         -0.4491  -13.6151  -42.6869 C.3       3 UNK         0.1400 
     58 CB         -1.8706  -13.1045  -42.3704 C.3       3 UNK        -0.1800 
     59 N          -0.1552  -13.4662  -44.1139 N.am      3 UNK        -0.5000 
     60 C          -0.6443  -14.2487  -45.0804 C.2       2 UNK         0.5000 
     61 O          -1.4231  -15.1832  -44.8837 O.2       2 UNK        -0.5000 
     62 CA         -0.1798  -13.9392  -46.5085 C.3       2 UNK         0.1400 
     63 CB          1.1342  -14.6707  -46.8338 C.3       2 UNK        -0.1800 
     64 N          -1.2269  -14.3571  -47.4325 N.am      2 UNK        -0.5000 
     65 C          -1.4923  -13.7925  -48.6155 C.2       1 UNK         0.5000 
     66 O          -0.8162  -12.8840  -49.0991 O.2       1 UNK        -0.5000 
     67 C          -0.0184  -21.0183  -47.1751 C.2       11 UNK         0.5000 
     68 O          -0.4078  -21.6737  -48.1405 O.2       11 UNK        -0.5000 
     69 N          -0.5443  -19.8425  -46.8079 N.am      12 UNK        -0.5000 
     70 CA         -1.6460  -19.1749  -47.4922 C.3       12 UNK         0.1400 
     71 CB         -1.8539  -17.7859  -46.8796 C.3       12 UNK        -0.1800 
     72 C          -2.9546  -19.9825  -47.4758 C.2       12 UNK         0.5000 
     73 O          -3.6192  -20.0696  -48.5070 O.2       12 UNK        -0.5000 
     74 N          -3.2885  -20.5844  -46.3258 N.am      13 UNK        -0.5000 
     75 CA         -4.4488  -21.4607  -46.1597 C.3       13 UNK         0.1400 
     76 CB         -4.6264  -21.8136  -44.6754 C.3       13 UNK        -0.1800 
     77 C          -4.3552  -22.7332  -47.0199 C.2       13 UNK         0.5000 
     78 O          -5.3345  -23.0965  -47.6725 O.2       13 UNK        -0.5000 
     79 N          -3.1713  -23.3626  -47.0385 N.am      14 UNK        -0.5000 
     80 CA         -2.8630  -24.5153  -47.8848 C.3       14 UNK         0.1400 
     81 CB         -1.4919  -25.0905  -47.4993 C.3       14 UNK        -0.1800 
     82 C          -2.9153  -24.1690  -49.3831 C.2       14 UNK         0.5000 
     83 O          -3.5029  -24.9226  -50.1589 O.2       14 UNK        -0.5000 
     84 N          -2.3437  -23.0155  -49.7546 N.am      15 UNK        -0.5000 
     85 CA         -2.3700  -22.4688  -51.1091 C.3       15 UNK         0.1400 
     86 CB         -1.5122  -21.2003  -51.1758 C.3       15 UNK        -0.1800 
     87 C          -3.7940  -22.1846  -51.6091 C.2       15 UNK         0.5000 
     88 O          -4.1315  -22.6102  -52.7110 O.2       15 UNK        -0.5000 
     89 N          -4.6061  -21.5168  -50.7773 N.am      16 UNK        -0.5000 
     90 CA         -6.0054  -21.1855  -51.0555 C.3       16 UNK         0.1400 
     91 CB         -6.5311  -20.2471  -49.9586 C.3       16 UNK        -0.1800 
     92 C          -6.9186  -22.4189  -51.1910 C.2       16 UNK         0.5000 
     93 O          -7.9013  -22.3669  -51.9318 O.2       16 UNK        -0.5000 
     94 N          -6.5868  -23.5050  -50.4804 N.am      17 UNK        -0.5000 
     95 CA         -7.2522  -24.7993  -50.6129 C.3       17 UNK         0.1400 
     96 CB         -6.9434  -25.6627  -49.3801 C.3       17 UNK        -0.1800 
     97 C          -6.8470  -25.5262  -51.9093 C.2       17 UNK         0.5000 
     98 O          -7.6949  -26.1604  -52.5386 O.2       17 UNK        -0.5000 
     99 N          -5.5628  -25.4303  -52.2786 N.am      18 UNK        -0.5000 
    100 CA        -4.9819  -26.0871  -53.4476 C.3       18 UNK         0.1400 
    101 CB        -3.4535  -26.1363  -53.2947 C.3       18 UNK        -0.1800 
    102 C         -5.3681  -25.4309  -54.7857 C.2       18 UNK         0.5000 
    103 O         -5.6291  -26.1525  -55.7500 O.2       18 UNK        -0.5000 
    104 N         -5.3766  -24.0936  -54.8409 N.am      19 UNK        -0.5000 
    105 CA        -5.5795  -23.3158  -56.0623 C.3       19 UNK         0.1400 
    106 CB        -4.2448  -23.2207  -56.8273 C.3       19 UNK        -0.1800 
    107 C         -6.1336  -21.9181  -55.7444 C.2       19 UNK         0.5000 
    108 O         -6.1852  -21.5131  -54.5833 O.2       19 UNK        -0.5000 
    109 N         -6.5339  -21.1902  -56.7947 N.am      20 UNK        -0.5000 
    110 CA        -7.0405  -19.8179  -56.7012 C.3       20 UNK         0.1400 
    111 CB        -7.7709  -19.4673  -58.0070 C.3       20 UNK        -0.1800 
    112 C         -5.9427  -18.7751  -56.4040 C.2       20 UNK         0.5000 
    113 O         -6.2519  -17.7125  -55.8634 O.2       20 UNK        -0.5000 
    114 N         -4.6922  -19.0864  -56.7645 N.am      21 UNK        -0.5000 
    115 CA        -3.5093  -18.2508  -56.5849 C.3       21 UNK         0.1400 
    116 CB        -3.4954  -17.1238  -57.6366 C.3       21 UNK        -0.1800 
    117 C         -2.2558  -19.1315  -56.7042 C.2       21 UNK         0.5000 
    118 O         -2.3514  -20.2748  -57.1591 O.2       21 UNK        -0.5000 
    119 N         -1.1022  -18.5771  -56.3112 N.am      22 UNK        -0.5000 
    120 CA         0.2160  -19.2333  -56.3956 C.3       22 UNK         0.1400 
    121 C          0.8172  -19.3140  -57.8331 C.2       22 UNK         0.5000 
    122 N          0.2693  -18.6207  -58.8242 N.am      22 UNK        -0.7600 
    123 O          1.7913  -20.0262  -58.0591 O.2       22 UNK        -0.5000 
    124 C124        1.2171  -18.6079  -55.3822 C.3       23 UNK        -0.0398 
    125 S125        2.3401  -19.8390  -54.6347 S.3       23 UNK        -0.2404 
    126 C126        1.3188  -20.4744  -53.2680 C.3       23 UNK        -0.0205 
    127 H127       -4.5456  -12.4576  -48.1501 H         1 UNK         0.0600 
    128 H128       -3.5802  -12.8046  -46.7029 H         1 UNK         0.0600 
    129 H129       -5.3380  -12.8252  -46.6271 H         1 UNK         0.0600 
    130 H130       -3.7339  -16.0280  -48.7652 H         1 UNK         0.3000 
    131 H131       -3.2387  -13.4057  -49.7532 H         1 UNK         0.0600 
    132 H132       -3.1969  -15.2000  -51.2981 H         1 UNK         0.0800 
    133 H133       -1.5960  -14.5496  -51.2491 H         1 UNK         0.0800 
    134 H134        0.3702  -16.0653  -49.3885 H         1 UNK         0.0800 
    135 H135        0.3636  -15.8424  -51.1221 H         1 UNK         0.0800 
    136 H136       -0.0073  -18.2159  -52.4540 H         1 UNK         0.1150 
    137 H137        3.0477  -20.9596  -51.2240 H         1 UNK         0.1150 
    138 H138        1.9261  -17.7086  -48.6646 H         1 UNK         0.1150 
    139 H139        4.6033  -19.9404  -49.3862 H         1 UNK         0.0800 
    140 H140        3.8495  -19.0520  -48.0958 H         1 UNK         0.0800 
    141 H141        2.3270  -19.7888  -46.4893 H         1 UNK         0.0800 
    142 H142        3.1304  -21.1079  -45.6913 H         1 UNK         0.0800 
    143 H143        1.2106  -22.6407  -46.5193 H         1 UNK         0.0600 
    144 H144        1.2888  -21.0023  -44.2364 H         1 UNK         0.3000 
    145 H145       -1.7311  -22.1472  -42.6773 H         1 UNK         0.0600 
    146 H146       -0.0903  -22.5842  -40.8813 H         1 UNK         0.0600 
    147 H147        0.0782  -23.7873  -42.1506 H         1 UNK         0.0600 
    148 H148        1.2448  -22.4764  -42.0258 H         1 UNK         0.0600 
    149 H149        0.1782  -20.2221  -41.8376 H         1 UNK         0.3000 
    150 H150       -1.3574  -17.3681  -43.4149 H         1 UNK         0.0600 
    151 H151       -2.5213  -17.7414  -41.2517 H         1 UNK         0.0600 
    152 H152       -1.2015  -16.5981  -41.0542 H         1 UNK         0.0600 
    153 H153       -1.0165  -18.2612  -40.5041 H         1 UNK         0.0600 
    154 H154        0.9985  -17.5666  -41.8439 H         1 UNK         0.3000 
    155 H155        3.3072  -18.2527  -44.4927 H         1 UNK         0.0600 
    156 H156        2.7473  -15.7838  -42.7668 H         1 UNK         0.0600 
    157 H157        2.9964  -15.8097  -44.5047 H         1 UNK         0.0600 
    158 H158        4.3216  -16.2208  -43.4283 H         1 UNK         0.0600 
    159 H159        3.5422  -17.9215  -41.6403 H         1 UNK         0.3000 
    160 H160        3.3068  -21.3949  -40.8247 H         1 UNK         0.0600 
    161 H161        5.6903  -19.4643  -40.8781 H         1 UNK         0.0600 
    162 H162        5.6454  -21.0508  -41.6381 H         1 UNK         0.0600 
    163 H163        5.5512  -20.9182  -39.8894 H         1 UNK         0.0600 
    164 H164        3.8575  -19.0610  -39.2619 H         1 UNK         0.3000 
    165 H165        0.4971  -18.1918  -38.4942 H         1 UNK         0.0600 
    166 H166        1.3051  -18.5221  -36.1765 H         1 UNK         0.0600 
    167 H167        1.0106  -20.0781  -36.9354 H         1 UNK         0.0600 
    168 H168        2.6602  -19.4933  -36.7531 H         1 UNK         0.0600 
    169 H169        2.9386  -17.1349  -37.5378 H         1 UNK         0.3000 
    170 H170        3.2618  -14.7728  -38.2861 H         1 UNK         0.0600 
    171 H171        5.1066  -16.4834  -38.5384 H         1 UNK         0.0600 
    172 H172        5.0632  -16.2876  -40.2876 H         1 UNK         0.0600 
    173 H173        5.5906  -14.9600  -39.2578 H         1 UNK         0.0600 
    174 H174        2.5380  -14.7319  -41.0334 H         1 UNK         0.3000 
    175 H175        2.7713  -11.2978  -41.3729 H         1 UNK         0.0600 
    176 H176        4.4935  -13.1944  -43.0618 H         1 UNK         0.0600 
    177 H177        3.8907  -11.6159  -43.5706 H         1 UNK         0.0600 
    178 H178        5.0630  -11.7310  -42.2686 H         1 UNK         0.0600 
    179 H179        2.0562  -13.3886  -43.2123 H         1 UNK         0.3000 
    180 H180       -0.4018  -14.6766  -42.4348 H         1 UNK         0.0600 
    181 H181       -1.9730  -12.0434  -42.5998 H         1 UNK         0.0600 
    182 H182       -2.1131  -13.2404  -41.3158 H         1 UNK         0.0600 
    183 H183       -2.6266  -13.6444  -42.9404 H         1 UNK         0.0600 
    184 H184        0.4454  -12.6907  -44.3590 H         1 UNK         0.3000 
    185 H185       -0.0277  -12.8611  -46.5948 H         1 UNK         0.0600 
    186 H186        1.4638  -14.4584  -47.8507 H         1 UNK         0.0600 
    187 H187        1.9335  -14.3518  -46.1646 H         1 UNK         0.0600 
    188 H188        1.0306  -15.7520  -46.7321 H         1 UNK         0.0600 
    189 H189       -1.8451  -15.0701  -47.0651 H         1 UNK         0.3000 
    190 H190       -0.1455  -19.3509  -46.0117 H         1 UNK         0.3000 
    191 H191       -1.3492  -19.0507  -48.5343 H         1 UNK         0.0600 
    192 H192       -2.6973  -17.2780  -47.3439 H         1 UNK         0.0600 
    193 H193       -0.9709  -17.1644  -47.0226 H         1 UNK         0.0600 
    194 H194       -2.0551  -17.8394  -45.8099 H         1 UNK         0.0600 
    195 H195       -2.7229  -20.4121  -45.4989 H         1 UNK         0.3000 
    196 H196       -5.3321  -20.9065  -46.4838 H         1 UNK         0.0600 
    197 H197       -3.7574  -22.3388  -44.2788 H         1 UNK         0.0600 
    198 H198       -4.7783  -20.9175  -44.0735 H         1 UNK         0.0600 
    199 H199       -5.4953  -22.4561  -44.5279 H         1 UNK         0.0600 
    200 H200       -2.4208  -23.0181  -46.4462 H         1 UNK         0.3000 
    201 H201       -3.6178  -25.2810  -47.6946 H         1 UNK         0.0600 
    202 H202       -1.4786  -25.4094  -46.4570 H         1 UNK         0.0600 
    203 H203       -0.6944  -24.3591  -47.6336 H         1 UNK         0.0600 
    204 H204       -1.2476  -25.9605  -48.1101 H         1 UNK         0.0600 
    205 H205       -1.8312  -22.4754  -49.0609 H         1 UNK         0.3000 
    206 H206       -1.9262  -23.2124  -51.7741 H         1 UNK         0.0600 
    207 H207       -0.4717  -21.4220  -50.9406 H         1 UNK         0.0600 
    208 H208       -1.5448  -20.7615  -52.1726 H         1 UNK         0.0600 
    209 H209       -1.8544  -20.4375  -50.4777 H         1 UNK         0.0600 
    210 H210       -4.2277  -21.1686  -49.8989 H         1 UNK         0.3000 
    211 H211       -6.0353  -20.6486  -52.0054 H         1 UNK         0.0600 
    212 H212       -7.5700  -19.9711  -50.1429 H         1 UNK         0.0600 
    213 H213       -5.9518  -19.3244  -49.9188 H         1 UNK         0.0600 
    214 H214       -6.4829  -20.7155  -48.9747 H         1 UNK         0.0600 
    215 H215       -5.8037  -23.4511  -49.8404 H         1 UNK         0.3000 
    216 H216       -8.3314  -24.6348  -50.6440 H         1 UNK         0.0600 
    217 H217       -5.8761  -25.8607  -49.2806 H         1 UNK         0.0600 
    218 H218       -7.4519  -26.6256  -49.4411 H         1 UNK         0.0600 
    219 H219       -7.2780  -25.1746  -48.4644 H         1 UNK         0.0600 
    220 H220       -4.9210  -24.9184  -51.6833 H         1 UNK         0.3000 
    221 H221       -5.3449  -27.1170  -53.4703 H         1 UNK         0.0600 
    222 H222       -3.1649  -26.6837  -52.3972 H         1 UNK         0.0600 
    223 H223       -3.0232  -25.1365  -53.2287 H         1 UNK         0.0600 
    224 H224       -2.9905  -26.6383  -54.1451 H         1 UNK         0.0600 
    225 H225       -5.1531  -23.5454  -54.0107 H         1 UNK         0.3000 
    226 H226       -6.3193  -23.8183  -56.6889 H         1 UNK         0.0600 
    227 H227       -3.4769  -22.7329  -56.2252 H         1 UNK         0.0600 
    228 H228       -3.8736  -24.2077  -57.1034 H         1 UNK         0.0600 
    229 H229       -4.3493  -22.6500  -57.7505 H         1 UNK         0.0600 
    230 H230       -6.4709  -21.5852  -57.7220 H         1 UNK         0.3000 
    231 H231       -7.7651  -19.7727  -55.8852 H         1 UNK         0.0600 
    232 H232       -7.1006  -19.5069  -58.8666 H         1 UNK         0.0600 
    233 H233       -8.1883  -18.4604  -57.9629 H         1 UNK         0.0600 
    234 H234       -8.5984  -20.1522  -58.1930 H         1 UNK         0.0600 
    235 H235       -4.4956  -19.9979  -57.1583 H         1 UNK         0.3000 
    236 H236       -3.5276  -17.8200  -55.5817 H         1 UNK         0.0600 
    237 H237       -4.3702  -16.4803  -57.5430 H         1 UNK         0.0600 
    238 H238       -2.6184  -16.4858  -57.5237 H         1 UNK         0.0600 
    239 H239       -3.4840  -17.5242  -58.6511 H         1 UNK         0.0600 
    240 H240       -1.1055  -17.6260  -55.9722 H         1 UNK         0.3000 
    241 H241        0.0494  -20.2709  -56.0992 H         1 UNK         0.0600 
    242 H242        0.6625  -18.6859  -59.7502 H         1 UNK         0.3800 
    243 H243       -0.5336  -18.0354  -58.6616 H         1 UNK         0.3800 
    244 H244        0.6862  -18.1069  -54.5747 H         1 UNK         0.0800 
    245 H245        1.8167  -17.8251  -55.8504 H         1 UNK         0.0800 
    246 H246        1.5852  -21.5176  -53.0918 H         1 UNK         0.0800 
    247 H247        0.2710  -20.4817  -53.5682 H         1 UNK         0.0800 
@<TRIPOS>BOND
     1    1    2 1    
     2    1  127 1    
     3    1  128 1    
     4    1  129 1    
     5    2    3 2    
     6    2    4 am   BACKBONE|DICT|INTERRES
     7    4    5 1    
     8    4  130 1    
     9    5    6 1    
    10    5   65 1    
    11    5  131 1    
    12    6    7 1    
    13    6  132 1    
    14    6  133 1    
    15    7    8 1    
    16    8    9 1    
    17    8  134 1    
    18    8  135 1    
    19    9   10 ar   
    20    9   14 ar   
    21   10   11 ar   
    22   10  136 1    
    23   11   12 ar   
    24   11  126 1    
    25   12   13 ar   
    26   12  137 1    
    27   13   14 ar   
    28   13   15 1    
    29   14  138 1    
    30   15   16 1    
    31   15  139 1    
    32   15  140 1    
    33   16   17 1    
    34   17   18 1    
    35   17  141 1    
    36   17  142 1    
    37   18   19 1    
    38   18   67 1    
    39   18  143 1    
    40   19   20 am   BACKBONE|DICT|INTERRES
    41   19  144 1    
    42   20   21 2    
    43   20   22 1    
    44   22   23 1    
    45   22   24 1    
    46   22  145 1    
    47   23  146 1    
    48   23  147 1    
    49   23  148 1    
    50   24   25 am   BACKBONE|DICT|INTERRES
    51   24  149 1    
    52   25   26 2    
    53   25   27 1    
    54   27   28 1    
    55   27   29 1    
    56   27  150 1    
    57   28  151 1    
    58   28  152 1    
    59   28  153 1    
    60   29   30 am   BACKBONE|DICT|INTERRES
    61   29  154 1    
    62   30   31 2    
    63   30   32 1    
    64   32   33 1    
    65   32   34 1    
    66   32  155 1    
    67   33  156 1    
    68   33  157 1    
    69   33  158 1    
    70   34   35 am   BACKBONE|DICT|INTERRES
    71   34  159 1    
    72   35   36 2    
    73   35   37 1    
    74   37   38 1    
    75   37   39 1    
    76   37  160 1    
    77   38  161 1    
    78   38  162 1    
    79   38  163 1    
    80   39   40 am   BACKBONE|DICT|INTERRES
    81   39  164 1    
    82   40   41 2    
    83   40   42 1    
    84   42   43 1    
    85   42   44 1    
    86   42  165 1    
    87   43  166 1    
    88   43  167 1    
    89   43  168 1    
    90   44   45 am   BACKBONE|DICT|INTERRES
    91   44  169 1    
    92   45   46 2    
    93   45   47 1    
    94   47   48 1    
    95   47   49 1    
    96   47  170 1    
    97   48  171 1    
    98   48  172 1    
    99   48  173 1    
   100   49   50 am   BACKBONE|DICT|INTERRES
   101   49  174 1    
   102   50   51 2    
   103   50   52 1    
   104   52   53 1    
   105   52   54 1    
   106   52  175 1    
   107   53  176 1    
   108   53  177 1    
   109   53  178 1    
   110   54   55 am   BACKBONE|DICT|INTERRES
   111   54  179 1    
   112   55   56 2    
   113   55   57 1    
   114   57   58 1    
   115   57   59 1    
   116   57  180 1    
   117   58  181 1    
   118   58  182 1    
   119   58  183 1    
   120   59   60 am   BACKBONE|DICT|INTERRES
   121   59  184 1    
   122   60   61 2    
   123   60   62 1    
   124   62   63 1    
   125   62   64 1    
   126   62  185 1    
   127   63  186 1    
   128   63  187 1    
   129   63  188 1    
   130   64   65 am   BACKBONE|DICT|INTERRES
   131   64  189 1    
   132   65   66 2    
   133   67   68 2    
   134   67   69 am   BACKBONE|DICT|INTERRES
   135   69   70 1    
   136   69  190 1    
   137   70   71 1    
   138   70   72 1    
   139   70  191 1    
   140   71  192 1    
   141   71  193 1    
   142   71  194 1    
   143   72   73 2    
   144   72   74 am   BACKBONE|DICT|INTERRES
   145   74   75 1    
   146   74  195 1    
   147   75   76 1    
   148   75   77 1    
   149   75  196 1    
   150   76  197 1    
   151   76  198 1    
   152   76  199 1    
   153   77   78 2    
   154   77   79 am   BACKBONE|DICT|INTERRES
   155   79   80 1    
   156   79  200 1    
   157   80   81 1    
   158   80   82 1    
   159   80  201 1    
   160   81  202 1    
   161   81  203 1    
   162   81  204 1    
   163   82   83 2    
   164   82   84 am   BACKBONE|DICT|INTERRES
   165   84   85 1    
   166   84  205 1    
   167   85   86 1    
   168   85   87 1    
   169   85  206 1    
   170   86  207 1    
   171   86  208 1    
   172   86  209 1    
   173   87   88 2    
   174   87   89 am   BACKBONE|DICT|INTERRES
   175   89   90 1    
   176   89  210 1    
   177   90   91 1    
   178   90   92 1    
   179   90  211 1    
   180   91  212 1    
   181   91  213 1    
   182   91  214 1    
   183   92   93 2    
   184   92   94 am   BACKBONE|DICT|INTERRES
   185   94   95 1    
   186   94  215 1    
   187   95   96 1    
   188   95   97 1    
   189   95  216 1    
   190   96  217 1    
   191   96  218 1    
   192   96  219 1    
   193   97   98 2    
   194   97   99 am   BACKBONE|DICT|INTERRES
   195   99  100 1    
   196   99  220 1    
   197  100  101 1    
   198  100  102 1    
   199  100  221 1    
   200  101  222 1    
   201  101  223 1    
   202  101  224 1    
   203  102  103 2    
   204  102  104 am   BACKBONE|DICT|INTERRES
   205  104  105 1    
   206  104  225 1    
   207  105  106 1    
   208  105  107 1    
   209  105  226 1    
   210  106  227 1    
   211  106  228 1    
   212  106  229 1    
   213  107  108 2    
   214  107  109 am   BACKBONE|DICT|INTERRES
   215  109  110 1    
   216  109  230 1    
   217  110  111 1    
   218  110  112 1    
   219  110  231 1    
   220  111  232 1    
   221  111  233 1    
   222  111  234 1    
   223  112  113 2    
   224  112  114 am   BACKBONE|DICT|INTERRES
   225  114  115 1    
   226  114  235 1    
   227  115  116 1    
   228  115  117 1    
   229  115  236 1    
   230  116  237 1    
   231  116  238 1    
   232  116  239 1    
   233  117  118 2    
   234  117  119 am   BACKBONE|DICT|INTERRES
   235  119  120 1    
   236  119  240 1    
   237  120  121 1    
   238  120  124 1    
   239  120  241 1    
   240  121  122 am   BACKBONE|DICT|INTERRES
   241  121  123 2    
   242  122  242 1    
   243  122  243 1    
   244  124  125 1    
   245  124  244 1    
   246  124  245 1    
   247  125  126 1    
   248  126  246 1    
   249  126  247 1    
@<TRIPOS>SUBSTRUCTURE
     1 UNK         1 GROUP             0       ****    0 ROOT    
