@<TRIPOS>MOLECULE
3R540
247   249    1
SMALL
USER_CHARGES


@<TRIPOS>ATOM
      1 CA          3.0964  -11.7809  -49.3858 C.3       0 UNK        -0.1800 
      2 C           2.8192  -12.8400  -48.3284 C.2       0 UNK         0.5000 
      3 O           3.0806  -12.6097  -47.1479 O.2       0 UNK        -0.5000 
      4 N           2.2978  -13.9986  -48.7500 N.am      1 UNK        -0.5000 
      5 CA          1.9127  -15.1173  -47.8820 C.3       1 UNK         0.1400 
      6 C6          1.7104  -16.4341  -48.6763 C.3       23 UNK        -0.0398 
      7 S7          0.5771  -16.2674  -50.1071 S.3       23 UNK        -0.2404 
      8 C8          1.7082  -16.4828  -51.5277 C.3       23 UNK        -0.0205 
      9 C9          1.8129  -17.9074  -52.0782 C.ar      23 UNK        -0.0193 
     10 C10         2.2192  -18.0808  -53.4055 C.ar      23 UNK        -0.1150 
     11 C11         2.3305  -19.3576  -53.9637 C.ar      23 UNK        -0.0193 
     12 C12         2.0226  -20.4753  -53.1834 C.ar      23 UNK        -0.1150 
     13 C13         1.6013  -20.3236  -51.8600 C.ar      23 UNK        -0.0193 
     14 C14         1.5221  -19.0417  -51.3091 C.ar      23 UNK        -0.1150 
     15 C15         1.1882  -21.5375  -51.0412 C.3       23 UNK        -0.0205 
     16 S16         2.3611  -21.8978  -49.6982 S.3       23 UNK        -0.2404 
     17 C17         1.6357  -23.4372  -49.0202 C.3       23 UNK        -0.0398 
     18 CA          0.9562  -23.2949  -47.6252 C.3       11 UNK         0.1400 
     19 N           1.8014  -22.6943  -46.5843 N.am      11 UNK        -0.5000 
     20 C           2.9641  -23.2239  -46.1688 C.2       10 UNK         0.5000 
     21 O           3.4255  -24.2794  -46.6049 O.2       10 UNK        -0.5000 
     22 CA          3.7612  -22.4730  -45.0821 C.3       10 UNK         0.1400 
     23 CB          4.7111  -21.4526  -45.7280 C.3       10 UNK        -0.1800 
     24 N           2.9255  -21.7829  -44.1055 N.am      10 UNK        -0.5000 
     25 C           2.0850  -22.3666  -43.2406 C.2       9 UNK         0.5000 
     26 O           1.9930  -23.5856  -43.0933 O.2       9 UNK        -0.5000 
     27 CA          1.1720  -21.4310  -42.4176 C.3       9 UNK         0.1400 
     28 CB          1.6683  -21.3234  -40.9680 C.3       9 UNK        -0.1800 
     29 N           1.0305  -20.0788  -42.9690 N.am      9 UNK        -0.5000 
     30 C           0.5806  -19.7766  -44.1941 C.2       8 UNK         0.5000 
     31 O           0.2287  -20.6203  -45.0166 O.2       8 UNK        -0.5000 
     32 CA          0.5436  -18.2947  -44.5790 C.3       8 UNK         0.1400 
     33 CB         -0.8175  -17.6986  -44.2005 C.3       8 UNK        -0.1800 
     34 N           1.6221  -17.5455  -43.9411 N.am      8 UNK        -0.5000 
     35 C           2.8635  -17.4436  -44.4378 C.2       7 UNK         0.5000 
     36 O           3.2168  -17.9595  -45.4986 O.2       7 UNK        -0.5000 
     37 CA          3.8893  -16.6395  -43.6139 C.3       7 UNK         0.1400 
     38 CB          3.9610  -15.1908  -44.1206 C.3       7 UNK        -0.1800 
     39 N           3.5875  -16.6280  -42.1819 N.am      7 UNK        -0.5000 
     40 C           3.7102  -17.6845  -41.3653 C.2       6 UNK         0.5000 
     41 O           4.1898  -18.7634  -41.7122 O.2       6 UNK        -0.5000 
     42 CA          3.1525  -17.5203  -39.9349 C.3       6 UNK         0.1400 
     43 CB          4.2592  -17.0627  -38.9735 C.3       6 UNK        -0.1800 
     44 N           2.0230  -16.5845  -39.8543 N.am      6 UNK        -0.5000 
     45 C           0.8557  -16.7506  -40.4910 C.2       5 UNK         0.5000 
     46 O           0.6062  -17.7371  -41.1863 O.2       5 UNK        -0.5000 
     47 CA         -0.1416  -15.5780  -40.4103 C.3       5 UNK         0.1400 
     48 CB          0.3549  -14.4071  -41.2762 C.3       5 UNK        -0.1800 
     49 N          -1.4870  -15.9279  -40.8649 N.am      5 UNK        -0.5000 
     50 C          -2.3276  -16.7885  -40.2820 C.2       4 UNK         0.5000 
     51 O          -2.0659  -17.3882  -39.2381 O.2       4 UNK        -0.5000 
     52 CA         -3.6996  -17.0245  -40.9567 C.3       4 UNK         0.1400 
     53 CB         -4.7974  -16.2030  -40.2537 C.3       4 UNK        -0.1800 
     54 N          -3.7632  -16.8323  -42.4179 N.am      4 UNK        -0.5000 
     55 C          -3.5967  -15.7098  -43.1320 C.2       3 UNK         0.5000 
     56 O          -3.2785  -14.6211  -42.6472 O.2       3 UNK        -0.5000 
     57 CA         -3.8127  -15.8244  -44.6481 C.3       3 UNK         0.1400 
     58 CB         -5.2943  -15.6415  -45.0128 C.3       3 UNK        -0.1800 
     59 N          -3.0164  -14.7929  -45.3029 N.am      3 UNK        -0.5000 
     60 C          -2.4165  -14.8995  -46.4929 C.2       2 UNK         0.5000 
     61 O          -2.5246  -15.8893  -47.2188 O.2       2 UNK        -0.5000 
     62 CA         -1.5773  -13.6924  -46.9748 C.3       2 UNK         0.1400 
     63 CB         -1.3332  -12.6130  -45.8942 C.3       2 UNK        -0.1800 
     64 N          -0.3095  -14.1032  -47.5868 N.am      2 UNK        -0.5000 
     65 C           0.6913  -14.7770  -46.9986 C.2       1 UNK         0.5000 
     66 O           0.7005  -15.0966  -45.8114 O.2       1 UNK        -0.5000 
     67 C          -0.4054  -22.5877  -47.7464 C.2       11 UNK         0.5000 
     68 O          -1.4326  -23.2646  -47.8092 O.2       11 UNK        -0.5000 
     69 N          -0.4026  -21.2472  -47.7934 N.am      12 UNK        -0.5000 
     70 CA         -1.5731  -20.4071  -48.0720 C.3       12 UNK         0.1400 
     71 CB         -1.1637  -18.9323  -48.0884 C.3       12 UNK        -0.1800 
     72 C          -2.7576  -20.6016  -47.1132 C.2       12 UNK         0.5000 
     73 O          -3.9012  -20.4974  -47.5517 O.2       12 UNK        -0.5000 
     74 N          -2.4727  -20.9049  -45.8413 N.am      13 UNK        -0.5000 
     75 CA         -3.4747  -21.1886  -44.8129 C.3       13 UNK         0.1400 
     76 CB         -2.7846  -21.2770  -43.4436 C.3       13 UNK        -0.1800 
     77 C          -4.2915  -22.4652  -45.0972 C.2       13 UNK         0.5000 
     78 O          -5.4713  -22.5160  -44.7487 O.2       13 UNK        -0.5000 
     79 N          -3.6622  -23.4569  -45.7425 N.am      14 UNK        -0.5000 
     80 CA         -4.3139  -24.6810  -46.2070 C.3       14 UNK         0.1400 
     81 CB         -3.2911  -25.8277  -46.2190 C.3       14 UNK        -0.1800 
     82 C          -4.9301  -24.4890  -47.6037 C.2       14 UNK         0.5000 
     83 O          -6.0180  -25.0009  -47.8666 O.2       14 UNK        -0.5000 
     84 N          -4.2331  -23.7387  -48.4672 N.am      15 UNK        -0.5000 
     85 CA         -4.5908  -23.4823  -49.8635 C.3       15 UNK         0.1400 
     86 CB         -3.2965  -23.2893  -50.6719 C.3       15 UNK        -0.1800 
     87 C          -5.5842  -22.3161  -50.0687 C.2       15 UNK         0.5000 
     88 O          -5.6579  -21.7860  -51.1784 O.2       15 UNK        -0.5000 
     89 N          -6.3311  -21.9419  -49.0193 N.am      16 UNK        -0.5000 
     90 CA         -7.4189  -20.9553  -49.0036 C.3       16 UNK         0.1400 
     91 CB         -8.6128  -21.4640  -49.8394 C.3       16 UNK        -0.1800 
     92 C          -6.9588  -19.5431  -49.4193 C.2       16 UNK         0.5000 
     93 O          -7.4503  -18.9911  -50.4038 O.2       16 UNK        -0.5000 
     94 N          -5.9818  -19.0057  -48.6762 N.am      17 UNK        -0.5000 
     95 CA         -5.2712  -17.7432  -48.9245 C.3       17 UNK         0.1400 
     96 CB         -6.2246  -16.5324  -48.8479 C.3       17 UNK        -0.1800 
     97 C          -4.4536  -17.7966  -50.2323 C.2       17 UNK         0.5000 
     98 O          -4.3523  -16.8010  -50.9497 O.2       17 UNK        -0.5000 
     99 N          -3.9162  -18.9929  -50.5151 N.am      18 UNK        -0.5000 
    100 CA        -3.1491  -19.3928  -51.6979 C.3       18 UNK         0.1400 
    101 CB        -1.8641  -18.5579  -51.8506 C.3       18 UNK        -0.1800 
    102 C         -3.9582  -19.4404  -53.0075 C.2       18 UNK         0.5000 
    103 O         -3.3577  -19.6504  -54.0627 O.2       18 UNK        -0.5000 
    104 N         -5.2907  -19.3073  -52.9447 N.am      19 UNK        -0.5000 
    105 CA        -6.1908  -19.3640  -54.0996 C.3       19 UNK         0.1400 
    106 CB        -7.6171  -19.0117  -53.6548 C.3       19 UNK        -0.1800 
    107 C         -6.1762  -20.7237  -54.8235 C.2       19 UNK         0.5000 
    108 O         -6.3260  -20.7592  -56.0451 O.2       19 UNK        -0.5000 
    109 N         -5.9690  -21.8098  -54.0671 N.am      20 UNK        -0.5000 
    110 CA        -5.8321  -23.1663  -54.5981 C.3       20 UNK         0.1400 
    111 CB        -6.2987  -24.1658  -53.5280 C.3       20 UNK        -0.1800 
    112 C         -4.3933  -23.4928  -55.0483 C.2       20 UNK         0.5000 
    113 O         -4.1996  -24.4983  -55.7329 O.2       20 UNK        -0.5000 
    114 N         -3.4137  -22.6710  -54.6457 N.am      21 UNK        -0.5000 
    115 CA        -1.9945  -22.8689  -54.9318 C.3       21 UNK         0.1400 
    116 CB        -1.1575  -22.5134  -53.6898 C.3       21 UNK        -0.1800 
    117 C         -1.5562  -22.0501  -56.1546 C.2       21 UNK         0.5000 
    118 O         -1.1747  -22.6355  -57.1693 O.2       21 UNK        -0.5000 
    119 N         -1.6068  -20.7192  -56.0266 N.am      22 UNK        -0.5000 
    120 CA        -1.1055  -19.7482  -57.0141 C.3       22 UNK         0.1400 
    121 C         -2.1267  -18.6269  -57.3559 C.2       22 UNK         0.5000 
    122 N         -3.2092  -18.4470  -56.6098 N.am      22 UNK        -0.7600 
    123 O         -1.9417  -17.9111  -58.3366 O.2       22 UNK        -0.5000 
    124 C124        0.2559  -19.1356  -56.5832 C.3       23 UNK        -0.0398 
    125 S125        1.5897  -20.3770  -56.4602 S.3       23 UNK        -0.2404 
    126 C126        2.8052  -19.5273  -55.4016 C.3       23 UNK        -0.0205 
    127 H127        2.8256  -12.1238  -50.3847 H         1 UNK         0.0600 
    128 H128        4.1556  -11.5234  -49.3904 H         1 UNK         0.0600 
    129 H129        2.5257  -10.8776  -49.1701 H         1 UNK         0.0600 
    130 H130        2.0997  -14.1263  -49.7320 H         1 UNK         0.3000 
    131 H131        2.7447  -15.2909  -47.1961 H         1 UNK         0.0600 
    132 H132        2.6781  -16.7956  -49.0258 H         1 UNK         0.0800 
    133 H133        1.3388  -17.2195  -48.0170 H         1 UNK         0.0800 
    134 H134        2.7056  -16.1223  -51.2742 H         1 UNK         0.0800 
    135 H135        1.3448  -15.8293  -52.3221 H         1 UNK         0.0800 
    136 H136        2.4554  -17.2139  -54.0068 H         1 UNK         0.1150 
    137 H137        2.0992  -21.4627  -53.6161 H         1 UNK         0.1150 
    138 H138        1.2196  -18.9389  -50.2804 H         1 UNK         0.1150 
    139 H139        0.1942  -21.3661  -50.6266 H         1 UNK         0.0800 
    140 H140        1.1070  -22.4153  -51.6835 H         1 UNK         0.0800 
    141 H141        2.4399  -24.1705  -48.9648 H         1 UNK         0.0800 
    142 H142        0.9336  -23.8628  -49.7396 H         1 UNK         0.0800 
    143 H143        0.7266  -24.3049  -47.2786 H         1 UNK         0.0600 
    144 H144        1.4280  -21.8771  -46.1128 H         1 UNK         0.3000 
    145 H145        4.3631  -23.2085  -44.5444 H         1 UNK         0.0600 
    146 H146        5.3393  -20.9683  -44.9801 H         1 UNK         0.0600 
    147 H147        5.3745  -21.9360  -46.4464 H         1 UNK         0.0600 
    148 H148        4.1627  -20.6740  -46.2603 H         1 UNK         0.0600 
    149 H149        2.9341  -20.7741  -44.1390 H         1 UNK         0.3000 
    150 H150        0.1787  -21.8824  -42.4047 H         1 UNK         0.0600 
    151 H151        1.7143  -22.3056  -40.4962 H         1 UNK         0.0600 
    152 H152        1.0019  -20.7043  -40.3665 H         1 UNK         0.0600 
    153 H153        2.6668  -20.8888  -40.9180 H         1 UNK         0.0600 
    154 H154        1.2233  -19.3107  -42.3357 H         1 UNK         0.3000 
    155 H155        0.6663  -18.2178  -45.6593 H         1 UNK         0.0600 
    156 H156       -1.6136  -18.1768  -44.7709 H         1 UNK         0.0600 
    157 H157       -0.8564  -16.6314  -44.4106 H         1 UNK         0.0600 
    158 H158       -1.0487  -17.8391  -43.1455 H         1 UNK         0.0600 
    159 H159        1.4141  -17.1469  -43.0358 H         1 UNK         0.3000 
    160 H160        4.8678  -17.1029  -43.7568 H         1 UNK         0.0600 
    161 H161        4.7125  -14.6176  -43.5776 H         1 UNK         0.0600 
    162 H162        4.2312  -15.1595  -45.1768 H         1 UNK         0.0600 
    163 H163        3.0035  -14.6786  -44.0141 H         1 UNK         0.0600 
    164 H164        3.1995  -15.7753  -41.8073 H         1 UNK         0.3000 
    165 H165        2.7977  -18.5000  -39.6077 H         1 UNK         0.0600 
    166 H166        3.8980  -17.0240  -37.9456 H         1 UNK         0.0600 
    167 H167        5.1037  -17.7530  -38.9937 H         1 UNK         0.0600 
    168 H168        4.6372  -16.0737  -39.2353 H         1 UNK         0.0600 
    169 H169        2.1699  -15.7491  -39.3058 H         1 UNK         0.3000 
    170 H170       -0.2070  -15.2533  -39.3701 H         1 UNK         0.0600 
    171 H171        1.3339  -14.0544  -40.9499 H         1 UNK         0.0600 
    172 H172        0.4397  -14.6913  -42.3266 H         1 UNK         0.0600 
    173 H173       -0.3265  -13.5579  -41.2168 H         1 UNK         0.0600 
    174 H174       -1.8343  -15.4351  -41.6804 H         1 UNK         0.3000 
    175 H175       -3.9315  -18.0786  -40.7956 H         1 UNK         0.0600 
    176 H176       -5.7823  -16.4293  -40.6621 H         1 UNK         0.0600 
    177 H177       -4.8296  -16.4271  -39.1867 H         1 UNK         0.0600 
    178 H178       -4.6301  -15.1303  -40.3548 H         1 UNK         0.0600 
    179 H179       -3.9991  -17.6713  -42.9281 H         1 UNK         0.3000 
    180 H180       -3.4853  -16.8116  -44.9774 H         1 UNK         0.0600 
    181 H181       -5.6729  -14.6734  -44.6825 H         1 UNK         0.0600 
    182 H182       -5.9111  -16.4130  -44.5506 H         1 UNK         0.0600 
    183 H183       -5.4432  -15.7078  -46.0899 H         1 UNK         0.0600 
    184 H184       -2.8442  -13.9777  -44.7281 H         1 UNK         0.3000 
    185 H185       -2.1582  -13.2287  -47.7730 H         1 UNK         0.0600 
    186 H186       -2.2708  -12.1699  -45.5567 H         1 UNK         0.0600 
    187 H187       -0.8203  -13.0159  -45.0199 H         1 UNK         0.0600 
    188 H188       -0.7226  -11.8001  -46.2876 H         1 UNK         0.0600 
    189 H189       -0.2269  -13.9224  -48.5768 H         1 UNK         0.3000 
    190 H190        0.4832  -20.7693  -47.7209 H         1 UNK         0.3000 
    191 H191       -1.9145  -20.6671  -49.0737 H         1 UNK         0.0600 
    192 H192       -0.9541  -18.5578  -47.0905 H         1 UNK         0.0600 
    193 H193       -1.9584  -18.3088  -48.4975 H         1 UNK         0.0600 
    194 H194       -0.2822  -18.7750  -48.7017 H         1 UNK         0.0600 
    195 H195       -1.4943  -20.9558  -45.5661 H         1 UNK         0.3000 
    196 H196       -4.1745  -20.3507  -44.7883 H         1 UNK         0.0600 
    197 H197       -3.5072  -21.4834  -42.6531 H         1 UNK         0.0600 
    198 H198       -2.2862  -20.3417  -43.1894 H         1 UNK         0.0600 
    199 H199       -2.0391  -22.0725  -43.4239 H         1 UNK         0.0600 
    200 H200       -2.7064  -23.3126  -46.0424 H         1 UNK         0.3000 
    201 H201       -5.1159  -24.9539  -45.5176 H         1 UNK         0.0600 
    202 H202       -2.8768  -25.9954  -45.2248 H         1 UNK         0.0600 
    203 H203       -2.4615  -25.6259  -46.8975 H         1 UNK         0.0600 
    204 H204       -3.7564  -26.7609  -46.5389 H         1 UNK         0.0600 
    205 H205       -3.3262  -23.3917  -48.1702 H         1 UNK         0.3000 
    206 H206       -5.0871  -24.3711  -50.2575 H         1 UNK         0.0600 
    207 H207       -2.6570  -24.1693  -50.6014 H         1 UNK         0.0600 
    208 H208       -3.5064  -23.1306  -51.7296 H         1 UNK         0.0600 
    209 H209       -2.7224  -22.4371  -50.3140 H         1 UNK         0.0600 
    210 H210       -6.1601  -22.4181  -48.1454 H         1 UNK         0.3000 
    211 H211       -7.7532  -20.8785  -47.9679 H         1 UNK         0.0600 
    212 H212       -8.3612  -21.5551  -50.8967 H         1 UNK         0.0600 
    213 H213       -9.4604  -20.7818  -49.7639 H         1 UNK         0.0600 
    214 H214       -8.9498  -22.4402  -49.4908 H         1 UNK         0.0600 
    215 H215       -5.5580  -19.5921  -47.9621 H         1 UNK         0.3000 
    216 H216       -4.5458  -17.6404  -48.1159 H         1 UNK         0.0600 
    217 H217       -5.6617  -15.5983  -48.8392 H         1 UNK         0.0600 
    218 H218       -6.8260  -16.5591  -47.9395 H         1 UNK         0.0600 
    219 H219       -6.9051  -16.4943  -49.6988 H         1 UNK         0.0600 
    220 H220       -4.1225  -19.7362  -49.8614 H         1 UNK         0.3000 
    221 H221       -2.8418  -20.4213  -51.5136 H         1 UNK         0.0600 
    222 H222       -2.0766  -17.5216  -52.1133 H         1 UNK         0.0600 
    223 H223       -1.2871  -18.5559  -50.9287 H         1 UNK         0.0600 
    224 H224       -1.2189  -18.9628  -52.6314 H         1 UNK         0.0600 
    225 H225       -5.7268  -19.1939  -52.0386 H         1 UNK         0.3000 
    226 H226       -5.8599  -18.6062  -54.8125 H         1 UNK         0.0600 
    227 H227       -8.2956  -18.9778  -54.5080 H         1 UNK         0.0600 
    228 H228       -8.0100  -19.7479  -52.9523 H         1 UNK         0.0600 
    229 H229       -7.6513  -18.0351  -53.1714 H         1 UNK         0.0600 
    230 H230       -5.8696  -21.6993  -53.0597 H         1 UNK         0.3000 
    231 H231       -6.4832  -23.2794  -55.4674 H         1 UNK         0.0600 
    232 H232       -7.3086  -23.9383  -53.1860 H         1 UNK         0.0600 
    233 H233       -5.6408  -24.1604  -52.6599 H         1 UNK         0.0600 
    234 H234       -6.3096  -25.1826  -53.9223 H         1 UNK         0.0600 
    235 H235       -3.6679  -21.8169  -54.1693 H         1 UNK         0.3000 
    236 H236       -1.8021  -23.9204  -55.1559 H         1 UNK         0.0600 
    237 H237       -0.0926  -22.5864  -53.9122 H         1 UNK         0.0600 
    238 H238       -1.3481  -21.5009  -53.3346 H         1 UNK         0.0600 
    239 H239       -1.3598  -23.2013  -52.8698 H         1 UNK         0.0600 
    240 H240       -2.0086  -20.3230  -55.1831 H         1 UNK         0.3000 
    241 H241       -0.9449  -20.2633  -57.9629 H         1 UNK         0.0600 
    242 H242       -3.3541  -18.9805  -55.7578 H         1 UNK         0.3800 
    243 H243       -3.8601  -17.7210  -56.8612 H         1 UNK         0.3800 
    244 H244        0.5833  -18.3774  -57.2968 H         1 UNK         0.0800 
    245 H245        0.1459  -18.6275  -55.6238 H         1 UNK         0.0800 
    246 H246        3.7286  -20.1078  -55.3959 H         1 UNK         0.0800 
    247 H247        3.0533  -18.5637  -55.8493 H         1 UNK         0.0800 
@<TRIPOS>BOND
     1    1    2 1    
     2    1  127 1    
     3    1  128 1    
     4    1  129 1    
     5    2    3 2    
     6    2    4 am   BACKBONE|DICT|INTERRES
     7    4    5 1    
     8    4  130 1    
     9    5    6 1    
    10    5   65 1    
    11    5  131 1    
    12    6    7 1    
    13    6  132 1    
    14    6  133 1    
    15    7    8 1    
    16    8    9 1    
    17    8  134 1    
    18    8  135 1    
    19    9   10 ar   
    20    9   14 ar   
    21   10   11 ar   
    22   10  136 1    
    23   11   12 ar   
    24   11  126 1    
    25   12   13 ar   
    26   12  137 1    
    27   13   14 ar   
    28   13   15 1    
    29   14  138 1    
    30   15   16 1    
    31   15  139 1    
    32   15  140 1    
    33   16   17 1    
    34   17   18 1    
    35   17  141 1    
    36   17  142 1    
    37   18   19 1    
    38   18   67 1    
    39   18  143 1    
    40   19   20 am   BACKBONE|DICT|INTERRES
    41   19  144 1    
    42   20   21 2    
    43   20   22 1    
    44   22   23 1    
    45   22   24 1    
    46   22  145 1    
    47   23  146 1    
    48   23  147 1    
    49   23  148 1    
    50   24   25 am   BACKBONE|DICT|INTERRES
    51   24  149 1    
    52   25   26 2    
    53   25   27 1    
    54   27   28 1    
    55   27   29 1    
    56   27  150 1    
    57   28  151 1    
    58   28  152 1    
    59   28  153 1    
    60   29   30 am   BACKBONE|DICT|INTERRES
    61   29  154 1    
    62   30   31 2    
    63   30   32 1    
    64   32   33 1    
    65   32   34 1    
    66   32  155 1    
    67   33  156 1    
    68   33  157 1    
    69   33  158 1    
    70   34   35 am   BACKBONE|DICT|INTERRES
    71   34  159 1    
    72   35   36 2    
    73   35   37 1    
    74   37   38 1    
    75   37   39 1    
    76   37  160 1    
    77   38  161 1    
    78   38  162 1    
    79   38  163 1    
    80   39   40 am   BACKBONE|DICT|INTERRES
    81   39  164 1    
    82   40   41 2    
    83   40   42 1    
    84   42   43 1    
    85   42   44 1    
    86   42  165 1    
    87   43  166 1    
    88   43  167 1    
    89   43  168 1    
    90   44   45 am   BACKBONE|DICT|INTERRES
    91   44  169 1    
    92   45   46 2    
    93   45   47 1    
    94   47   48 1    
    95   47   49 1    
    96   47  170 1    
    97   48  171 1    
    98   48  172 1    
    99   48  173 1    
   100   49   50 am   BACKBONE|DICT|INTERRES
   101   49  174 1    
   102   50   51 2    
   103   50   52 1    
   104   52   53 1    
   105   52   54 1    
   106   52  175 1    
   107   53  176 1    
   108   53  177 1    
   109   53  178 1    
   110   54   55 am   BACKBONE|DICT|INTERRES
   111   54  179 1    
   112   55   56 2    
   113   55   57 1    
   114   57   58 1    
   115   57   59 1    
   116   57  180 1    
   117   58  181 1    
   118   58  182 1    
   119   58  183 1    
   120   59   60 am   BACKBONE|DICT|INTERRES
   121   59  184 1    
   122   60   61 2    
   123   60   62 1    
   124   62   63 1    
   125   62   64 1    
   126   62  185 1    
   127   63  186 1    
   128   63  187 1    
   129   63  188 1    
   130   64   65 am   BACKBONE|DICT|INTERRES
   131   64  189 1    
   132   65   66 2    
   133   67   68 2    
   134   67   69 am   BACKBONE|DICT|INTERRES
   135   69   70 1    
   136   69  190 1    
   137   70   71 1    
   138   70   72 1    
   139   70  191 1    
   140   71  192 1    
   141   71  193 1    
   142   71  194 1    
   143   72   73 2    
   144   72   74 am   BACKBONE|DICT|INTERRES
   145   74   75 1    
   146   74  195 1    
   147   75   76 1    
   148   75   77 1    
   149   75  196 1    
   150   76  197 1    
   151   76  198 1    
   152   76  199 1    
   153   77   78 2    
   154   77   79 am   BACKBONE|DICT|INTERRES
   155   79   80 1    
   156   79  200 1    
   157   80   81 1    
   158   80   82 1    
   159   80  201 1    
   160   81  202 1    
   161   81  203 1    
   162   81  204 1    
   163   82   83 2    
   164   82   84 am   BACKBONE|DICT|INTERRES
   165   84   85 1    
   166   84  205 1    
   167   85   86 1    
   168   85   87 1    
   169   85  206 1    
   170   86  207 1    
   171   86  208 1    
   172   86  209 1    
   173   87   88 2    
   174   87   89 am   BACKBONE|DICT|INTERRES
   175   89   90 1    
   176   89  210 1    
   177   90   91 1    
   178   90   92 1    
   179   90  211 1    
   180   91  212 1    
   181   91  213 1    
   182   91  214 1    
   183   92   93 2    
   184   92   94 am   BACKBONE|DICT|INTERRES
   185   94   95 1    
   186   94  215 1    
   187   95   96 1    
   188   95   97 1    
   189   95  216 1    
   190   96  217 1    
   191   96  218 1    
   192   96  219 1    
   193   97   98 2    
   194   97   99 am   BACKBONE|DICT|INTERRES
   195   99  100 1    
   196   99  220 1    
   197  100  101 1    
   198  100  102 1    
   199  100  221 1    
   200  101  222 1    
   201  101  223 1    
   202  101  224 1    
   203  102  103 2    
   204  102  104 am   BACKBONE|DICT|INTERRES
   205  104  105 1    
   206  104  225 1    
   207  105  106 1    
   208  105  107 1    
   209  105  226 1    
   210  106  227 1    
   211  106  228 1    
   212  106  229 1    
   213  107  108 2    
   214  107  109 am   BACKBONE|DICT|INTERRES
   215  109  110 1    
   216  109  230 1    
   217  110  111 1    
   218  110  112 1    
   219  110  231 1    
   220  111  232 1    
   221  111  233 1    
   222  111  234 1    
   223  112  113 2    
   224  112  114 am   BACKBONE|DICT|INTERRES
   225  114  115 1    
   226  114  235 1    
   227  115  116 1    
   228  115  117 1    
   229  115  236 1    
   230  116  237 1    
   231  116  238 1    
   232  116  239 1    
   233  117  118 2    
   234  117  119 am   BACKBONE|DICT|INTERRES
   235  119  120 1    
   236  119  240 1    
   237  120  121 1    
   238  120  124 1    
   239  120  241 1    
   240  121  122 am   BACKBONE|DICT|INTERRES
   241  121  123 2    
   242  122  242 1    
   243  122  243 1    
   244  124  125 1    
   245  124  244 1    
   246  124  245 1    
   247  125  126 1    
   248  126  246 1    
   249  126  247 1    
@<TRIPOS>SUBSTRUCTURE
     1 UNK         1 GROUP             0       ****    0 ROOT    
