@<TRIPOS>MOLECULE
3R540
247   249    1
SMALL
USER_CHARGES


@<TRIPOS>ATOM
      1 CA         -1.3098   -9.5957  -45.2676 C.3       0 UNK        -0.1800 
      2 C          -0.9955  -11.0053  -45.7639 C.2       0 UNK         0.5000 
      3 O          -1.3019  -11.9684  -45.0671 O.2       0 UNK        -0.5000 
      4 N          -0.3989  -11.1905  -46.9499 N.am      1 UNK        -0.5000 
      5 CA         -0.0479  -10.1671  -47.9463 C.3       1 UNK         0.1400 
      6 C6          0.2671  -10.7883  -49.3301 C.3       23 UNK        -0.0398 
      7 S7         -1.0692  -11.8659  -49.9569 S.3       23 UNK        -0.2404 
      8 C8         -0.2563  -13.4897  -49.8518 C.3       23 UNK        -0.0205 
      9 C9         -1.1610  -14.6125  -50.3328 C.ar      23 UNK        -0.0193 
     10 C10        -1.3077  -14.8530  -51.7016 C.ar      23 UNK        -0.1150 
     11 C11        -2.0768  -15.9279  -52.1562 C.ar      23 UNK        -0.0193 
     12 C12        -2.7146  -16.7578  -51.2295 C.ar      23 UNK        -0.1150 
     13 C13        -2.5820  -16.5227  -49.8577 C.ar      23 UNK        -0.0193 
     14 C14        -1.8104  -15.4439  -49.4149 C.ar      23 UNK        -0.1150 
     15 C15        -3.2185  -17.4729  -48.8562 C.3       23 UNK        -0.0205 
     16 S16        -2.1143  -18.8861  -48.5965 S.3       23 UNK        -0.2404 
     17 C17        -2.9886  -19.8811  -47.3452 C.3       23 UNK        -0.0398 
     18 CA         -2.2895  -21.2533  -47.2074 C.3       11 UNK         0.1400 
     19 N          -0.9312  -21.1380  -46.6724 N.am      11 UNK        -0.5000 
     20 C           0.0006  -22.0911  -46.7902 C.2       10 UNK         0.5000 
     21 O          -0.2022  -23.1757  -47.3348 O.2       10 UNK        -0.5000 
     22 CA          1.3764  -21.7991  -46.1695 C.3       10 UNK         0.1400 
     23 CB          2.1813  -20.8388  -47.0585 C.3       10 UNK        -0.1800 
     24 N           1.2778  -21.2565  -44.8147 N.am      10 UNK        -0.5000 
     25 C           0.7579  -21.9164  -43.7700 C.2       9 UNK         0.5000 
     26 O           0.3240  -23.0670  -43.8343 O.2       9 UNK        -0.5000 
     27 CA          0.6683  -21.1492  -42.4382 C.3       9 UNK         0.1400 
     28 CB          2.0336  -21.1071  -41.7359 C.3       9 UNK        -0.1800 
     29 N           0.1509  -19.7893  -42.5982 N.am      9 UNK        -0.5000 
     30 C          -1.0733  -19.4984  -43.0629 C.2       8 UNK         0.5000 
     31 O          -1.9033  -20.3455  -43.3867 O.2       8 UNK        -0.5000 
     32 CA         -1.4179  -18.0123  -43.2468 C.3       8 UNK         0.1400 
     33 CB         -1.7700  -17.3661  -41.8988 C.3       8 UNK        -0.1800 
     34 N          -0.3473  -17.2618  -43.9020 N.am      8 UNK        -0.5000 
     35 C           0.1217  -17.5280  -45.1302 C.2       7 UNK         0.5000 
     36 O          -0.3148  -18.4263  -45.8476 O.2       7 UNK        -0.5000 
     37 CA          1.3223  -16.6965  -45.6122 C.3       7 UNK         0.1400 
     38 CB          0.8891  -15.2801  -46.0212 C.3       7 UNK        -0.1800 
     39 N           2.3795  -16.6195  -44.6054 N.am      7 UNK        -0.5000 
     40 C           3.0482  -17.6732  -44.1152 C.2       6 UNK         0.5000 
     41 O           2.8767  -18.8333  -44.4888 O.2       6 UNK        -0.5000 
     42 CA          4.0453  -17.3852  -42.9820 C.3       6 UNK         0.1400 
     43 CB          5.3732  -16.8502  -43.5393 C.3       6 UNK        -0.1800 
     44 N           3.5012  -16.4390  -42.0091 N.am      6 UNK        -0.5000 
     45 C           2.5073  -16.7207  -41.1552 C.2       5 UNK         0.5000 
     46 O           1.9556  -17.8193  -41.0818 O.2       5 UNK        -0.5000 
     47 CA          2.0274  -15.5643  -40.2588 C.3       5 UNK         0.1400 
     48 CB          2.9655  -15.3803  -39.0565 C.3       5 UNK        -0.1800 
     49 N           1.9117  -14.2985  -40.9864 N.am      5 UNK        -0.5000 
     50 C           1.0237  -14.0792  -41.9652 C.2       4 UNK         0.5000 
     51 O           0.2073  -14.9160  -42.3453 O.2       4 UNK        -0.5000 
     52 CA          1.0774  -12.7147  -42.6705 C.3       4 UNK         0.1400 
     53 CB          0.2508  -11.6699  -41.9068 C.3       4 UNK        -0.1800 
     54 N           2.4236  -12.1911  -42.9051 N.am      4 UNK        -0.5000 
     55 C           3.3975  -12.8152  -43.5791 C.2       3 UNK         0.5000 
     56 O           3.3251  -13.9821  -43.9669 O.2       3 UNK        -0.5000 
     57 CA          4.6206  -11.9524  -43.9393 C.3       3 UNK         0.1400 
     58 CB          5.8200  -12.7971  -44.4049 C.3       3 UNK        -0.1800 
     59 N           4.2611  -11.0115  -45.0011 N.am      3 UNK        -0.5000 
     60 C           3.5901   -9.8654  -44.8247 C.2       2 UNK         0.5000 
     61 O           3.2481   -9.4353  -43.7222 O.2       2 UNK        -0.5000 
     62 CA          3.1719   -9.1177  -46.0953 C.3       2 UNK         0.1400 
     63 CB          4.3140   -8.9902  -47.1243 C.3       2 UNK        -0.1800 
     64 N           2.0252   -9.8130  -46.6722 N.am      2 UNK        -0.5000 
     65 C           1.1242   -9.2671  -47.4979 C.2       1 UNK         0.5000 
     66 O           1.1776   -8.1029  -47.8954 O.2       1 UNK        -0.5000 
     67 C          -3.1372  -22.2805  -46.4321 C.2       11 UNK         0.5000 
     68 O          -3.9230  -22.9925  -47.0573 O.2       11 UNK        -0.5000 
     69 N          -2.9285  -22.3996  -45.1125 N.am      12 UNK        -0.5000 
     70 CA         -3.5311  -23.4419  -44.2778 C.3       12 UNK         0.1400 
     71 CB         -3.2850  -23.1353  -42.7931 C.3       12 UNK        -0.1800 
     72 C          -3.0239  -24.8529  -44.6281 C.2       12 UNK         0.5000 
     73 O          -3.8129  -25.7971  -44.6025 O.2       12 UNK        -0.5000 
     74 N          -1.7317  -24.9714  -44.9662 N.am      13 UNK        -0.5000 
     75 CA         -1.1155  -26.2135  -45.4341 C.3       13 UNK         0.1400 
     76 CB          0.4147  -26.0871  -45.3782 C.3       13 UNK        -0.1800 
     77 C          -1.5870  -26.6064  -46.8469 C.2       13 UNK         0.5000 
     78 O          -1.8402  -27.7865  -47.0922 O.2       13 UNK        -0.5000 
     79 N          -1.7090  -25.6152  -47.7422 N.am      14 UNK        -0.5000 
     80 CA         -2.2136  -25.7805  -49.1076 C.3       14 UNK         0.1400 
     81 CB         -1.9422  -24.4995  -49.9067 C.3       14 UNK        -0.1800 
     82 C          -3.7095  -26.1497  -49.1511 C.2       14 UNK         0.5000 
     83 O          -4.1060  -26.9744  -49.9755 O.2       14 UNK        -0.5000 
     84 N          -4.4952  -25.5584  -48.2392 N.am      15 UNK        -0.5000 
     85 CA         -5.8960  -25.8515  -47.9352 C.3       15 UNK         0.1400 
     86 CB         -6.0003  -27.2066  -47.1989 C.3       15 UNK        -0.1800 
     87 C          -6.8174  -25.7448  -49.1682 C.2       15 UNK         0.5000 
     88 O          -7.1267  -24.6338  -49.5992 O.2       15 UNK        -0.5000 
     89 N          -7.2473  -26.8968  -49.6989 N.am      16 UNK        -0.5000 
     90 CA         -8.1874  -27.0362  -50.8114 C.3       16 UNK         0.1400 
     91 CB         -8.7586  -28.4638  -50.7831 C.3       16 UNK        -0.1800 
     92 C          -7.5974  -26.7134  -52.2000 C.2       16 UNK         0.5000 
     93 O          -8.3536  -26.7017  -53.1733 O.2       16 UNK        -0.5000 
     94 N          -6.2789  -26.4806  -52.2883 N.am      17 UNK        -0.5000 
     95 CA         -5.5718  -26.0973  -53.5133 C.3       17 UNK         0.1400 
     96 CB         -4.0769  -25.9440  -53.1989 C.3       17 UNK        -0.1800 
     97 C          -6.1155  -24.7961  -54.1379 C.2       17 UNK         0.5000 
     98 O          -6.4596  -23.8606  -53.4099 O.2       17 UNK        -0.5000 
     99 N          -6.1644  -24.7548  -55.4760 N.am      18 UNK        -0.5000 
    100 CA        -6.6096  -23.6038  -56.2627 C.3       18 UNK         0.1400 
    101 CB        -6.6593  -23.9920  -57.7490 C.3       18 UNK        -0.1800 
    102 C         -5.6931  -22.3886  -56.0348 C.2       18 UNK         0.5000 
    103 O         -4.4986  -22.4750  -56.3208 O.2       18 UNK        -0.5000 
    104 N         -6.2719  -21.3099  -55.4881 N.am      19 UNK        -0.5000 
    105 CA        -5.6095  -20.0811  -55.0292 C.3       19 UNK         0.1400 
    106 CB        -4.9300  -19.3387  -56.1987 C.3       19 UNK        -0.1800 
    107 C         -4.6637  -20.2969  -53.8251 C.2       19 UNK         0.5000 
    108 O         -3.7733  -19.4765  -53.5943 O.2       19 UNK        -0.5000 
    109 N         -4.8848  -21.3816  -53.0649 N.am      20 UNK        -0.5000 
    110 CA        -4.1270  -21.8082  -51.8878 C.3       20 UNK         0.1400 
    111 CB        -4.4430  -20.8919  -50.6881 C.3       20 UNK        -0.1800 
    112 C         -2.6251  -21.9544  -52.2073 C.2       20 UNK         0.5000 
    113 O         -2.2802  -22.7316  -53.0994 O.2       20 UNK        -0.5000 
    114 N         -1.7594  -21.2057  -51.5084 N.am      21 UNK        -0.5000 
    115 CA        -0.3071  -21.2085  -51.7083 C.3       21 UNK         0.1400 
    116 CB         0.3625  -20.3871  -50.5970 C.3       21 UNK        -0.1800 
    117 C          0.1399  -20.7051  -53.0966 C.2       21 UNK         0.5000 
    118 O          1.2433  -21.0452  -53.5261 O.2       21 UNK        -0.5000 
    119 N         -0.7159  -19.9331  -53.7799 N.am      22 UNK        -0.5000 
    120 CA        -0.5159  -19.5054  -55.1737 C.3       22 UNK         0.1400 
    121 C         -0.9506  -20.5735  -56.2214 C.2       22 UNK         0.5000 
    122 N         -1.5085  -21.7135  -55.8313 N.am      22 UNK        -0.7600 
    123 O         -0.7722  -20.3650  -57.4184 O.2       22 UNK        -0.5000 
    124 C124       -1.1801  -18.1356  -55.4717 C.3       23 UNK        -0.0398 
    125 S125       -0.6276  -16.8171  -54.3348 S.3       23 UNK        -0.2404 
    126 C126       -2.2008  -16.2039  -53.6459 C.3       23 UNK        -0.0205 
    127 H127       -1.8133   -9.0028  -46.0303 H         1 UNK         0.0600 
    128 H128       -0.3972   -9.0829  -44.9645 H         1 UNK         0.0600 
    129 H129       -1.9684   -9.6389  -44.3999 H         1 UNK         0.0600 
    130 H130       -0.2337  -12.1402  -47.2459 H         1 UNK         0.3000 
    131 H131       -0.9175   -9.5207  -48.0779 H         1 UNK         0.0600 
    132 H132        0.4211   -9.9989  -50.0683 H         1 UNK         0.0800 
    133 H133        1.2028  -11.3497  -49.2958 H         1 UNK         0.0800 
    134 H134        0.6531  -13.4782  -50.4550 H         1 UNK         0.0800 
    135 H135        0.0598  -13.6741  -48.8244 H         1 UNK         0.0800 
    136 H136       -0.8019  -14.2175  -52.4152 H         1 UNK         0.1150 
    137 H137       -3.2947  -17.6024  -51.5748 H         1 UNK         0.1150 
    138 H138       -1.6926  -15.2718  -48.3547 H         1 UNK         0.1150 
    139 H139       -3.3981  -16.9676  -47.9059 H         1 UNK         0.0800 
    140 H140       -4.1864  -17.8183  -49.2222 H         1 UNK         0.0800 
    141 H141       -4.0286  -19.9967  -47.6554 H         1 UNK         0.0800 
    142 H142       -2.9960  -19.3470  -46.3935 H         1 UNK         0.0800 
    143 H143       -2.1915  -21.6623  -48.2151 H         1 UNK         0.0600 
    144 H144       -0.6834  -20.2447  -46.2520 H         1 UNK         0.3000 
    145 H145        1.9207  -22.7438  -46.1108 H         1 UNK         0.0600 
    146 H146        3.1869  -20.6885  -46.6655 H         1 UNK         0.0600 
    147 H147        2.2824  -21.2344  -48.0698 H         1 UNK         0.0600 
    148 H148        1.7032  -19.8615  -47.1337 H         1 UNK         0.0600 
    149 H149        1.6395  -20.3169  -44.6741 H         1 UNK         0.3000 
    150 H150       -0.0256  -21.6917  -41.7928 H         1 UNK         0.0600 
    151 H151        2.4339  -22.1124  -41.5988 H         1 UNK         0.0600 
    152 H152        1.9541  -20.6514  -40.7489 H         1 UNK         0.0600 
    153 H153        2.7651  -20.5367  -42.3087 H         1 UNK         0.0600 
    154 H154        0.7715  -19.0317  -42.3349 H         1 UNK         0.3000 
    155 H155       -2.2990  -17.9555  -43.8894 H         1 UNK         0.0600 
    156 H156       -0.9084  -17.3321  -41.2311 H         1 UNK         0.0600 
    157 H157       -2.1293  -16.3459  -42.0342 H         1 UNK         0.0600 
    158 H158       -2.5590  -17.9227  -41.3915 H         1 UNK         0.0600 
    159 H159        0.0442  -16.4841  -43.3764 H         1 UNK         0.3000 
    160 H160        1.7382  -17.1918  -46.4919 H         1 UNK         0.0600 
    161 H161        1.7306  -14.7060  -46.4093 H         1 UNK         0.0600 
    162 H162        0.4666  -14.7282  -45.1816 H         1 UNK         0.0600 
    163 H163        0.1308  -15.3184  -46.8029 H         1 UNK         0.0600 
    164 H164        2.6180  -15.6919  -44.2625 H         1 UNK         0.3000 
    165 H165        4.2485  -18.3264  -42.4666 H         1 UNK         0.0600 
    166 H166        6.0969  -16.6817  -42.7418 H         1 UNK         0.0600 
    167 H167        5.8166  -17.5629  -44.2357 H         1 UNK         0.0600 
    168 H168        5.2392  -15.9104  -44.0754 H         1 UNK         0.0600 
    169 H169        3.8459  -15.4914  -42.0567 H         1 UNK         0.3000 
    170 H170        1.0377  -15.8284  -39.8799 H         1 UNK         0.0600 
    171 H171        3.9681  -15.0837  -39.3669 H         1 UNK         0.0600 
    172 H172        2.5864  -14.6196  -38.3739 H         1 UNK         0.0600 
    173 H173        3.0581  -16.3074  -38.4892 H         1 UNK         0.0600 
    174 H174        2.5558  -13.5610  -40.7411 H         1 UNK         0.3000 
    175 H175        0.6255  -12.8544  -43.6518 H         1 UNK         0.0600 
    176 H176        0.1854  -10.7357  -42.4652 H         1 UNK         0.0600 
    177 H177        0.6824  -11.4498  -40.9298 H         1 UNK         0.0600 
    178 H178       -0.7695  -12.0212  -41.7467 H         1 UNK         0.0600 
    179 H179        2.5676  -11.2130  -42.6837 H         1 UNK         0.3000 
    180 H180        4.9234  -11.4004  -43.0470 H         1 UNK         0.0600 
    181 H181        5.5909  -13.3670  -45.3064 H         1 UNK         0.0600 
    182 H182        6.1185  -13.5078  -43.6334 H         1 UNK         0.0600 
    183 H183        6.6845  -12.1681  -44.6179 H         1 UNK         0.0600 
    184 H184        4.4770  -11.3040  -45.9430 H         1 UNK         0.3000 
    185 H185        2.8662   -8.1140  -45.7916 H         1 UNK         0.0600 
    186 H186        4.5798   -9.9513  -47.5650 H         1 UNK         0.0600 
    187 H187        4.0337   -8.3223  -47.9389 H         1 UNK         0.0600 
    188 H188        5.2115   -8.5756  -46.6635 H         1 UNK         0.0600 
    189 H189        1.8806  -10.7634  -46.3600 H         1 UNK         0.3000 
    190 H190       -2.3099  -21.7447  -44.6414 H         1 UNK         0.3000 
    191 H191       -4.6094  -23.4275  -44.4499 H         1 UNK         0.0600 
    192 H192       -3.7362  -22.1851  -42.5076 H         1 UNK         0.0600 
    193 H193       -3.7221  -23.9054  -42.1562 H         1 UNK         0.0600 
    194 H194       -2.2201  -23.0841  -42.5640 H         1 UNK         0.0600 
    195 H195       -1.1289  -24.1585  -44.9016 H         1 UNK         0.3000 
    196 H196       -1.4088  -27.0146  -44.7523 H         1 UNK         0.0600 
    197 H197        0.8945  -27.0120  -45.7003 H         1 UNK         0.0600 
    198 H198        0.7550  -25.8802  -44.3634 H         1 UNK         0.0600 
    199 H199        0.7801  -25.2867  -46.0213 H         1 UNK         0.0600 
    200 H200       -1.3949  -24.6848  -47.4806 H         1 UNK         0.3000 
    201 H201       -1.6551  -26.5949  -49.5734 H         1 UNK         0.0600 
    202 H202       -0.8887  -24.2217  -49.8689 H         1 UNK         0.0600 
    203 H203       -2.5246  -23.6587  -49.5303 H         1 UNK         0.0600 
    204 H204       -2.1988  -24.6405  -50.9557 H         1 UNK         0.0600 
    205 H205       -4.0911  -24.8108  -47.6821 H         1 UNK         0.3000 
    206 H206       -6.2248  -25.0766  -47.2411 H         1 UNK         0.0600 
    207 H207       -5.4367  -27.1846  -46.2667 H         1 UNK         0.0600 
    208 H208       -7.0345  -27.4374  -46.9402 H         1 UNK         0.0600 
    209 H209       -5.6097  -28.0334  -47.7931 H         1 UNK         0.0600 
    210 H210       -6.9009  -27.7569  -49.2991 H         1 UNK         0.3000 
    211 H211       -9.0113  -26.3386  -50.6473 H         1 UNK         0.0600 
    212 H212       -7.9794  -29.2108  -50.9394 H         1 UNK         0.0600 
    213 H213       -9.5085  -28.6039  -51.5628 H         1 UNK         0.0600 
    214 H214       -9.2430  -28.6769  -49.8299 H         1 UNK         0.0600 
    215 H215       -5.7258  -26.5271  -51.4413 H         1 UNK         0.3000 
    216 H216       -5.6955  -26.9100  -54.2318 H         1 UNK         0.0600 
    217 H217       -3.5113  -25.6745  -54.0919 H         1 UNK         0.0600 
    218 H218       -3.6543  -26.8712  -52.8118 H         1 UNK         0.0600 
    219 H219       -3.9086  -25.1622  -52.4587 H         1 UNK         0.0600 
    220 H220       -5.8321  -25.5497  -56.0020 H         1 UNK         0.3000 
    221 H221       -7.6238  -23.3531  -55.9445 H         1 UNK         0.0600 
    222 H222       -5.6791  -24.2935  -58.1207 H         1 UNK         0.0600 
    223 H223       -7.3516  -24.8168  -57.9191 H         1 UNK         0.0600 
    224 H224       -6.9973  -23.1532  -58.3589 H         1 UNK         0.0600 
    225 H225       -7.2599  -21.3613  -55.2805 H         1 UNK         0.3000 
    226 H226       -6.4081  -19.4362  -54.6604 H         1 UNK         0.0600 
    227 H227       -5.6078  -19.2292  -57.0451 H         1 UNK         0.0600 
    228 H228       -4.6271  -18.3355  -55.8978 H         1 UNK         0.0600 
    229 H229       -4.0379  -19.8597  -56.5473 H         1 UNK         0.0600 
    230 H230       -5.6051  -22.0340  -53.3580 H         1 UNK         0.3000 
    231 H231       -4.4834  -22.8087  -51.6383 H         1 UNK         0.0600 
    232 H232       -4.1077  -19.8674  -50.8501 H         1 UNK         0.0600 
    233 H233       -3.9725  -21.2672  -49.7805 H         1 UNK         0.0600 
    234 H234       -5.5156  -20.8598  -50.4967 H         1 UNK         0.0600 
    235 H235       -2.1162  -20.5574  -50.8210 H         1 UNK         0.3000 
    236 H236        0.0335  -22.2418  -51.6148 H         1 UNK         0.0600 
    237 H237        0.1056  -20.7729  -49.6108 H         1 UNK         0.0600 
    238 H238        1.4490  -20.4229  -50.6844 H         1 UNK         0.0600 
    239 H239        0.0657  -19.3384  -50.6402 H         1 UNK         0.0600 
    240 H240       -1.6218  -19.7178  -53.3802 H         1 UNK         0.3000 
    241 H241        0.5558  -19.3695  -55.3306 H         1 UNK         0.0600 
    242 H242       -1.6855  -21.9116  -54.8530 H         1 UNK         0.3800 
    243 H243       -1.8337  -22.3664  -56.5263 H         1 UNK         0.3800 
    244 H244       -0.9374  -17.8106  -56.4848 H         1 UNK         0.0800 
    245 H245       -2.2643  -18.2313  -55.4436 H         1 UNK         0.0800 
    246 H246       -2.4857  -15.2883  -54.1657 H         1 UNK         0.0800 
    247 H247       -3.0068  -16.9163  -53.8219 H         1 UNK         0.0800 
@<TRIPOS>BOND
     1    1    2 1    
     2    1  127 1    
     3    1  128 1    
     4    1  129 1    
     5    2    3 2    
     6    2    4 am   BACKBONE|DICT|INTERRES
     7    4    5 1    
     8    4  130 1    
     9    5    6 1    
    10    5   65 1    
    11    5  131 1    
    12    6    7 1    
    13    6  132 1    
    14    6  133 1    
    15    7    8 1    
    16    8    9 1    
    17    8  134 1    
    18    8  135 1    
    19    9   10 ar   
    20    9   14 ar   
    21   10   11 ar   
    22   10  136 1    
    23   11   12 ar   
    24   11  126 1    
    25   12   13 ar   
    26   12  137 1    
    27   13   14 ar   
    28   13   15 1    
    29   14  138 1    
    30   15   16 1    
    31   15  139 1    
    32   15  140 1    
    33   16   17 1    
    34   17   18 1    
    35   17  141 1    
    36   17  142 1    
    37   18   19 1    
    38   18   67 1    
    39   18  143 1    
    40   19   20 am   BACKBONE|DICT|INTERRES
    41   19  144 1    
    42   20   21 2    
    43   20   22 1    
    44   22   23 1    
    45   22   24 1    
    46   22  145 1    
    47   23  146 1    
    48   23  147 1    
    49   23  148 1    
    50   24   25 am   BACKBONE|DICT|INTERRES
    51   24  149 1    
    52   25   26 2    
    53   25   27 1    
    54   27   28 1    
    55   27   29 1    
    56   27  150 1    
    57   28  151 1    
    58   28  152 1    
    59   28  153 1    
    60   29   30 am   BACKBONE|DICT|INTERRES
    61   29  154 1    
    62   30   31 2    
    63   30   32 1    
    64   32   33 1    
    65   32   34 1    
    66   32  155 1    
    67   33  156 1    
    68   33  157 1    
    69   33  158 1    
    70   34   35 am   BACKBONE|DICT|INTERRES
    71   34  159 1    
    72   35   36 2    
    73   35   37 1    
    74   37   38 1    
    75   37   39 1    
    76   37  160 1    
    77   38  161 1    
    78   38  162 1    
    79   38  163 1    
    80   39   40 am   BACKBONE|DICT|INTERRES
    81   39  164 1    
    82   40   41 2    
    83   40   42 1    
    84   42   43 1    
    85   42   44 1    
    86   42  165 1    
    87   43  166 1    
    88   43  167 1    
    89   43  168 1    
    90   44   45 am   BACKBONE|DICT|INTERRES
    91   44  169 1    
    92   45   46 2    
    93   45   47 1    
    94   47   48 1    
    95   47   49 1    
    96   47  170 1    
    97   48  171 1    
    98   48  172 1    
    99   48  173 1    
   100   49   50 am   BACKBONE|DICT|INTERRES
   101   49  174 1    
   102   50   51 2    
   103   50   52 1    
   104   52   53 1    
   105   52   54 1    
   106   52  175 1    
   107   53  176 1    
   108   53  177 1    
   109   53  178 1    
   110   54   55 am   BACKBONE|DICT|INTERRES
   111   54  179 1    
   112   55   56 2    
   113   55   57 1    
   114   57   58 1    
   115   57   59 1    
   116   57  180 1    
   117   58  181 1    
   118   58  182 1    
   119   58  183 1    
   120   59   60 am   BACKBONE|DICT|INTERRES
   121   59  184 1    
   122   60   61 2    
   123   60   62 1    
   124   62   63 1    
   125   62   64 1    
   126   62  185 1    
   127   63  186 1    
   128   63  187 1    
   129   63  188 1    
   130   64   65 am   BACKBONE|DICT|INTERRES
   131   64  189 1    
   132   65   66 2    
   133   67   68 2    
   134   67   69 am   BACKBONE|DICT|INTERRES
   135   69   70 1    
   136   69  190 1    
   137   70   71 1    
   138   70   72 1    
   139   70  191 1    
   140   71  192 1    
   141   71  193 1    
   142   71  194 1    
   143   72   73 2    
   144   72   74 am   BACKBONE|DICT|INTERRES
   145   74   75 1    
   146   74  195 1    
   147   75   76 1    
   148   75   77 1    
   149   75  196 1    
   150   76  197 1    
   151   76  198 1    
   152   76  199 1    
   153   77   78 2    
   154   77   79 am   BACKBONE|DICT|INTERRES
   155   79   80 1    
   156   79  200 1    
   157   80   81 1    
   158   80   82 1    
   159   80  201 1    
   160   81  202 1    
   161   81  203 1    
   162   81  204 1    
   163   82   83 2    
   164   82   84 am   BACKBONE|DICT|INTERRES
   165   84   85 1    
   166   84  205 1    
   167   85   86 1    
   168   85   87 1    
   169   85  206 1    
   170   86  207 1    
   171   86  208 1    
   172   86  209 1    
   173   87   88 2    
   174   87   89 am   BACKBONE|DICT|INTERRES
   175   89   90 1    
   176   89  210 1    
   177   90   91 1    
   178   90   92 1    
   179   90  211 1    
   180   91  212 1    
   181   91  213 1    
   182   91  214 1    
   183   92   93 2    
   184   92   94 am   BACKBONE|DICT|INTERRES
   185   94   95 1    
   186   94  215 1    
   187   95   96 1    
   188   95   97 1    
   189   95  216 1    
   190   96  217 1    
   191   96  218 1    
   192   96  219 1    
   193   97   98 2    
   194   97   99 am   BACKBONE|DICT|INTERRES
   195   99  100 1    
   196   99  220 1    
   197  100  101 1    
   198  100  102 1    
   199  100  221 1    
   200  101  222 1    
   201  101  223 1    
   202  101  224 1    
   203  102  103 2    
   204  102  104 am   BACKBONE|DICT|INTERRES
   205  104  105 1    
   206  104  225 1    
   207  105  106 1    
   208  105  107 1    
   209  105  226 1    
   210  106  227 1    
   211  106  228 1    
   212  106  229 1    
   213  107  108 2    
   214  107  109 am   BACKBONE|DICT|INTERRES
   215  109  110 1    
   216  109  230 1    
   217  110  111 1    
   218  110  112 1    
   219  110  231 1    
   220  111  232 1    
   221  111  233 1    
   222  111  234 1    
   223  112  113 2    
   224  112  114 am   BACKBONE|DICT|INTERRES
   225  114  115 1    
   226  114  235 1    
   227  115  116 1    
   228  115  117 1    
   229  115  236 1    
   230  116  237 1    
   231  116  238 1    
   232  116  239 1    
   233  117  118 2    
   234  117  119 am   BACKBONE|DICT|INTERRES
   235  119  120 1    
   236  119  240 1    
   237  120  121 1    
   238  120  124 1    
   239  120  241 1    
   240  121  122 am   BACKBONE|DICT|INTERRES
   241  121  123 2    
   242  122  242 1    
   243  122  243 1    
   244  124  125 1    
   245  124  244 1    
   246  124  245 1    
   247  125  126 1    
   248  126  246 1    
   249  126  247 1    
@<TRIPOS>SUBSTRUCTURE
     1 UNK         1 GROUP             0       ****    0 ROOT    
