@<TRIPOS>MOLECULE
3R540
247   249    1
SMALL
USER_CHARGES


@<TRIPOS>ATOM
      1 CA          1.8026  -15.3262  -49.7159 C.3       0 UNK        -0.1800 
      2 C           1.7160  -14.9144  -48.2541 C.2       0 UNK         0.5000 
      3 O           2.7237  -14.9386  -47.5486 O.2       0 UNK        -0.5000 
      4 N           0.5230  -14.5080  -47.8009 N.am      1 UNK        -0.5000 
      5 CA          0.2113  -14.1108  -46.4193 C.3       1 UNK         0.1400 
      6 C6         -1.3112  -13.9360  -46.1759 C.3       23 UNK        -0.0398 
      7 S7         -2.1934  -12.9623  -47.4511 S.3       23 UNK        -0.2404 
      8 C8         -3.4635  -14.1434  -48.0244 C.3       23 UNK        -0.0205 
      9 C9         -2.9630  -15.0480  -49.1441 C.ar      23 UNK        -0.0193 
     10 C10        -3.4150  -14.8675  -50.4564 C.ar      23 UNK        -0.1150 
     11 C11        -2.9813  -15.7054  -51.4906 C.ar      23 UNK        -0.0193 
     12 C12        -2.0478  -16.7072  -51.1974 C.ar      23 UNK        -0.1150 
     13 C13        -1.5953  -16.9050  -49.8926 C.ar      23 UNK        -0.0193 
     14 C14        -2.0706  -16.0861  -48.8687 C.ar      23 UNK        -0.1150 
     15 C15        -0.5990  -18.0116  -49.5939 C.3       23 UNK        -0.0205 
     16 S16        -1.4161  -19.6310  -49.5641 S.3       23 UNK        -0.2404 
     17 C17        -2.4034  -19.5225  -48.0343 C.3       23 UNK        -0.0398 
     18 CA         -2.2464  -20.7875  -47.1581 C.3       11 UNK         0.1400 
     19 N          -2.4924  -20.5312  -45.7364 N.am      11 UNK        -0.5000 
     20 C          -3.6169  -20.1090  -45.1417 C.2       10 UNK         0.5000 
     21 O          -4.6838  -19.9295  -45.7299 O.2       10 UNK        -0.5000 
     22 CA         -3.5185  -19.8176  -43.6337 C.3       10 UNK         0.1400 
     23 CB         -3.2878  -21.1061  -42.8294 C.3       10 UNK        -0.1800 
     24 N          -2.4532  -18.8606  -43.3415 N.am      10 UNK        -0.5000 
     25 C          -2.5021  -17.5568  -43.6524 C.2       9 UNK         0.5000 
     26 O          -3.4866  -17.0002  -44.1392 O.2       9 UNK        -0.5000 
     27 CA         -1.2233  -16.7402  -43.3992 C.3       9 UNK         0.1400 
     28 CB         -1.1209  -16.3128  -41.9276 C.3       9 UNK        -0.1800 
     29 N          -0.0179  -17.4701  -43.7830 N.am      9 UNK        -0.5000 
     30 C           0.3026  -17.8260  -45.0336 C.2       8 UNK         0.5000 
     31 O          -0.3493  -17.4991  -46.0219 O.2       8 UNK        -0.5000 
     32 CA          1.5537  -18.7027  -45.2082 C.3       8 UNK         0.1400 
     33 CB          2.8130  -17.8320  -45.3237 C.3       8 UNK        -0.1800 
     34 N           1.7214  -19.6560  -44.1109 N.am      8 UNK        -0.5000 
     35 C           0.9730  -20.7540  -43.9373 C.2       7 UNK         0.5000 
     36 O           0.0629  -21.0909  -44.6928 O.2       7 UNK        -0.5000 
     37 CA          1.2698  -21.6029  -42.6888 C.3       7 UNK         0.1400 
     38 CB          2.4196  -22.5835  -42.9622 C.3       7 UNK        -0.1800 
     39 N           1.5903  -20.7861  -41.5173 N.am      7 UNK        -0.5000 
     40 C           0.7071  -19.9980  -40.8887 C.2       6 UNK         0.5000 
     41 O          -0.4741  -19.8925  -41.2219 O.2       6 UNK        -0.5000 
     42 CA          1.2518  -19.1481  -39.7240 C.3       6 UNK         0.1400 
     43 CB          1.3222  -19.9794  -38.4343 C.3       6 UNK        -0.1800 
     44 N           2.5631  -18.5394  -39.9858 N.am      6 UNK        -0.5000 
     45 C           2.8188  -17.7023  -40.9995 C.2       5 UNK         0.5000 
     46 O           2.0056  -17.4445  -41.8866 O.2       5 UNK        -0.5000 
     47 CA          4.2168  -17.0645  -41.0644 C.3       5 UNK         0.1400 
     48 CB          5.1596  -17.9253  -41.9190 C.3       5 UNK        -0.1800 
     49 N           4.1307  -15.7270  -41.6528 N.am      5 UNK        -0.5000 
     50 C           3.6293  -14.6530  -41.0286 C.2       4 UNK         0.5000 
     51 O           3.3231  -14.6550  -39.8347 O.2       4 UNK        -0.5000 
     52 CA          3.3862  -13.3748  -41.8631 C.3       4 UNK         0.1400 
     53 CB          3.9231  -12.1127  -41.1571 C.3       4 UNK        -0.1800 
     54 N           3.8443  -13.4252  -43.2585 N.am      4 UNK        -0.5000 
     55 C           5.1053  -13.4900  -43.7162 C.2       3 UNK         0.5000 
     56 O           6.0934  -13.6063  -42.9914 O.2       3 UNK        -0.5000 
     57 CA          5.3022  -13.4216  -45.2457 C.3       3 UNK         0.1400 
     58 CB          5.5297  -14.8309  -45.8133 C.3       3 UNK        -0.1800 
     59 N           4.1813  -12.7947  -45.9527 N.am      3 UNK        -0.5000 
     60 C           3.8551  -11.4943  -45.8658 C.2       2 UNK         0.5000 
     61 O           4.5313  -10.6675  -45.2528 O.2       2 UNK        -0.5000 
     62 CA          2.5488  -11.0314  -46.5497 C.3       2 UNK         0.1400 
     63 CB          2.8607  -10.3072  -47.8682 C.3       2 UNK        -0.1800 
     64 N           1.5963  -12.1102  -46.8211 N.am      2 UNK        -0.5000 
     65 C           1.0243  -12.9027  -45.9033 C.2       1 UNK         0.5000 
     66 O           1.1762  -12.7542  -44.6896 O.2       1 UNK        -0.5000 
     67 C          -3.0392  -21.9833  -47.7260 C.2       11 UNK         0.5000 
     68 O          -2.4356  -22.9441  -48.2052 O.2       11 UNK        -0.5000 
     69 N          -4.3739  -21.9172  -47.6602 N.am      12 UNK        -0.5000 
     70 CA         -5.2849  -22.9348  -48.1802 C.3       12 UNK         0.1400 
     71 CB         -6.7160  -22.3811  -48.2058 C.3       12 UNK        -0.1800 
     72 C          -5.2077  -24.2476  -47.3834 C.2       12 UNK         0.5000 
     73 O          -5.1880  -25.3217  -47.9829 O.2       12 UNK        -0.5000 
     74 N          -5.0954  -24.1352  -46.0516 N.am      13 UNK        -0.5000 
     75 CA         -4.9096  -25.2656  -45.1352 C.3       13 UNK         0.1400 
     76 CB         -5.1423  -24.7922  -43.6931 C.3       13 UNK        -0.1800 
     77 C          -3.5213  -25.9233  -45.2665 C.2       13 UNK         0.5000 
     78 O          -3.3828  -27.1136  -44.9851 O.2       13 UNK        -0.5000 
     79 N          -2.5289  -25.1424  -45.7154 N.am      14 UNK        -0.5000 
     80 CA         -1.1772  -25.6013  -46.0388 C.3       14 UNK         0.1400 
     81 CB         -0.2051  -24.4200  -45.8728 C.3       14 UNK        -0.1800 
     82 C          -1.0766  -26.2038  -47.4572 C.2       14 UNK         0.5000 
     83 O          -0.0210  -26.7337  -47.8057 O.2       14 UNK        -0.5000 
     84 N          -2.1599  -26.1041  -48.2458 N.am      15 UNK        -0.5000 
     85 CA         -2.2955  -26.5163  -49.6464 C.3       15 UNK         0.1400 
     86 CB         -2.2050  -28.0504  -49.7807 C.3       15 UNK        -0.1800 
     87 C          -1.3335  -25.7621  -50.5898 C.2       15 UNK         0.5000 
     88 O          -0.8275  -26.3437  -51.5520 O.2       15 UNK        -0.5000 
     89 N          -1.0914  -24.4813  -50.2835 N.am      16 UNK        -0.5000 
     90 CA         -0.2107  -23.5875  -51.0289 C.3       16 UNK         0.1400 
     91 CB          0.5714  -22.7256  -50.0193 C.3       16 UNK        -0.1800 
     92 C          -0.9985  -22.7790  -52.0833 C.2       16 UNK         0.5000 
     93 O          -2.0222  -23.2512  -52.5837 O.2       16 UNK        -0.5000 
     94 N          -0.4940  -21.5873  -52.4329 N.am      17 UNK        -0.5000 
     95 CA         -0.9467  -20.7358  -53.5393 C.3       17 UNK         0.1400 
     96 CB         -0.1138  -19.4462  -53.5526 C.3       17 UNK        -0.1800 
     97 C          -2.4532  -20.4109  -53.5666 C.2       17 UNK         0.5000 
     98 O          -3.0340  -20.3408  -54.6517 O.2       17 UNK        -0.5000 
     99 N          -3.0676  -20.2486  -52.3873 N.am      18 UNK        -0.5000 
    100 CA        -4.5010  -19.9917  -52.2444 C.3       18 UNK         0.1400 
    101 CB        -4.8216  -19.5829  -50.8019 C.3       18 UNK        -0.1800 
    102 C         -5.3659  -21.1898  -52.6719 C.2       18 UNK         0.5000 
    103 O         -6.3927  -20.9920  -53.3217 O.2       18 UNK        -0.5000 
    104 N         -4.9212  -22.4088  -52.3364 N.am      19 UNK        -0.5000 
    105 CA        -5.5586  -23.6505  -52.7759 C.3       19 UNK         0.1400 
    106 CB        -5.0815  -24.8214  -51.9029 C.3       19 UNK        -0.1800 
    107 C         -5.2783  -23.9362  -54.2608 C.2       19 UNK         0.5000 
    108 O         -6.1502  -24.4636  -54.9525 O.2       19 UNK        -0.5000 
    109 N         -4.0700  -23.5806  -54.7185 N.am      20 UNK        -0.5000 
    110 CA        -3.6227  -23.7558  -56.0969 C.3       20 UNK         0.1400 
    111 CB        -2.1059  -23.5319  -56.1814 C.3       20 UNK        -0.1800 
    112 C         -4.3621  -22.8478  -57.0963 C.2       20 UNK         0.5000 
    113 O         -4.7037  -23.3219  -58.1814 O.2       20 UNK        -0.5000 
    114 N         -4.5922  -21.5754  -56.7358 N.am      21 UNK        -0.5000 
    115 CA        -5.2035  -20.5951  -57.6324 C.3       21 UNK         0.1400 
    116 CB        -4.1551  -20.0585  -58.6275 C.3       21 UNK        -0.1800 
    117 C         -5.9077  -19.4355  -56.9113 C.2       21 UNK         0.5000 
    118 O         -7.0846  -19.1951  -57.1849 O.2       21 UNK        -0.5000 
    119 N         -5.1732  -18.6803  -56.0826 N.am      22 UNK        -0.5000 
    120 CA        -5.5702  -17.3160  -55.6744 C.3       22 UNK         0.1400 
    121 C         -6.6415  -17.1909  -54.5502 C.2       22 UNK         0.5000 
    122 N         -7.1419  -18.2692  -53.9647 N.am      22 UNK        -0.7600 
    123 O         -7.0529  -16.0823  -54.2184 O.2       22 UNK        -0.5000 
    124 C124       -4.3455  -16.3870  -55.4595 C.3       23 UNK        -0.0398 
    125 S125       -3.2696  -16.8680  -54.0699 S.3       23 UNK        -0.2404 
    126 C126       -3.5476  -15.4923  -52.8970 C.3       23 UNK        -0.0205 
    127 H127        2.5438  -14.7171  -50.2330 H         1 UNK         0.0600 
    128 H128        2.1051  -16.3703  -49.7923 H         1 UNK         0.0600 
    129 H129        0.8477  -15.2072  -50.2285 H         1 UNK         0.0600 
    130 H130       -0.2645  -14.4851  -48.4347 H         1 UNK         0.3000 
    131 H131        0.5351  -14.9418  -45.7908 H         1 UNK         0.0600 
    132 H132       -1.5015  -13.4774  -45.2037 H         1 UNK         0.0800 
    133 H133       -1.7695  -14.9213  -46.1049 H         1 UNK         0.0800 
    134 H134       -4.3262  -13.5708  -48.3681 H         1 UNK         0.0800 
    135 H135       -3.8245  -14.7483  -47.1911 H         1 UNK         0.0800 
    136 H136       -4.1220  -14.0788  -50.6733 H         1 UNK         0.1150 
    137 H137       -1.6798  -17.3580  -51.9741 H         1 UNK         0.1150 
    138 H138       -1.7355  -16.2593  -47.8579 H         1 UNK         0.1150 
    139 H139        0.1760  -18.0196  -50.3607 H         1 UNK         0.0800 
    140 H140       -0.0865  -17.8361  -48.6473 H         1 UNK         0.0800 
    141 H141       -2.0709  -18.6529  -47.4713 H         1 UNK         0.0800 
    142 H142       -3.4467  -19.3192  -48.2756 H         1 UNK         0.0800 
    143 H143       -1.1948  -21.0783  -47.1893 H         1 UNK         0.0600 
    144 H144       -1.6657  -20.6654  -45.1577 H         1 UNK         0.3000 
    145 H145       -4.4675  -19.3844  -43.3107 H         1 UNK         0.0600 
    146 H146       -3.2493  -20.8988  -41.7598 H         1 UNK         0.0600 
    147 H147       -4.1021  -21.8112  -42.9925 H         1 UNK         0.0600 
    148 H148       -2.3555  -21.6013  -43.1041 H         1 UNK         0.0600 
    149 H149       -1.6197  -19.2236  -42.8927 H         1 UNK         0.3000 
    150 H150       -1.2757  -15.8361  -44.0052 H         1 UNK         0.0600 
    151 H151       -2.0001  -15.7433  -41.6242 H         1 UNK         0.0600 
    152 H152       -0.2490  -15.6795  -41.7618 H         1 UNK         0.0600 
    153 H153       -1.0400  -17.1727  -41.2626 H         1 UNK         0.0600 
    154 H154        0.6360  -17.6903  -43.0346 H         1 UNK         0.3000 
    155 H155        1.4407  -19.2648  -46.1380 H         1 UNK         0.0600 
    156 H156        2.7509  -17.1845  -46.1974 H         1 UNK         0.0600 
    157 H157        3.7094  -18.4416  -45.4372 H         1 UNK         0.0600 
    158 H158        2.9468  -17.1919  -44.4512 H         1 UNK         0.0600 
    159 H159        2.4040  -19.4202  -43.4065 H         1 UNK         0.3000 
    160 H160        0.3732  -22.1849  -42.4640 H         1 UNK         0.0600 
    161 H161        3.3549  -22.0623  -43.1703 H         1 UNK         0.0600 
    162 H162        2.1967  -23.2151  -43.8233 H         1 UNK         0.0600 
    163 H163        2.5850  -23.2438  -42.1107 H         1 UNK         0.0600 
    164 H164        2.5426  -20.8099  -41.1834 H         1 UNK         0.3000 
    165 H165        0.5431  -18.3336  -39.5609 H         1 UNK         0.0600 
    166 H166        2.0516  -20.7865  -38.5133 H         1 UNK         0.0600 
    167 H167        1.5974  -19.3602  -37.5803 H         1 UNK         0.0600 
    168 H168        0.3555  -20.4313  -38.2074 H         1 UNK         0.0600 
    169 H169        3.2858  -18.7187  -39.3037 H         1 UNK         0.3000 
    170 H170        4.6241  -16.9855  -40.0543 H         1 UNK         0.0600 
    171 H171        5.2663  -18.9256  -41.4976 H         1 UNK         0.0600 
    172 H172        4.7941  -18.0363  -42.9403 H         1 UNK         0.0600 
    173 H173        6.1564  -17.4862  -41.9674 H         1 UNK         0.0600 
    174 H174        4.3322  -15.6493  -42.6374 H         1 UNK         0.3000 
    175 H175        2.3016  -13.2727  -41.9234 H         1 UNK         0.0600 
    176 H176        3.7125  -11.2158  -41.7400 H         1 UNK         0.0600 
    177 H177        3.4556  -11.9798  -40.1808 H         1 UNK         0.0600 
    178 H178        5.0002  -12.1642  -40.9967 H         1 UNK         0.0600 
    179 H179        3.1031  -13.3271  -43.9432 H         1 UNK         0.3000 
    180 H180        6.1984  -12.8275  -45.4362 H         1 UNK         0.0600 
    181 H181        5.7148  -14.7995  -46.8871 H         1 UNK         0.0600 
    182 H182        6.3938  -15.3067  -45.3478 H         1 UNK         0.0600 
    183 H183        4.6678  -15.4762  -45.6417 H         1 UNK         0.0600 
    184 H184        3.5916  -13.4160  -46.4982 H         1 UNK         0.3000 
    185 H185        2.0632  -10.3239  -45.8746 H         1 UNK         0.0600 
    186 H186        1.9556   -9.9001  -48.3194 H         1 UNK         0.0600 
    187 H187        3.5437   -9.4725  -47.7047 H         1 UNK         0.0600 
    188 H188        3.3271  -10.9761  -48.5928 H         1 UNK         0.0600 
    189 H189        1.4237  -12.3230  -47.7927 H         1 UNK         0.3000 
    190 H190       -4.7834  -21.1222  -47.1755 H         1 UNK         0.3000 
    191 H191       -4.9866  -23.1484  -49.2076 H         1 UNK         0.0600 
    192 H192       -7.4131  -23.1196  -48.6040 H         1 UNK         0.0600 
    193 H193       -6.7833  -21.4970  -48.8401 H         1 UNK         0.0600 
    194 H194       -7.0604  -22.1054  -47.2083 H         1 UNK         0.0600 
    195 H195       -5.1216  -23.2131  -45.6420 H         1 UNK         0.3000 
    196 H196       -5.6604  -26.0224  -45.3727 H         1 UNK         0.0600 
    197 H197       -5.1069  -25.6329  -42.9990 H         1 UNK         0.0600 
    198 H198       -6.1185  -24.3202  -43.5810 H         1 UNK         0.0600 
    199 H199       -4.3813  -24.0792  -43.3775 H         1 UNK         0.0600 
    200 H200       -2.7387  -24.1821  -45.9428 H         1 UNK         0.3000 
    201 H201       -0.8857  -26.3805  -45.3315 H         1 UNK         0.0600 
    202 H202       -0.2584  -24.0020  -44.8673 H         1 UNK         0.0600 
    203 H203       -0.4152  -23.6170  -46.5794 H         1 UNK         0.0600 
    204 H204        0.8258  -24.7354  -46.0371 H         1 UNK         0.0600 
    205 H205       -2.9769  -25.6489  -47.8606 H         1 UNK         0.3000 
    206 H206       -3.3021  -26.2237  -49.9460 H         1 UNK         0.0600 
    207 H207       -2.9043  -28.5461  -49.1074 H         1 UNK         0.0600 
    208 H208       -2.4515  -28.3686  -50.7943 H         1 UNK         0.0600 
    209 H209       -1.2038  -28.4196  -49.5571 H         1 UNK         0.0600 
    210 H210       -1.5806  -24.0647  -49.4955 H         1 UNK         0.3000 
    211 H211        0.5215  -24.1771  -51.5838 H         1 UNK         0.0600 
    212 H212       -0.0934  -22.1206  -49.4063 H         1 UNK         0.0600 
    213 H213        1.2842  -22.0608  -50.5074 H         1 UNK         0.0600 
    214 H214        1.1457  -23.3570  -49.3409 H         1 UNK         0.0600 
    215 H215        0.3310  -21.2679  -51.9472 H         1 UNK         0.3000 
    216 H216       -0.7241  -21.2756  -54.4597 H         1 UNK         0.0600 
    217 H217       -0.4654  -18.7548  -54.3200 H         1 UNK         0.0600 
    218 H218        0.9345  -19.6577  -53.7637 H         1 UNK         0.0600 
    219 H219       -0.1616  -18.9294  -52.5954 H         1 UNK         0.0600 
    220 H220       -2.5178  -20.2984  -51.5400 H         1 UNK         0.3000 
    221 H221       -4.7528  -19.1518  -52.8923 H         1 UNK         0.0600 
    222 H222       -4.5706  -20.3761  -50.0984 H         1 UNK         0.0600 
    223 H223       -4.2739  -18.6840  -50.5182 H         1 UNK         0.0600 
    224 H224       -5.8836  -19.3637  -50.6852 H         1 UNK         0.0600 
    225 H225       -4.0157  -22.4944  -51.8936 H         1 UNK         0.3000 
    226 H226       -6.6394  -23.5540  -52.6512 H         1 UNK         0.0600 
    227 H227       -5.5244  -25.7609  -52.2360 H         1 UNK         0.0600 
    228 H228       -3.9991  -24.9393  -51.9450 H         1 UNK         0.0600 
    229 H229       -5.3692  -24.6858  -50.8619 H         1 UNK         0.0600 
    230 H230       -3.3939  -23.2129  -54.0573 H         1 UNK         0.3000 
    231 H231       -3.8221  -24.7924  -56.3768 H         1 UNK         0.0600 
    232 H232       -1.7298  -23.8051  -57.1680 H         1 UNK         0.0600 
    233 H233       -1.5708  -24.1361  -55.4483 H         1 UNK         0.0600 
    234 H234       -1.8466  -22.4877  -56.0154 H         1 UNK         0.0600 
    235 H235       -4.2512  -21.2359  -55.8401 H         1 UNK         0.3000 
    236 H236       -5.9817  -21.0981  -58.2112 H         1 UNK         0.0600 
    237 H237       -3.2986  -19.6226  -58.1116 H         1 UNK         0.0600 
    238 H238       -3.7837  -20.8493  -59.2793 H         1 UNK         0.0600 
    239 H239       -4.5811  -19.2867  -59.2700 H         1 UNK         0.0600 
    240 H240       -4.2367  -18.9724  -55.8288 H         1 UNK         0.3000 
    241 H241       -6.0802  -16.8878  -56.5401 H         1 UNK         0.0600 
    242 H242       -7.8488  -18.1543  -53.2570 H         1 UNK         0.3800 
    243 H243       -6.8251  -19.2022  -54.1984 H         1 UNK         0.3800 
    244 H244       -4.6690  -15.3524  -55.3333 H         1 UNK         0.0800 
    245 H245       -3.7330  -16.3853  -56.3620 H         1 UNK         0.0800 
    246 H246       -3.1171  -14.5812  -53.3144 H         1 UNK         0.0800 
    247 H247       -4.6228  -15.3246  -52.8162 H         1 UNK         0.0800 
@<TRIPOS>BOND
     1    1    2 1    
     2    1  127 1    
     3    1  128 1    
     4    1  129 1    
     5    2    3 2    
     6    2    4 am   BACKBONE|DICT|INTERRES
     7    4    5 1    
     8    4  130 1    
     9    5    6 1    
    10    5   65 1    
    11    5  131 1    
    12    6    7 1    
    13    6  132 1    
    14    6  133 1    
    15    7    8 1    
    16    8    9 1    
    17    8  134 1    
    18    8  135 1    
    19    9   10 ar   
    20    9   14 ar   
    21   10   11 ar   
    22   10  136 1    
    23   11   12 ar   
    24   11  126 1    
    25   12   13 ar   
    26   12  137 1    
    27   13   14 ar   
    28   13   15 1    
    29   14  138 1    
    30   15   16 1    
    31   15  139 1    
    32   15  140 1    
    33   16   17 1    
    34   17   18 1    
    35   17  141 1    
    36   17  142 1    
    37   18   19 1    
    38   18   67 1    
    39   18  143 1    
    40   19   20 am   BACKBONE|DICT|INTERRES
    41   19  144 1    
    42   20   21 2    
    43   20   22 1    
    44   22   23 1    
    45   22   24 1    
    46   22  145 1    
    47   23  146 1    
    48   23  147 1    
    49   23  148 1    
    50   24   25 am   BACKBONE|DICT|INTERRES
    51   24  149 1    
    52   25   26 2    
    53   25   27 1    
    54   27   28 1    
    55   27   29 1    
    56   27  150 1    
    57   28  151 1    
    58   28  152 1    
    59   28  153 1    
    60   29   30 am   BACKBONE|DICT|INTERRES
    61   29  154 1    
    62   30   31 2    
    63   30   32 1    
    64   32   33 1    
    65   32   34 1    
    66   32  155 1    
    67   33  156 1    
    68   33  157 1    
    69   33  158 1    
    70   34   35 am   BACKBONE|DICT|INTERRES
    71   34  159 1    
    72   35   36 2    
    73   35   37 1    
    74   37   38 1    
    75   37   39 1    
    76   37  160 1    
    77   38  161 1    
    78   38  162 1    
    79   38  163 1    
    80   39   40 am   BACKBONE|DICT|INTERRES
    81   39  164 1    
    82   40   41 2    
    83   40   42 1    
    84   42   43 1    
    85   42   44 1    
    86   42  165 1    
    87   43  166 1    
    88   43  167 1    
    89   43  168 1    
    90   44   45 am   BACKBONE|DICT|INTERRES
    91   44  169 1    
    92   45   46 2    
    93   45   47 1    
    94   47   48 1    
    95   47   49 1    
    96   47  170 1    
    97   48  171 1    
    98   48  172 1    
    99   48  173 1    
   100   49   50 am   BACKBONE|DICT|INTERRES
   101   49  174 1    
   102   50   51 2    
   103   50   52 1    
   104   52   53 1    
   105   52   54 1    
   106   52  175 1    
   107   53  176 1    
   108   53  177 1    
   109   53  178 1    
   110   54   55 am   BACKBONE|DICT|INTERRES
   111   54  179 1    
   112   55   56 2    
   113   55   57 1    
   114   57   58 1    
   115   57   59 1    
   116   57  180 1    
   117   58  181 1    
   118   58  182 1    
   119   58  183 1    
   120   59   60 am   BACKBONE|DICT|INTERRES
   121   59  184 1    
   122   60   61 2    
   123   60   62 1    
   124   62   63 1    
   125   62   64 1    
   126   62  185 1    
   127   63  186 1    
   128   63  187 1    
   129   63  188 1    
   130   64   65 am   BACKBONE|DICT|INTERRES
   131   64  189 1    
   132   65   66 2    
   133   67   68 2    
   134   67   69 am   BACKBONE|DICT|INTERRES
   135   69   70 1    
   136   69  190 1    
   137   70   71 1    
   138   70   72 1    
   139   70  191 1    
   140   71  192 1    
   141   71  193 1    
   142   71  194 1    
   143   72   73 2    
   144   72   74 am   BACKBONE|DICT|INTERRES
   145   74   75 1    
   146   74  195 1    
   147   75   76 1    
   148   75   77 1    
   149   75  196 1    
   150   76  197 1    
   151   76  198 1    
   152   76  199 1    
   153   77   78 2    
   154   77   79 am   BACKBONE|DICT|INTERRES
   155   79   80 1    
   156   79  200 1    
   157   80   81 1    
   158   80   82 1    
   159   80  201 1    
   160   81  202 1    
   161   81  203 1    
   162   81  204 1    
   163   82   83 2    
   164   82   84 am   BACKBONE|DICT|INTERRES
   165   84   85 1    
   166   84  205 1    
   167   85   86 1    
   168   85   87 1    
   169   85  206 1    
   170   86  207 1    
   171   86  208 1    
   172   86  209 1    
   173   87   88 2    
   174   87   89 am   BACKBONE|DICT|INTERRES
   175   89   90 1    
   176   89  210 1    
   177   90   91 1    
   178   90   92 1    
   179   90  211 1    
   180   91  212 1    
   181   91  213 1    
   182   91  214 1    
   183   92   93 2    
   184   92   94 am   BACKBONE|DICT|INTERRES
   185   94   95 1    
   186   94  215 1    
   187   95   96 1    
   188   95   97 1    
   189   95  216 1    
   190   96  217 1    
   191   96  218 1    
   192   96  219 1    
   193   97   98 2    
   194   97   99 am   BACKBONE|DICT|INTERRES
   195   99  100 1    
   196   99  220 1    
   197  100  101 1    
   198  100  102 1    
   199  100  221 1    
   200  101  222 1    
   201  101  223 1    
   202  101  224 1    
   203  102  103 2    
   204  102  104 am   BACKBONE|DICT|INTERRES
   205  104  105 1    
   206  104  225 1    
   207  105  106 1    
   208  105  107 1    
   209  105  226 1    
   210  106  227 1    
   211  106  228 1    
   212  106  229 1    
   213  107  108 2    
   214  107  109 am   BACKBONE|DICT|INTERRES
   215  109  110 1    
   216  109  230 1    
   217  110  111 1    
   218  110  112 1    
   219  110  231 1    
   220  111  232 1    
   221  111  233 1    
   222  111  234 1    
   223  112  113 2    
   224  112  114 am   BACKBONE|DICT|INTERRES
   225  114  115 1    
   226  114  235 1    
   227  115  116 1    
   228  115  117 1    
   229  115  236 1    
   230  116  237 1    
   231  116  238 1    
   232  116  239 1    
   233  117  118 2    
   234  117  119 am   BACKBONE|DICT|INTERRES
   235  119  120 1    
   236  119  240 1    
   237  120  121 1    
   238  120  124 1    
   239  120  241 1    
   240  121  122 am   BACKBONE|DICT|INTERRES
   241  121  123 2    
   242  122  242 1    
   243  122  243 1    
   244  124  125 1    
   245  124  244 1    
   246  124  245 1    
   247  125  126 1    
   248  126  246 1    
   249  126  247 1    
@<TRIPOS>SUBSTRUCTURE
     1 UNK         1 GROUP             0       ****    0 ROOT    
