@<TRIPOS>MOLECULE
3R540
247   249    1
SMALL
USER_CHARGES


@<TRIPOS>ATOM
      1 CA         -3.1457   -8.9146  -50.9131 C.3       0 UNK        -0.1800 
      2 C          -2.9547  -10.1240  -50.0095 C.2       0 UNK         0.5000 
      3 O          -2.8927   -9.9758  -48.7887 O.2       0 UNK        -0.5000 
      4 N          -2.8770  -11.3242  -50.5973 N.am      1 UNK        -0.5000 
      5 CA         -2.6651  -12.6100  -49.9192 C.3       1 UNK         0.1400 
      6 C6         -2.0344  -13.6589  -50.8700 C.3       23 UNK        -0.0398 
      7 S7         -0.2881  -13.2905  -51.2452 S.3       23 UNK        -0.2404 
      8 C8          0.5690  -14.0778  -49.8389 C.3       23 UNK        -0.0205 
      9 C9          0.4950  -15.5972  -49.8830 C.ar      23 UNK        -0.0193 
     10 C10         1.3942  -16.3194  -50.6713 C.ar      23 UNK        -0.1150 
     11 C11         1.3317  -17.7145  -50.7226 C.ar      23 UNK        -0.0193 
     12 C12         0.3653  -18.3902  -49.9717 C.ar      23 UNK        -0.1150 
     13 C13        -0.5364  -17.6786  -49.1759 C.ar      23 UNK        -0.0193 
     14 C14        -0.4623  -16.2840  -49.1295 C.ar      23 UNK        -0.1150 
     15 C15        -1.6359  -18.4037  -48.4191 C.3       23 UNK        -0.0205 
     16 S16        -1.2899  -18.5779  -46.6401 S.3       23 UNK        -0.2404 
     17 C17        -0.0662  -19.9347  -46.5992 C.3       23 UNK        -0.0398 
     18 CA         -0.6698  -21.3592  -46.6913 C.3       11 UNK         0.1400 
     19 N           0.3799  -22.3646  -46.8723 N.am      11 UNK        -0.5000 
     20 C           0.1686  -23.6393  -47.2286 C.2       10 UNK         0.5000 
     21 O          -0.9424  -24.1142  -47.4585 O.2       10 UNK        -0.5000 
     22 CA          1.4121  -24.5418  -47.2960 C.3       10 UNK         0.1400 
     23 CB          2.2202  -24.2578  -48.5717 C.3       10 UNK        -0.1800 
     24 N           2.2748  -24.3916  -46.1221 N.am      10 UNK        -0.5000 
     25 C           1.9175  -24.7378  -44.8770 C.2       9 UNK         0.5000 
     26 O           0.8285  -25.2307  -44.5905 O.2       9 UNK        -0.5000 
     27 CA          2.9277  -24.4544  -43.7523 C.3       9 UNK         0.1400 
     28 CB          3.9233  -25.6162  -43.6176 C.3       9 UNK        -0.1800 
     29 N           3.6645  -23.1990  -43.9119 N.am      9 UNK        -0.5000 
     30 C           3.1077  -21.9831  -43.9798 C.2       8 UNK         0.5000 
     31 O           1.8910  -21.7802  -44.0286 O.2       8 UNK        -0.5000 
     32 CA          4.0819  -20.7966  -44.0393 C.3       8 UNK         0.1400 
     33 CB          4.2000  -20.2752  -45.4801 C.3       8 UNK        -0.1800 
     34 N           3.6222  -19.7215  -43.1644 N.am      8 UNK        -0.5000 
     35 C           3.7457  -19.7219  -41.8278 C.2       7 UNK         0.5000 
     36 O           4.3631  -20.5867  -41.2045 O.2       7 UNK        -0.5000 
     37 CA          3.0707  -18.5721  -41.0470 C.3       7 UNK         0.1400 
     38 CB          4.0803  -17.4501  -40.7611 C.3       7 UNK        -0.1800 
     39 N           1.9220  -18.0070  -41.7538 N.am      7 UNK        -0.5000 
     40 C           0.7641  -18.6487  -41.9565 C.2       6 UNK         0.5000 
     41 O           0.4633  -19.6890  -41.3725 O.2       6 UNK        -0.5000 
     42 CA         -0.2142  -18.0571  -42.9966 C.3       6 UNK         0.1400 
     43 CB         -1.5562  -17.6906  -42.3459 C.3       6 UNK        -0.1800 
     44 N           0.2838  -16.9074  -43.7707 N.am      6 UNK        -0.5000 
     45 C           1.3404  -16.9244  -44.6001 C.2       5 UNK         0.5000 
     46 O           2.0608  -17.9108  -44.7402 O.2       5 UNK        -0.5000 
     47 CA          1.6705  -15.6443  -45.3887 C.3       5 UNK         0.1400 
     48 CB          2.2274  -15.9739  -46.7845 C.3       5 UNK        -0.1800 
     49 N           0.5011  -14.7757  -45.5266 N.am      5 UNK        -0.5000 
     50 C           0.3686  -13.5690  -44.9606 C.2       4 UNK         0.5000 
     51 O           1.2321  -13.0434  -44.2575 O.2       4 UNK        -0.5000 
     52 CA         -0.9528  -12.8152  -45.2113 C.3       4 UNK         0.1400 
     53 CB         -0.7592  -11.7244  -46.2759 C.3       4 UNK        -0.1800 
     54 N          -2.0741  -13.6709  -45.6089 N.am      4 UNK        -0.5000 
     55 C          -2.6749  -14.5696  -44.8158 C.2       3 UNK         0.5000 
     56 O          -2.2623  -14.8518  -43.6910 O.2       3 UNK        -0.5000 
     57 CA         -3.9340  -15.2665  -45.3812 C.3       3 UNK         0.1400 
     58 CB         -4.9131  -15.7054  -44.2718 C.3       3 UNK        -0.1800 
     59 N          -4.6231  -14.4692  -46.4074 N.am      3 UNK        -0.5000 
     60 C          -5.2201  -13.2768  -46.2515 C.2       2 UNK         0.5000 
     61 O          -5.3216  -12.6926  -45.1717 O.2       2 UNK        -0.5000 
     62 CA         -5.7170  -12.6032  -47.5475 C.3       2 UNK         0.1400 
     63 CB         -6.5176  -11.3154  -47.2836 C.3       2 UNK        -0.1800 
     64 N          -4.5832  -12.2783  -48.4136 N.am      2 UNK        -0.5000 
     65 C          -3.9403  -13.1343  -49.2155 C.2       1 UNK         0.5000 
     66 O          -4.2998  -14.3040  -49.3593 O.2       1 UNK        -0.5000 
     67 C          -1.5936  -21.7218  -45.5084 C.2       11 UNK         0.5000 
     68 O          -2.8141  -21.6118  -45.6407 O.2       11 UNK        -0.5000 
     69 N          -1.0041  -22.2124  -44.4082 N.am      12 UNK        -0.5000 
     70 CA         -1.7208  -22.7241  -43.2412 C.3       12 UNK         0.1400 
     71 CB         -0.7206  -23.0480  -42.1205 C.3       12 UNK        -0.1800 
     72 C          -2.5913  -23.9530  -43.5663 C.2       12 UNK         0.5000 
     73 O          -3.7908  -23.9344  -43.2881 O.2       12 UNK        -0.5000 
     74 N          -1.9813  -24.9888  -44.1616 N.am      13 UNK        -0.5000 
     75 CA         -2.6242  -26.2672  -44.4792 C.3       13 UNK         0.1400 
     76 CB         -1.5642  -27.2780  -44.9420 C.3       13 UNK        -0.1800 
     77 C          -3.7434  -26.1524  -45.5272 C.2       13 UNK         0.5000 
     78 O          -4.7582  -26.8398  -45.4071 O.2       13 UNK        -0.5000 
     79 N          -3.5517  -25.2763  -46.5216 N.am      14 UNK        -0.5000 
     80 CA         -4.5317  -24.9991  -47.5716 C.3       14 UNK         0.1400 
     81 CB         -3.8009  -24.3956  -48.7786 C.3       14 UNK        -0.1800 
     82 C          -5.6696  -24.0632  -47.1207 C.2       14 UNK         0.5000 
     83 O          -6.6063  -23.8626  -47.8927 O.2       14 UNK        -0.5000 
     84 N          -5.5609  -23.4745  -45.9188 N.am      15 UNK        -0.5000 
     85 CA         -6.4539  -22.4536  -45.3584 C.3       15 UNK         0.1400 
     86 CB         -7.8427  -23.0463  -45.0421 C.3       15 UNK        -0.1800 
     87 C          -6.5107  -21.2018  -46.2591 C.2       15 UNK         0.5000 
     88 O          -7.5893  -20.7456  -46.6403 O.2       15 UNK        -0.5000 
     89 N          -5.3157  -20.7135  -46.6152 N.am      16 UNK        -0.5000 
     90 CA         -5.0012  -19.5778  -47.4841 C.3       16 UNK         0.1400 
     91 CB         -5.6848  -18.2808  -47.0123 C.3       16 UNK        -0.1800 
     92 C          -5.1971  -19.8203  -48.9941 C.2       16 UNK         0.5000 
     93 O          -4.7632  -18.9817  -49.7844 O.2       16 UNK        -0.5000 
     94 N          -5.7805  -20.9597  -49.3964 N.am      17 UNK        -0.5000 
     95 CA         -6.0610  -21.2926  -50.8000 C.3       17 UNK         0.1400 
     96 CB         -6.9960  -22.5088  -50.8644 C.3       17 UNK        -0.1800 
     97 C          -4.8048  -21.5265  -51.6656 C.2       17 UNK         0.5000 
     98 O          -4.8997  -21.4660  -52.8922 O.2       17 UNK        -0.5000 
     99 N          -3.6471  -21.7549  -51.0250 N.am      18 UNK        -0.5000 
    100 CA        -2.3417  -21.9201  -51.6722 C.3       18 UNK         0.1400 
    101 CB        -1.2865  -22.3101  -50.6262 C.3       18 UNK        -0.1800 
    102 C         -1.8706  -20.6772  -52.4490 C.2       18 UNK         0.5000 
    103 O         -1.0788  -20.8269  -53.3785 O.2       18 UNK        -0.5000 
    104 N         -2.3915  -19.4912  -52.0939 N.am      19 UNK        -0.5000 
    105 CA        -2.1070  -18.1946  -52.7212 C.3       19 UNK         0.1400 
    106 CB        -2.9332  -17.1146  -52.0073 C.3       19 UNK        -0.1800 
    107 C         -2.3792  -18.1353  -54.2389 C.2       19 UNK         0.5000 
    108 O         -1.8308  -17.2702  -54.9220 O.2       19 UNK        -0.5000 
    109 N         -3.2158  -19.0537  -54.7399 N.am      20 UNK        -0.5000 
    110 CA        -3.5480  -19.2151  -56.1522 C.3       20 UNK         0.1400 
    111 CB        -4.7724  -20.1379  -56.2589 C.3       20 UNK        -0.1800 
    112 C         -2.3918  -19.7552  -57.0208 C.2       20 UNK         0.5000 
    113 O         -2.4779  -19.6350  -58.2443 O.2       20 UNK        -0.5000 
    114 N         -1.3534  -20.3492  -56.4112 N.am      21 UNK        -0.5000 
    115 CA        -0.2363  -20.9611  -57.1371 C.3       21 UNK         0.1400 
    116 CB        -0.5699  -22.4281  -57.4613 C.3       21 UNK        -0.1800 
    117 C          1.1075  -20.8609  -56.3987 C.2       21 UNK         0.5000 
    118 O          2.1283  -20.6385  -57.0511 O.2       21 UNK        -0.5000 
    119 N          1.0991  -21.0433  -55.0716 N.am      22 UNK        -0.5000 
    120 CA         2.2780  -21.0536  -54.1837 C.3       22 UNK         0.1400 
    121 C          3.3005  -22.2020  -54.4552 C.2       22 UNK         0.5000 
    122 N          2.9163  -23.2819  -55.1251 N.am      22 UNK        -0.7600 
    123 O          4.4497  -22.1369  -54.0266 O.2       22 UNK        -0.5000 
    124 C124        2.9509  -19.6583  -54.0529 C.3       23 UNK        -0.0398 
    125 S125        1.8111  -18.4214  -53.3481 S.3       23 UNK        -0.2404 
    126 C126        2.3022  -18.4887  -51.5976 C.3       23 UNK        -0.0205 
    127 H127       -3.1872   -9.1970  -51.9652 H         1 UNK         0.0600 
    128 H128       -2.3209   -8.2146  -50.7810 H         1 UNK         0.0600 
    129 H129       -4.0737   -8.4015  -50.6613 H         1 UNK         0.0600 
    130 H130       -2.9552  -11.3768  -51.6030 H         1 UNK         0.3000 
    131 H131       -1.9527  -12.4411  -49.1103 H         1 UNK         0.0600 
    132 H132       -2.5908  -13.7027  -51.8073 H         1 UNK         0.0800 
    133 H133       -2.0858  -14.6643  -50.4583 H         1 UNK         0.0800 
    134 H134        0.1584  -13.7064  -48.9003 H         1 UNK         0.0800 
    135 H135        1.6150  -13.7681  -49.8503 H         1 UNK         0.0800 
    136 H136        2.1353  -15.7945  -51.2576 H         1 UNK         0.1150 
    137 H137        0.3035  -19.4677  -50.0232 H         1 UNK         0.1150 
    138 H138       -1.1635  -15.7346  -48.5179 H         1 UNK         0.1150 
    139 H139       -2.5611  -17.8371  -48.5326 H         1 UNK         0.0800 
    140 H140       -1.8286  -19.3815  -48.8604 H         1 UNK         0.0800 
    141 H141        0.5195  -19.8411  -45.6843 H         1 UNK         0.0800 
    142 H142        0.6415  -19.7744  -47.4131 H         1 UNK         0.0800 
    143 H143       -1.2942  -21.3933  -47.5844 H         1 UNK         0.0600 
    144 H144        1.3199  -22.0831  -46.6376 H         1 UNK         0.3000 
    145 H145        1.0681  -25.5778  -47.3335 H         1 UNK         0.0600 
    146 H146        3.0523  -24.9546  -48.6734 H         1 UNK         0.0600 
    147 H147        1.5965  -24.3661  -49.4603 H         1 UNK         0.0600 
    148 H148        2.6273  -23.2460  -48.5782 H         1 UNK         0.0600 
    149 H149        3.1891  -23.9903  -46.2684 H         1 UNK         0.3000 
    150 H150        2.3642  -24.3832  -42.8199 H         1 UNK         0.0600 
    151 H151        3.4011  -26.5637  -43.4772 H         1 UNK         0.0600 
    152 H152        4.5775  -25.4778  -42.7566 H         1 UNK         0.0600 
    153 H153        4.5504  -25.7152  -44.5045 H         1 UNK         0.0600 
    154 H154        4.6716  -23.2710  -43.8947 H         1 UNK         0.3000 
    155 H155        5.0714  -21.1185  -43.7078 H         1 UNK         0.0600 
    156 H156        3.2293  -19.9960  -45.8915 H         1 UNK         0.0600 
    157 H157        4.6254  -21.0355  -46.1360 H         1 UNK         0.0600 
    158 H158        4.8480  -19.4001  -45.5319 H         1 UNK         0.0600 
    159 H159        3.0525  -19.0075  -43.6119 H         1 UNK         0.3000 
    160 H160        2.7253  -18.9752  -40.0927 H         1 UNK         0.0600 
    161 H161        4.4532  -16.9999  -41.6820 H         1 UNK         0.0600 
    162 H162        4.9411  -17.8310  -40.2098 H         1 UNK         0.0600 
    163 H163        3.6326  -16.6604  -40.1574 H         1 UNK         0.0600 
    164 H164        2.0825  -17.1553  -42.2696 H         1 UNK         0.3000 
    165 H165       -0.4089  -18.8632  -43.7054 H         1 UNK         0.0600 
    166 H166       -2.3071  -17.4736  -43.1046 H         1 UNK         0.0600 
    167 H167       -1.9449  -18.5117  -41.7421 H         1 UNK         0.0600 
    168 H168       -1.4644  -16.8182  -41.6983 H         1 UNK         0.0600 
    169 H169       -0.2616  -16.0577  -43.7005 H         1 UNK         0.3000 
    170 H170        2.4598  -15.1353  -44.8325 H         1 UNK         0.0600 
    171 H171        3.2020  -16.4578  -46.7107 H         1 UNK         0.0600 
    172 H172        1.5722  -16.6562  -47.3247 H         1 UNK         0.0600 
    173 H173        2.3570  -15.0753  -47.3874 H         1 UNK         0.0600 
    174 H174       -0.2703  -15.1444  -46.0627 H         1 UNK         0.3000 
    175 H175       -1.2273  -12.3266  -44.2739 H         1 UNK         0.0600 
    176 H176       -0.4589  -12.1441  -47.2350 H         1 UNK         0.0600 
    177 H177       -1.6744  -11.1519  -46.4295 H         1 UNK         0.0600 
    178 H178        0.0154  -11.0184  -45.9737 H         1 UNK         0.0600 
    179 H179       -2.4873  -13.4858  -46.5087 H         1 UNK         0.3000 
    180 H180       -3.5798  -16.1676  -45.8841 H         1 UNK         0.0600 
    181 H181       -5.8315  -16.1164  -44.6898 H         1 UNK         0.0600 
    182 H182       -5.1878  -14.8741  -43.6220 H         1 UNK         0.0600 
    183 H183       -4.4694  -16.4762  -43.6414 H         1 UNK         0.0600 
    184 H184       -4.5722  -14.8298  -47.3549 H         1 UNK         0.3000 
    185 H185       -6.3759  -13.3085  -48.0584 H         1 UNK         0.0600 
    186 H186       -6.8959  -10.8908  -48.2137 H         1 UNK         0.0600 
    187 H187       -7.3785  -11.5141  -46.6439 H         1 UNK         0.0600 
    188 H188       -5.9093  -10.5547  -46.7926 H         1 UNK         0.0600 
    189 H189       -4.1953  -11.3431  -48.3263 H         1 UNK         0.3000 
    190 H190        0.0109  -22.2404  -44.3658 H         1 UNK         0.3000 
    191 H191       -2.3804  -21.9297  -42.8856 H         1 UNK         0.0600 
    192 H192       -1.2388  -23.3676  -41.2158 H         1 UNK         0.0600 
    193 H193       -0.1208  -22.1770  -41.8616 H         1 UNK         0.0600 
    194 H194       -0.0348  -23.8456  -42.4046 H         1 UNK         0.0600 
    195 H195       -0.9837  -24.9320  -44.3567 H         1 UNK         0.3000 
    196 H196       -3.0742  -26.6471  -43.5597 H         1 UNK         0.0600 
    197 H197       -1.0458  -26.9329  -45.8377 H         1 UNK         0.0600 
    198 H198       -0.8170  -27.4480  -44.1667 H         1 UNK         0.0600 
    199 H199       -2.0163  -28.2431  -45.1738 H         1 UNK         0.0600 
    200 H200       -2.6682  -24.7792  -46.5827 H         1 UNK         0.3000 
    201 H201       -4.9866  -25.9402  -47.8872 H         1 UNK         0.0600 
    202 H202       -3.3692  -23.4251  -48.5324 H         1 UNK         0.0600 
    203 H203       -4.4770  -24.2560  -49.6216 H         1 UNK         0.0600 
    204 H204       -2.9960  -25.0475  -49.1185 H         1 UNK         0.0600 
    205 H205       -4.7507  -23.6973  -45.3539 H         1 UNK         0.3000 
    206 H206       -6.0068  -22.1372  -44.4147 H         1 UNK         0.0600 
    207 H207       -7.7589  -23.9176  -44.3925 H         1 UNK         0.0600 
    208 H208       -8.4684  -22.3162  -44.5276 H         1 UNK         0.0600 
    209 H209       -8.3731  -23.3511  -45.9447 H         1 UNK         0.0600 
    210 H210       -4.4915  -21.1790  -46.2360 H         1 UNK         0.3000 
    211 H211       -3.9323  -19.4386  -47.3493 H         1 UNK         0.0600 
    212 H212       -5.2908  -17.4158  -47.5472 H         1 UNK         0.0600 
    213 H213       -5.5112  -18.1151  -45.9500 H         1 UNK         0.0600 
    214 H214       -6.7616  -18.3014  -47.1800 H         1 UNK         0.0600 
    215 H215       -6.1224  -21.6073  -48.6984 H         1 UNK         0.3000 
    216 H216       -6.5915  -20.4433  -51.2356 H         1 UNK         0.0600 
    217 H217       -6.5066  -23.4150  -50.5096 H         1 UNK         0.0600 
    218 H218       -7.3203  -22.6959  -51.8889 H         1 UNK         0.0600 
    219 H219       -7.8923  -22.3533  -50.2635 H         1 UNK         0.0600 
    220 H220       -3.6652  -21.7847  -50.0179 H         1 UNK         0.3000 
    221 H221       -2.4292  -22.7374  -52.3908 H         1 UNK         0.0600 
    222 H222       -1.5381  -23.2483  -50.1341 H         1 UNK         0.0600 
    223 H223       -1.1762  -21.5422  -49.8627 H         1 UNK         0.0600 
    224 H224       -0.3088  -22.4481  -51.0902 H         1 UNK         0.0600 
    225 H225       -3.0686  -19.4736  -51.3424 H         1 UNK         0.3000 
    226 H226       -1.0490  -17.9775  -52.5696 H         1 UNK         0.0600 
    227 H227       -4.0039  -17.2973  -52.1069 H         1 UNK         0.0600 
    228 H228       -2.7033  -17.0720  -50.9441 H         1 UNK         0.0600 
    229 H229       -2.7275  -16.1287  -52.4245 H         1 UNK         0.0600 
    230 H230       -3.6227  -19.7266  -54.1036 H         1 UNK         0.3000 
    231 H231       -3.8228  -18.2357  -56.5492 H         1 UNK         0.0600 
    232 H232       -4.5611  -21.1313  -55.8606 H         1 UNK         0.0600 
    233 H233       -5.0847  -20.2590  -57.2970 H         1 UNK         0.0600 
    234 H234       -5.6225  -19.7317  -55.7103 H         1 UNK         0.0600 
    235 H235       -1.3281  -20.3855  -55.3983 H         1 UNK         0.3000 
    236 H236       -0.0923  -20.4327  -58.0823 H         1 UNK         0.0600 
    237 H237       -1.4468  -22.5005  -58.1050 H         1 UNK         0.0600 
    238 H238        0.2557  -22.9127  -57.9843 H         1 UNK         0.0600 
    239 H239       -0.7712  -23.0025  -56.5564 H         1 UNK         0.0600 
    240 H240        0.2153  -21.1663  -54.5844 H         1 UNK         0.3000 
    241 H241        1.8794  -21.3007  -53.1990 H         1 UNK         0.0600 
    242 H242        3.5770  -24.0253  -55.2892 H         1 UNK         0.3800 
    243 H243        1.9744  -23.3616  -55.4724 H         1 UNK         0.3800 
    244 H244        3.2961  -19.3040  -55.0247 H         1 UNK         0.0800 
    245 H245        3.8392  -19.7049  -53.4210 H         1 UNK         0.0800 
    246 H246        2.3524  -19.5294  -51.2734 H         1 UNK         0.0800 
    247 H247        3.3071  -18.0791  -51.4850 H         1 UNK         0.0800 
@<TRIPOS>BOND
     1    1    2 1    
     2    1  127 1    
     3    1  128 1    
     4    1  129 1    
     5    2    3 2    
     6    2    4 am   BACKBONE|DICT|INTERRES
     7    4    5 1    
     8    4  130 1    
     9    5    6 1    
    10    5   65 1    
    11    5  131 1    
    12    6    7 1    
    13    6  132 1    
    14    6  133 1    
    15    7    8 1    
    16    8    9 1    
    17    8  134 1    
    18    8  135 1    
    19    9   10 ar   
    20    9   14 ar   
    21   10   11 ar   
    22   10  136 1    
    23   11   12 ar   
    24   11  126 1    
    25   12   13 ar   
    26   12  137 1    
    27   13   14 ar   
    28   13   15 1    
    29   14  138 1    
    30   15   16 1    
    31   15  139 1    
    32   15  140 1    
    33   16   17 1    
    34   17   18 1    
    35   17  141 1    
    36   17  142 1    
    37   18   19 1    
    38   18   67 1    
    39   18  143 1    
    40   19   20 am   BACKBONE|DICT|INTERRES
    41   19  144 1    
    42   20   21 2    
    43   20   22 1    
    44   22   23 1    
    45   22   24 1    
    46   22  145 1    
    47   23  146 1    
    48   23  147 1    
    49   23  148 1    
    50   24   25 am   BACKBONE|DICT|INTERRES
    51   24  149 1    
    52   25   26 2    
    53   25   27 1    
    54   27   28 1    
    55   27   29 1    
    56   27  150 1    
    57   28  151 1    
    58   28  152 1    
    59   28  153 1    
    60   29   30 am   BACKBONE|DICT|INTERRES
    61   29  154 1    
    62   30   31 2    
    63   30   32 1    
    64   32   33 1    
    65   32   34 1    
    66   32  155 1    
    67   33  156 1    
    68   33  157 1    
    69   33  158 1    
    70   34   35 am   BACKBONE|DICT|INTERRES
    71   34  159 1    
    72   35   36 2    
    73   35   37 1    
    74   37   38 1    
    75   37   39 1    
    76   37  160 1    
    77   38  161 1    
    78   38  162 1    
    79   38  163 1    
    80   39   40 am   BACKBONE|DICT|INTERRES
    81   39  164 1    
    82   40   41 2    
    83   40   42 1    
    84   42   43 1    
    85   42   44 1    
    86   42  165 1    
    87   43  166 1    
    88   43  167 1    
    89   43  168 1    
    90   44   45 am   BACKBONE|DICT|INTERRES
    91   44  169 1    
    92   45   46 2    
    93   45   47 1    
    94   47   48 1    
    95   47   49 1    
    96   47  170 1    
    97   48  171 1    
    98   48  172 1    
    99   48  173 1    
   100   49   50 am   BACKBONE|DICT|INTERRES
   101   49  174 1    
   102   50   51 2    
   103   50   52 1    
   104   52   53 1    
   105   52   54 1    
   106   52  175 1    
   107   53  176 1    
   108   53  177 1    
   109   53  178 1    
   110   54   55 am   BACKBONE|DICT|INTERRES
   111   54  179 1    
   112   55   56 2    
   113   55   57 1    
   114   57   58 1    
   115   57   59 1    
   116   57  180 1    
   117   58  181 1    
   118   58  182 1    
   119   58  183 1    
   120   59   60 am   BACKBONE|DICT|INTERRES
   121   59  184 1    
   122   60   61 2    
   123   60   62 1    
   124   62   63 1    
   125   62   64 1    
   126   62  185 1    
   127   63  186 1    
   128   63  187 1    
   129   63  188 1    
   130   64   65 am   BACKBONE|DICT|INTERRES
   131   64  189 1    
   132   65   66 2    
   133   67   68 2    
   134   67   69 am   BACKBONE|DICT|INTERRES
   135   69   70 1    
   136   69  190 1    
   137   70   71 1    
   138   70   72 1    
   139   70  191 1    
   140   71  192 1    
   141   71  193 1    
   142   71  194 1    
   143   72   73 2    
   144   72   74 am   BACKBONE|DICT|INTERRES
   145   74   75 1    
   146   74  195 1    
   147   75   76 1    
   148   75   77 1    
   149   75  196 1    
   150   76  197 1    
   151   76  198 1    
   152   76  199 1    
   153   77   78 2    
   154   77   79 am   BACKBONE|DICT|INTERRES
   155   79   80 1    
   156   79  200 1    
   157   80   81 1    
   158   80   82 1    
   159   80  201 1    
   160   81  202 1    
   161   81  203 1    
   162   81  204 1    
   163   82   83 2    
   164   82   84 am   BACKBONE|DICT|INTERRES
   165   84   85 1    
   166   84  205 1    
   167   85   86 1    
   168   85   87 1    
   169   85  206 1    
   170   86  207 1    
   171   86  208 1    
   172   86  209 1    
   173   87   88 2    
   174   87   89 am   BACKBONE|DICT|INTERRES
   175   89   90 1    
   176   89  210 1    
   177   90   91 1    
   178   90   92 1    
   179   90  211 1    
   180   91  212 1    
   181   91  213 1    
   182   91  214 1    
   183   92   93 2    
   184   92   94 am   BACKBONE|DICT|INTERRES
   185   94   95 1    
   186   94  215 1    
   187   95   96 1    
   188   95   97 1    
   189   95  216 1    
   190   96  217 1    
   191   96  218 1    
   192   96  219 1    
   193   97   98 2    
   194   97   99 am   BACKBONE|DICT|INTERRES
   195   99  100 1    
   196   99  220 1    
   197  100  101 1    
   198  100  102 1    
   199  100  221 1    
   200  101  222 1    
   201  101  223 1    
   202  101  224 1    
   203  102  103 2    
   204  102  104 am   BACKBONE|DICT|INTERRES
   205  104  105 1    
   206  104  225 1    
   207  105  106 1    
   208  105  107 1    
   209  105  226 1    
   210  106  227 1    
   211  106  228 1    
   212  106  229 1    
   213  107  108 2    
   214  107  109 am   BACKBONE|DICT|INTERRES
   215  109  110 1    
   216  109  230 1    
   217  110  111 1    
   218  110  112 1    
   219  110  231 1    
   220  111  232 1    
   221  111  233 1    
   222  111  234 1    
   223  112  113 2    
   224  112  114 am   BACKBONE|DICT|INTERRES
   225  114  115 1    
   226  114  235 1    
   227  115  116 1    
   228  115  117 1    
   229  115  236 1    
   230  116  237 1    
   231  116  238 1    
   232  116  239 1    
   233  117  118 2    
   234  117  119 am   BACKBONE|DICT|INTERRES
   235  119  120 1    
   236  119  240 1    
   237  120  121 1    
   238  120  124 1    
   239  120  241 1    
   240  121  122 am   BACKBONE|DICT|INTERRES
   241  121  123 2    
   242  122  242 1    
   243  122  243 1    
   244  124  125 1    
   245  124  244 1    
   246  124  245 1    
   247  125  126 1    
   248  126  246 1    
   249  126  247 1    
@<TRIPOS>SUBSTRUCTURE
     1 UNK         1 GROUP             0       ****    0 ROOT    
