@<TRIPOS>MOLECULE
3R540
247   249    1
SMALL
USER_CHARGES


@<TRIPOS>ATOM
      1 CA         -1.8175  -11.7759  -49.0203 C.3       0 UNK        -0.1800 
      2 C          -0.6683  -12.5868  -48.4388 C.2       0 UNK         0.5000 
      3 O          -0.8918  -13.4111  -47.5556 O.2       0 UNK        -0.5000 
      4 N           0.5529  -12.3652  -48.9409 N.am      1 UNK        -0.5000 
      5 CA          1.8062  -12.9697  -48.4721 C.3       1 UNK         0.1400 
      6 C6          1.7709  -14.5255  -48.4463 C.3       23 UNK        -0.0398 
      7 S7          3.3703  -15.2770  -48.8997 S.3       23 UNK        -0.2404 
      8 C8          3.0578  -15.7990  -50.6146 C.3       23 UNK        -0.0205 
      9 C9          2.2121  -17.0624  -50.6861 C.ar      23 UNK        -0.0193 
     10 C10         0.8489  -16.9910  -50.9880 C.ar      23 UNK        -0.1150 
     11 C11         0.0828  -18.1558  -51.0942 C.ar      23 UNK        -0.0193 
     12 C12         0.6908  -19.3987  -50.8983 C.ar      23 UNK        -0.1150 
     13 C13         2.0531  -19.4834  -50.5949 C.ar      23 UNK        -0.0193 
     14 C14         2.8060  -18.3112  -50.4845 C.ar      23 UNK        -0.1150 
     15 C15         2.7231  -20.8382  -50.4187 C.3       23 UNK        -0.0205 
     16 S16         2.6290  -21.4275  -48.7003 S.3       23 UNK        -0.2404 
     17 C17         0.8696  -21.8873  -48.5939 C.3       23 UNK        -0.0398 
     18 CA          0.5902  -22.8758  -47.4408 C.3       11 UNK         0.1400 
     19 N           0.7126  -22.2592  -46.1173 N.am      11 UNK        -0.5000 
     20 C           0.6435  -22.9311  -44.9589 C.2       10 UNK         0.5000 
     21 O           0.5455  -24.1569  -44.8836 O.2       10 UNK        -0.5000 
     22 CA          0.6177  -22.0902  -43.6697 C.3       10 UNK         0.1400 
     23 CB          2.0318  -21.6363  -43.2784 C.3       10 UNK        -0.1800 
     24 N          -0.2681  -20.9289  -43.7777 N.am      10 UNK        -0.5000 
     25 C          -1.5957  -21.0037  -43.9522 C.2       9 UNK         0.5000 
     26 O          -2.2191  -22.0641  -43.9817 O.2       9 UNK        -0.5000 
     27 CA         -2.3518  -19.6811  -44.1776 C.3       9 UNK         0.1400 
     28 CB         -2.6374  -18.9772  -42.8430 C.3       9 UNK        -0.1800 
     29 N          -1.6434  -18.7700  -45.0769 N.am      9 UNK        -0.5000 
     30 C          -1.3773  -19.0270  -46.3661 C.2       8 UNK         0.5000 
     31 O          -1.7514  -20.0413  -46.9525 O.2       8 UNK        -0.5000 
     32 CA         -0.4992  -18.0081  -47.1124 C.3       8 UNK         0.1400 
     33 CB         -1.3391  -16.8312  -47.6271 C.3       8 UNK        -0.1800 
     34 N           0.6021  -17.5192  -46.2814 N.am      8 UNK        -0.5000 
     35 C           1.6156  -18.2916  -45.8626 C.2       7 UNK         0.5000 
     36 O           1.7322  -19.4803  -46.1548 O.2       7 UNK        -0.5000 
     37 CA          2.6288  -17.6517  -44.8977 C.3       7 UNK         0.1400 
     38 CB          3.6853  -16.8344  -45.6498 C.3       7 UNK        -0.1800 
     39 N           1.9839  -16.8112  -43.8901 N.am      7 UNK        -0.5000 
     40 C           1.1983  -17.2901  -42.9164 C.2       6 UNK         0.5000 
     41 O           0.9676  -18.4868  -42.7482 O.2       6 UNK        -0.5000 
     42 CA          0.5268  -16.2535  -42.0034 C.3       6 UNK         0.1400 
     43 CB          1.4707  -15.8489  -40.8624 C.3       6 UNK        -0.1800 
     44 N           0.0947  -15.0587  -42.7281 N.am      6 UNK        -0.5000 
     45 C          -0.8699  -15.0318  -43.6586 C.2       5 UNK         0.5000 
     46 O          -1.4404  -16.0444  -44.0672 O.2       5 UNK        -0.5000 
     47 CA         -1.2468  -13.6461  -44.2256 C.3       5 UNK         0.1400 
     48 CB         -2.6811  -13.6006  -44.7917 C.3       5 UNK        -0.1800 
     49 N          -1.0250  -12.5489  -43.2779 N.am      5 UNK        -0.5000 
     50 C          -1.5843  -12.3709  -42.0719 C.2       4 UNK         0.5000 
     51 O          -2.4606  -13.1015  -41.6069 O.2       4 UNK        -0.5000 
     52 CA         -1.0164  -11.2049  -41.2313 C.3       4 UNK         0.1400 
     53 CB         -1.5621  -11.1867  -39.7918 C.3       4 UNK        -0.1800 
     54 N           0.4481  -11.2552  -41.1770 N.am      4 UNK        -0.5000 
     55 C           1.2746  -10.8156  -42.1344 C.2       3 UNK         0.5000 
     56 O           0.8757  -10.2357  -43.1468 O.2       3 UNK        -0.5000 
     57 CA          2.7839  -11.0888  -41.9581 C.3       3 UNK         0.1400 
     58 CB          3.1073  -12.1820  -40.9163 C.3       3 UNK        -0.1800 
     59 N           3.4392  -11.3908  -43.2354 N.am      3 UNK        -0.5000 
     60 C           3.1599  -12.3890  -44.0877 C.2       2 UNK         0.5000 
     61 O           2.3175  -13.2708  -43.8892 O.2       2 UNK        -0.5000 
     62 CA          4.0280  -12.4205  -45.3600 C.3       2 UNK         0.1400 
     63 CB          5.2861  -13.2694  -45.1237 C.3       2 UNK        -0.1800 
     64 N           3.3273  -12.9308  -46.5392 N.am      2 UNK        -0.5000 
     65 C           2.3012  -12.3262  -47.1522 C.2       1 UNK         0.5000 
     66 O           1.8036  -11.2694  -46.7540 O.2       1 UNK        -0.5000 
     67 C          -0.7833  -23.5464  -47.6295 C.2       11 UNK         0.5000 
     68 O          -0.8293  -24.6896  -48.0774 O.2       11 UNK        -0.5000 
     69 N          -1.8695  -22.8558  -47.2556 N.am      12 UNK        -0.5000 
     70 CA         -3.2364  -23.3734  -47.3198 C.3       12 UNK         0.1400 
     71 CB         -4.2369  -22.2558  -46.9926 C.3       12 UNK        -0.1800 
     72 C          -3.4673  -24.5976  -46.4188 C.2       12 UNK         0.5000 
     73 O          -4.1475  -25.5317  -46.8419 O.2       12 UNK        -0.5000 
     74 N          -2.8754  -24.5968  -45.2179 N.am      13 UNK        -0.5000 
     75 CA         -2.8966  -25.7291  -44.2919 C.3       13 UNK         0.1400 
     76 CB         -2.3098  -25.2999  -42.9387 C.3       13 UNK        -0.1800 
     77 C          -2.1578  -26.9617  -44.8471 C.2       13 UNK         0.5000 
     78 O          -2.6489  -28.0806  -44.6952 O.2       13 UNK        -0.5000 
     79 N          -1.0092  -26.7339  -45.4987 N.am      14 UNK        -0.5000 
     80 CA         -0.2017  -27.7724  -46.1383 C.3       14 UNK         0.1400 
     81 CB          1.2013  -27.2168  -46.4287 C.3       14 UNK        -0.1800 
     82 C          -0.8473  -28.3265  -47.4229 C.2       14 UNK         0.5000 
     83 O          -0.8646  -29.5421  -47.6198 O.2       14 UNK        -0.5000 
     84 N          -1.3580  -27.4283  -48.2749 N.am      15 UNK        -0.5000 
     85 CA         -1.9373  -27.7464  -49.5819 C.3       15 UNK         0.1400 
     86 CB         -1.9251  -26.4775  -50.4506 C.3       15 UNK        -0.1800 
     87 C          -3.3647  -28.3201  -49.5160 C.2       15 UNK         0.5000 
     88 O          -3.8120  -28.8998  -50.5061 O.2       15 UNK        -0.5000 
     89 N          -4.0498  -28.1305  -48.3779 N.am      16 UNK        -0.5000 
     90 CA         -5.4787  -28.3723  -48.1510 C.3       16 UNK         0.1400 
     91 CB         -5.8526  -29.8585  -48.3380 C.3       16 UNK        -0.1800 
     92 C          -6.3220  -27.4018  -49.0028 C.2       16 UNK         0.5000 
     93 O          -7.0473  -27.8243  -49.9050 O.2       16 UNK        -0.5000 
     94 N          -6.1581  -26.1119  -48.6795 N.am      17 UNK        -0.5000 
     95 CA         -6.6097  -24.8950  -49.3576 C.3       17 UNK         0.1400 
     96 CB         -8.0656  -24.9672  -49.8577 C.3       17 UNK        -0.1800 
     97 C          -5.6283  -24.4895  -50.4706 C.2       17 UNK         0.5000 
     98 O          -5.2799  -25.3066  -51.3250 O.2       17 UNK        -0.5000 
     99 N          -5.1965  -23.2237  -50.4282 N.am      18 UNK        -0.5000 
    100 CA        -4.3341  -22.5975  -51.4303 C.3       18 UNK         0.1400 
    101 CB        -3.5005  -21.4985  -50.7451 C.3       18 UNK        -0.1800 
    102 C         -5.1676  -22.0207  -52.5921 C.2       18 UNK         0.5000 
    103 O         -6.4012  -22.0215  -52.5365 O.2       18 UNK        -0.5000 
    104 N         -4.4747  -21.5276  -53.6259 N.am      19 UNK        -0.5000 
    105 CA        -5.0695  -20.8482  -54.7776 C.3       19 UNK         0.1400 
    106 CB        -3.9802  -20.6286  -55.8404 C.3       19 UNK        -0.1800 
    107 C         -5.7221  -19.5041  -54.3969 C.2       19 UNK         0.5000 
    108 O         -5.3097  -18.8641  -53.4269 O.2       19 UNK        -0.5000 
    109 N         -6.7075  -19.0810  -55.1991 N.am      20 UNK        -0.5000 
    110 CA        -7.4092  -17.8020  -55.0447 C.3       20 UNK         0.1400 
    111 CB        -8.6811  -17.8243  -55.9067 C.3       20 UNK        -0.1800 
    112 C         -6.5384  -16.5793  -55.4014 C.2       20 UNK         0.5000 
    113 O         -6.8223  -15.4754  -54.9346 O.2       20 UNK        -0.5000 
    114 N         -5.5003  -16.7982  -56.2158 N.am      21 UNK        -0.5000 
    115 CA        -4.5264  -15.8031  -56.6406 C.3       21 UNK         0.1400 
    116 CB        -5.0031  -15.1315  -57.9426 C.3       21 UNK        -0.1800 
    117 C         -3.1729  -16.5107  -56.7874 C.2       21 UNK         0.5000 
    118 O         -2.8035  -16.9135  -57.8922 O.2       21 UNK        -0.5000 
    119 N         -2.4881  -16.7032  -55.6540 N.am      22 UNK        -0.5000 
    120 CA        -1.1375  -17.2830  -55.5681 C.3       22 UNK         0.1400 
    121 C         -0.0732  -16.4614  -56.3514 C.2       22 UNK         0.5000 
    122 N          0.8712  -17.1218  -57.0076 N.am      22 UNK        -0.7600 
    123 O         -0.0713  -15.2322  -56.3319 O.2       22 UNK        -0.5000 
    124 C124       -0.6845  -17.4503  -54.0966 C.3       23 UNK        -0.0398 
    125 S125       -1.7278  -18.6104  -53.1509 S.3       23 UNK        -0.2404 
    126 C126       -1.3969  -18.0733  -51.4411 C.3       23 UNK        -0.0205 
    127 H127       -2.5626  -12.4418  -49.4557 H         1 UNK         0.0600 
    128 H128       -1.4788  -11.0890  -49.7962 H         1 UNK         0.0600 
    129 H129       -2.2977  -11.1927  -48.2345 H         1 UNK         0.0600 
    130 H130        0.6640  -11.6519  -49.6476 H         1 UNK         0.3000 
    131 H131        2.5348  -12.6661  -49.2254 H         1 UNK         0.0600 
    132 H132        1.4553  -14.9013  -47.4720 H         1 UNK         0.0800 
    133 H133        1.0207  -14.8884  -49.1465 H         1 UNK         0.0800 
    134 H134        2.5875  -14.9843  -51.1677 H         1 UNK         0.0800 
    135 H135        4.0158  -15.9813  -51.1036 H         1 UNK         0.0800 
    136 H136        0.3859  -16.0289  -51.1553 H         1 UNK         0.1150 
    137 H137        0.1024  -20.2998  -50.9979 H         1 UNK         0.1150 
    138 H138        3.8605  -18.3700  -50.2535 H         1 UNK         0.1150 
    139 H139        2.2776  -21.5729  -51.0911 H         1 UNK         0.0800 
    140 H140        3.7736  -20.7694  -50.7050 H         1 UNK         0.0800 
    141 H141        0.5836  -22.3295  -49.5503 H         1 UNK         0.0800 
    142 H142        0.2732  -20.9815  -48.4804 H         1 UNK         0.0800 
    143 H143        1.3346  -23.6734  -47.4937 H         1 UNK         0.0600 
    144 H144        0.8572  -21.2535  -46.0976 H         1 UNK         0.3000 
    145 H145        0.2344  -22.7257  -42.8688 H         1 UNK         0.0600 
    146 H146        2.0253  -21.1057  -42.3262 H         1 UNK         0.0600 
    147 H147        2.6997  -22.4917  -43.1701 H         1 UNK         0.0600 
    148 H148        2.4660  -20.9737  -44.0269 H         1 UNK         0.0600 
    149 H149        0.1674  -20.0147  -43.7034 H         1 UNK         0.3000 
    150 H150       -3.3099  -19.9222  -44.6418 H         1 UNK         0.0600 
    151 H151       -3.2027  -19.6264  -42.1733 H         1 UNK         0.0600 
    152 H152       -3.2256  -18.0717  -42.9930 H         1 UNK         0.0600 
    153 H153       -1.7181  -18.6968  -42.3294 H         1 UNK         0.0600 
    154 H154       -1.3525  -17.8787  -44.6850 H         1 UNK         0.3000 
    155 H155       -0.0670  -18.5145  -47.9783 H         1 UNK         0.0600 
    156 H156       -1.7436  -16.2327  -46.8108 H         1 UNK         0.0600 
    157 H157       -0.7485  -16.1748  -48.2638 H         1 UNK         0.0600 
    158 H158       -2.1803  -17.1845  -48.2248 H         1 UNK         0.0600 
    159 H159        0.5354  -16.5720  -45.9428 H         1 UNK         0.3000 
    160 H160        3.1435  -18.4665  -44.3837 H         1 UNK         0.0600 
    161 H161        3.2751  -15.8956  -46.0184 H         1 UNK         0.0600 
    162 H162        4.0795  -17.3860  -46.5047 H         1 UNK         0.0600 
    163 H163        4.5278  -16.6011  -44.9995 H         1 UNK         0.0600 
    164 H164        2.1169  -15.8107  -43.9578 H         1 UNK         0.3000 
    165 H165       -0.3604  -16.7154  -41.5657 H         1 UNK         0.0600 
    166 H166        1.0105  -15.1074  -40.2090 H         1 UNK         0.0600 
    167 H167        1.7246  -16.7123  -40.2462 H         1 UNK         0.0600 
    168 H168        2.4053  -15.4353  -41.2422 H         1 UNK         0.0600 
    169 H169        0.5724  -14.1939  -42.5167 H         1 UNK         0.3000 
    170 H170       -0.5506  -13.4670  -45.0440 H         1 UNK         0.0600 
    171 H171       -3.4266  -13.8302  -44.0302 H         1 UNK         0.0600 
    172 H172       -2.9094  -12.6180  -45.2045 H         1 UNK         0.0600 
    173 H173       -2.8056  -14.3230  -45.5989 H         1 UNK         0.0600 
    174 H174       -0.3082  -11.8833  -43.5484 H         1 UNK         0.3000 
    175 H175       -1.3275  -10.2768  -41.7153 H         1 UNK         0.0600 
    176 H176       -1.1678  -10.3385  -39.2319 H         1 UNK         0.0600 
    177 H177       -1.3015  -12.0968  -39.2502 H         1 UNK         0.0600 
    178 H178       -2.6494  -11.0991  -39.7858 H         1 UNK         0.0600 
    179 H179        0.8464  -11.7372  -40.3841 H         1 UNK         0.3000 
    180 H180        3.2204  -10.1540  -41.6039 H         1 UNK         0.0600 
    181 H181        2.6201  -13.1254  -41.1575 H         1 UNK         0.0600 
    182 H182        2.7905  -11.8869  -39.9154 H         1 UNK         0.0600 
    183 H183        4.1802  -12.3686  -40.8658 H         1 UNK         0.0600 
    184 H184        4.1413  -10.7203  -43.5148 H         1 UNK         0.3000 
    185 H185        4.3433  -11.4001  -45.5881 H         1 UNK         0.0600 
    186 H186        5.8778  -12.8700  -44.2990 H         1 UNK         0.0600 
    187 H187        5.0341  -14.2991  -44.8729 H         1 UNK         0.0600 
    188 H188        5.9278  -13.2838  -46.0049 H         1 UNK         0.0600 
    189 H189        3.6850  -13.7882  -46.9365 H         1 UNK         0.3000 
    190 H190       -1.7619  -21.8940  -46.9406 H         1 UNK         0.3000 
    191 H191       -3.4104  -23.6978  -48.3465 H         1 UNK         0.0600 
    192 H192       -4.1372  -21.4202  -47.6852 H         1 UNK         0.0600 
    193 H193       -5.2641  -22.6152  -47.0590 H         1 UNK         0.0600 
    194 H194       -4.0911  -21.8704  -45.9837 H         1 UNK         0.0600 
    195 H195       -2.3908  -23.7584  -44.9095 H         1 UNK         0.3000 
    196 H196       -3.9396  -26.0112  -44.1336 H         1 UNK         0.0600 
    197 H197       -2.3371  -26.1221  -42.2226 H         1 UNK         0.0600 
    198 H198       -2.8765  -24.4740  -42.5085 H         1 UNK         0.0600 
    199 H199       -1.2721  -24.9791  -43.0318 H         1 UNK         0.0600 
    200 H200       -0.6565  -25.7843  -45.5486 H         1 UNK         0.3000 
    201 H201       -0.0946  -28.6015  -45.4356 H         1 UNK         0.0600 
    202 H202        1.6933  -26.8926  -45.5114 H         1 UNK         0.0600 
    203 H203        1.1662  -26.3631  -47.1062 H         1 UNK         0.0600 
    204 H204        1.8354  -27.9761  -46.8882 H         1 UNK         0.0600 
    205 H205       -1.2542  -26.4372  -48.0619 H         1 UNK         0.3000 
    206 H206       -1.3059  -28.4942  -50.0661 H         1 UNK         0.0600 
    207 H207       -0.9143  -26.0858  -50.5655 H         1 UNK         0.0600 
    208 H208       -2.3108  -26.6808  -51.4504 H         1 UNK         0.0600 
    209 H209       -2.5436  -25.6901  -50.0175 H         1 UNK         0.0600 
    210 H210       -3.5861  -27.6013  -47.6504 H         1 UNK         0.3000 
    211 H211       -5.6680  -28.1228  -47.1055 H         1 UNK         0.0600 
    212 H212       -5.7567  -30.1848  -49.3734 H         1 UNK         0.0600 
    213 H213       -6.8868  -30.0339  -48.0403 H         1 UNK         0.0600 
    214 H214       -5.2233  -30.5023  -47.7236 H         1 UNK         0.0600 
    215 H215       -5.4842  -25.9307  -47.9359 H         1 UNK         0.3000 
    216 H216       -6.5800  -24.1239  -48.5865 H         1 UNK         0.0600 
    217 H217       -8.4090  -23.9834  -50.1795 H         1 UNK         0.0600 
    218 H218       -8.7399  -25.3081  -49.0721 H         1 UNK         0.0600 
    219 H219       -8.1723  -25.6362  -50.7118 H         1 UNK         0.0600 
    220 H220       -5.5899  -22.5982  -49.7411 H         1 UNK         0.3000 
    221 H221       -3.6502  -23.3438  -51.8405 H         1 UNK         0.0600 
    222 H222       -4.1317  -20.7118  -50.3298 H         1 UNK         0.0600 
    223 H223       -2.8940  -21.9052  -49.9366 H         1 UNK         0.0600 
    224 H224       -2.8121  -21.0278  -51.4471 H         1 UNK         0.0600 
    225 H225       -3.4665  -21.5210  -53.5797 H         1 UNK         0.3000 
    226 H226       -5.8384  -21.5020  -55.1947 H         1 UNK         0.0600 
    227 H227       -3.5233  -21.5721  -56.1394 H         1 UNK         0.0600 
    228 H228       -4.3935  -20.1716  -56.7402 H         1 UNK         0.0600 
    229 H229       -3.1885  -19.9729  -55.4763 H         1 UNK         0.0600 
    230 H230       -6.9951  -19.6601  -55.9752 H         1 UNK         0.3000 
    231 H231       -7.7073  -17.6984  -53.9991 H         1 UNK         0.0600 
    232 H232       -8.4479  -17.9389  -56.9661 H         1 UNK         0.0600 
    233 H233       -9.2460  -16.8979  -55.7937 H         1 UNK         0.0600 
    234 H234       -9.3408  -18.6422  -55.6164 H         1 UNK         0.0600 
    235 H235       -5.3293  -17.7412  -56.5343 H         1 UNK         0.3000 
    236 H236       -4.4171  -15.0320  -55.8746 H         1 UNK         0.0600 
    237 H237       -5.9337  -14.5859  -57.7853 H         1 UNK         0.0600 
    238 H238       -4.2638  -14.4164  -58.3051 H         1 UNK         0.0600 
    239 H239       -5.1744  -15.8609  -58.7352 H         1 UNK         0.0600 
    240 H240       -2.8837  -16.3808  -54.7833 H         1 UNK         0.3000 
    241 H241       -1.1901  -18.2752  -56.0208 H         1 UNK         0.0600 
    242 H242        0.8942  -18.1298  -57.0324 H         1 UNK         0.3800 
    243 H243        1.5755  -16.6009  -57.5071 H         1 UNK         0.3800 
    244 H244        0.3392  -17.8272  -54.0508 H         1 UNK         0.0800 
    245 H245       -0.6765  -16.4816  -53.5937 H         1 UNK         0.0800 
    246 H246       -1.7715  -17.0578  -51.3037 H         1 UNK         0.0800 
    247 H247       -1.9644  -18.7019  -50.7534 H         1 UNK         0.0800 
@<TRIPOS>BOND
     1    1    2 1    
     2    1  127 1    
     3    1  128 1    
     4    1  129 1    
     5    2    3 2    
     6    2    4 am   BACKBONE|DICT|INTERRES
     7    4    5 1    
     8    4  130 1    
     9    5    6 1    
    10    5   65 1    
    11    5  131 1    
    12    6    7 1    
    13    6  132 1    
    14    6  133 1    
    15    7    8 1    
    16    8    9 1    
    17    8  134 1    
    18    8  135 1    
    19    9   10 ar   
    20    9   14 ar   
    21   10   11 ar   
    22   10  136 1    
    23   11   12 ar   
    24   11  126 1    
    25   12   13 ar   
    26   12  137 1    
    27   13   14 ar   
    28   13   15 1    
    29   14  138 1    
    30   15   16 1    
    31   15  139 1    
    32   15  140 1    
    33   16   17 1    
    34   17   18 1    
    35   17  141 1    
    36   17  142 1    
    37   18   19 1    
    38   18   67 1    
    39   18  143 1    
    40   19   20 am   BACKBONE|DICT|INTERRES
    41   19  144 1    
    42   20   21 2    
    43   20   22 1    
    44   22   23 1    
    45   22   24 1    
    46   22  145 1    
    47   23  146 1    
    48   23  147 1    
    49   23  148 1    
    50   24   25 am   BACKBONE|DICT|INTERRES
    51   24  149 1    
    52   25   26 2    
    53   25   27 1    
    54   27   28 1    
    55   27   29 1    
    56   27  150 1    
    57   28  151 1    
    58   28  152 1    
    59   28  153 1    
    60   29   30 am   BACKBONE|DICT|INTERRES
    61   29  154 1    
    62   30   31 2    
    63   30   32 1    
    64   32   33 1    
    65   32   34 1    
    66   32  155 1    
    67   33  156 1    
    68   33  157 1    
    69   33  158 1    
    70   34   35 am   BACKBONE|DICT|INTERRES
    71   34  159 1    
    72   35   36 2    
    73   35   37 1    
    74   37   38 1    
    75   37   39 1    
    76   37  160 1    
    77   38  161 1    
    78   38  162 1    
    79   38  163 1    
    80   39   40 am   BACKBONE|DICT|INTERRES
    81   39  164 1    
    82   40   41 2    
    83   40   42 1    
    84   42   43 1    
    85   42   44 1    
    86   42  165 1    
    87   43  166 1    
    88   43  167 1    
    89   43  168 1    
    90   44   45 am   BACKBONE|DICT|INTERRES
    91   44  169 1    
    92   45   46 2    
    93   45   47 1    
    94   47   48 1    
    95   47   49 1    
    96   47  170 1    
    97   48  171 1    
    98   48  172 1    
    99   48  173 1    
   100   49   50 am   BACKBONE|DICT|INTERRES
   101   49  174 1    
   102   50   51 2    
   103   50   52 1    
   104   52   53 1    
   105   52   54 1    
   106   52  175 1    
   107   53  176 1    
   108   53  177 1    
   109   53  178 1    
   110   54   55 am   BACKBONE|DICT|INTERRES
   111   54  179 1    
   112   55   56 2    
   113   55   57 1    
   114   57   58 1    
   115   57   59 1    
   116   57  180 1    
   117   58  181 1    
   118   58  182 1    
   119   58  183 1    
   120   59   60 am   BACKBONE|DICT|INTERRES
   121   59  184 1    
   122   60   61 2    
   123   60   62 1    
   124   62   63 1    
   125   62   64 1    
   126   62  185 1    
   127   63  186 1    
   128   63  187 1    
   129   63  188 1    
   130   64   65 am   BACKBONE|DICT|INTERRES
   131   64  189 1    
   132   65   66 2    
   133   67   68 2    
   134   67   69 am   BACKBONE|DICT|INTERRES
   135   69   70 1    
   136   69  190 1    
   137   70   71 1    
   138   70   72 1    
   139   70  191 1    
   140   71  192 1    
   141   71  193 1    
   142   71  194 1    
   143   72   73 2    
   144   72   74 am   BACKBONE|DICT|INTERRES
   145   74   75 1    
   146   74  195 1    
   147   75   76 1    
   148   75   77 1    
   149   75  196 1    
   150   76  197 1    
   151   76  198 1    
   152   76  199 1    
   153   77   78 2    
   154   77   79 am   BACKBONE|DICT|INTERRES
   155   79   80 1    
   156   79  200 1    
   157   80   81 1    
   158   80   82 1    
   159   80  201 1    
   160   81  202 1    
   161   81  203 1    
   162   81  204 1    
   163   82   83 2    
   164   82   84 am   BACKBONE|DICT|INTERRES
   165   84   85 1    
   166   84  205 1    
   167   85   86 1    
   168   85   87 1    
   169   85  206 1    
   170   86  207 1    
   171   86  208 1    
   172   86  209 1    
   173   87   88 2    
   174   87   89 am   BACKBONE|DICT|INTERRES
   175   89   90 1    
   176   89  210 1    
   177   90   91 1    
   178   90   92 1    
   179   90  211 1    
   180   91  212 1    
   181   91  213 1    
   182   91  214 1    
   183   92   93 2    
   184   92   94 am   BACKBONE|DICT|INTERRES
   185   94   95 1    
   186   94  215 1    
   187   95   96 1    
   188   95   97 1    
   189   95  216 1    
   190   96  217 1    
   191   96  218 1    
   192   96  219 1    
   193   97   98 2    
   194   97   99 am   BACKBONE|DICT|INTERRES
   195   99  100 1    
   196   99  220 1    
   197  100  101 1    
   198  100  102 1    
   199  100  221 1    
   200  101  222 1    
   201  101  223 1    
   202  101  224 1    
   203  102  103 2    
   204  102  104 am   BACKBONE|DICT|INTERRES
   205  104  105 1    
   206  104  225 1    
   207  105  106 1    
   208  105  107 1    
   209  105  226 1    
   210  106  227 1    
   211  106  228 1    
   212  106  229 1    
   213  107  108 2    
   214  107  109 am   BACKBONE|DICT|INTERRES
   215  109  110 1    
   216  109  230 1    
   217  110  111 1    
   218  110  112 1    
   219  110  231 1    
   220  111  232 1    
   221  111  233 1    
   222  111  234 1    
   223  112  113 2    
   224  112  114 am   BACKBONE|DICT|INTERRES
   225  114  115 1    
   226  114  235 1    
   227  115  116 1    
   228  115  117 1    
   229  115  236 1    
   230  116  237 1    
   231  116  238 1    
   232  116  239 1    
   233  117  118 2    
   234  117  119 am   BACKBONE|DICT|INTERRES
   235  119  120 1    
   236  119  240 1    
   237  120  121 1    
   238  120  124 1    
   239  120  241 1    
   240  121  122 am   BACKBONE|DICT|INTERRES
   241  121  123 2    
   242  122  242 1    
   243  122  243 1    
   244  124  125 1    
   245  124  244 1    
   246  124  245 1    
   247  125  126 1    
   248  126  246 1    
   249  126  247 1    
@<TRIPOS>SUBSTRUCTURE
     1 UNK         1 GROUP             0       ****    0 ROOT    
