@<TRIPOS>MOLECULE
3R540
247   249    1
SMALL
USER_CHARGES


@<TRIPOS>ATOM
      1 CA          3.0010  -11.6619  -45.9179 C.3       0 UNK        -0.1800 
      2 C           2.6018  -12.4529  -47.1548 C.2       0 UNK         0.5000 
      3 O           3.3365  -12.4535  -48.1414 O.2       0 UNK        -0.5000 
      4 N           1.4291  -13.1017  -47.1125 N.am      1 UNK        -0.5000 
      5 CA          0.8151  -13.8884  -48.1983 C.3       1 UNK         0.1400 
      6 C6          1.7660  -14.9644  -48.8038 C.3       23 UNK        -0.0398 
      7 S7          0.9013  -16.4580  -49.3968 S.3       23 UNK        -0.2404 
      8 C8          2.2426  -17.2910  -50.3007 C.3       23 UNK        -0.0205 
      9 C9          1.7508  -18.5559  -50.9904 C.ar      23 UNK        -0.0193 
     10 C10         1.2023  -18.4847  -52.2733 C.ar      23 UNK        -0.1150 
     11 C11         0.7451  -19.6378  -52.9160 C.ar      23 UNK        -0.0193 
     12 C12         0.8391  -20.8691  -52.2641 C.ar      23 UNK        -0.1150 
     13 C13         1.3845  -20.9631  -50.9799 C.ar      23 UNK        -0.0193 
     14 C14         1.8442  -19.7965  -50.3512 C.ar      23 UNK        -0.1150 
     15 C15         1.4169  -22.3386  -50.3128 C.3       23 UNK        -0.0205 
     16 S16         2.7038  -22.5739  -49.0390 S.3       23 UNK        -0.2404 
     17 C17         1.8716  -21.9472  -47.5403 C.3       23 UNK        -0.0398 
     18 CA          1.2599  -23.0824  -46.6826 C.3       11 UNK         0.1400 
     19 N           1.1564  -22.7237  -45.2666 N.am      11 UNK        -0.5000 
     20 C           0.8073  -23.5716  -44.2876 C.2       10 UNK         0.5000 
     21 O           0.5787  -24.7683  -44.4673 O.2       10 UNK        -0.5000 
     22 CA          0.6360  -22.9714  -42.8800 C.3       10 UNK         0.1400 
     23 CB          1.9973  -22.7609  -42.2007 C.3       10 UNK        -0.1800 
     24 N          -0.1077  -21.7111  -42.8976 N.am      10 UNK        -0.5000 
     25 C          -1.3861  -21.5936  -43.2858 C.2       9 UNK         0.5000 
     26 O          -2.0924  -22.5483  -43.6123 O.2       9 UNK        -0.5000 
     27 CA         -1.9538  -20.1647  -43.3756 C.3       9 UNK         0.1400 
     28 CB         -2.3647  -19.6459  -41.9897 C.3       9 UNK        -0.1800 
     29 N          -1.0180  -19.2242  -43.9932 N.am      9 UNK        -0.5000 
     30 C          -0.5608  -19.3216  -45.2496 C.2       8 UNK         0.5000 
     31 O          -0.9089  -20.1937  -46.0408 O.2       8 UNK        -0.5000 
     32 CA          0.5084  -18.3090  -45.6808 C.3       8 UNK         0.1400 
     33 CB         -0.1363  -16.9660  -46.0464 C.3       8 UNK        -0.1800 
     34 N           1.5286  -18.1202  -44.6483 N.am      8 UNK        -0.5000 
     35 C           2.3954  -19.0692  -44.2636 C.2       7 UNK         0.5000 
     36 O           2.4449  -20.1912  -44.7633 O.2       7 UNK        -0.5000 
     37 CA          3.3352  -18.7239  -43.0954 C.3       7 UNK         0.1400 
     38 CB          4.5655  -17.9560  -43.6007 C.3       7 UNK        -0.1800 
     39 N           2.6677  -17.9414  -42.0566 N.am      7 UNK        -0.5000 
     40 C           1.6645  -18.3899  -41.2877 C.2       6 UNK         0.5000 
     41 O           1.2289  -19.5406  -41.3290 O.2       6 UNK        -0.5000 
     42 CA          0.9967  -17.3460  -40.3719 C.3       6 UNK         0.1400 
     43 CB          1.7782  -17.1921  -39.0588 C.3       6 UNK        -0.1800 
     44 N           0.8743  -16.0395  -41.0293 N.am      6 UNK        -0.5000 
     45 C           0.1088  -15.8225  -42.1061 C.2       5 UNK         0.5000 
     46 O          -0.6294  -16.6810  -42.5972 O.2       5 UNK        -0.5000 
     47 CA          0.2339  -14.4518  -42.7861 C.3       5 UNK         0.1400 
     48 CB          1.5072  -14.4218  -43.6592 C.3       5 UNK        -0.1800 
     49 N          -0.9916  -14.2300  -43.5555 N.am      5 UNK        -0.5000 
     50 C          -1.2679  -13.2804  -44.4544 C.2       4 UNK         0.5000 
     51 O          -0.4453  -12.4764  -44.9045 O.2       4 UNK        -0.5000 
     52 CA         -2.7299  -13.2165  -44.9255 C.3       4 UNK         0.1400 
     53 CB         -3.6645  -12.8137  -43.7653 C.3       4 UNK        -0.1800 
     54 N          -2.8297  -12.2478  -46.0128 N.am      4 UNK        -0.5000 
     55 C          -3.8671  -12.1038  -46.8479 C.2       3 UNK         0.5000 
     56 O          -4.8956  -12.7762  -46.7820 O.2       3 UNK        -0.5000 
     57 CA         -3.7260  -11.0516  -47.9581 C.3       3 UNK         0.1400 
     58 CB         -4.1669   -9.6628  -47.4622 C.3       3 UNK        -0.1800 
     59 N          -2.3514  -11.0087  -48.4512 N.am      3 UNK        -0.5000 
     60 C          -1.9614  -10.5675  -49.6527 C.2       2 UNK         0.5000 
     61 O          -2.7254  -10.0802  -50.4865 O.2       2 UNK        -0.5000 
     62 CA         -0.4581  -10.6898  -49.9770 C.3       2 UNK         0.1400 
     63 CB          0.2391   -9.3305  -49.8124 C.3       2 UNK        -0.1800 
     64 N           0.2268  -11.6743  -49.1339 N.am      2 UNK        -0.5000 
     65 C           0.1314  -13.0049  -49.2724 C.2       1 UNK         0.5000 
     66 O          -0.5169  -13.5318  -50.1749 O.2       1 UNK        -0.5000 
     67 C          -0.0943  -23.5477  -47.2510 C.2       11 UNK         0.5000 
     68 O          -0.1433  -24.5834  -47.9104 O.2       11 UNK        -0.5000 
     69 N          -1.1691  -22.8019  -46.9589 N.am      12 UNK        -0.5000 
     70 CA         -2.5386  -23.1069  -47.3703 C.3       12 UNK         0.1400 
     71 CB         -3.4831  -21.9794  -46.9237 C.3       12 UNK        -0.1800 
     72 C          -3.0357  -24.4598  -46.8397 C.2       12 UNK         0.5000 
     73 O          -3.6323  -25.2243  -47.5976 O.2       12 UNK        -0.5000 
     74 N          -2.7446  -24.7455  -45.5630 N.am      13 UNK        -0.5000 
     75 CA         -3.0473  -26.0184  -44.9106 C.3       13 UNK         0.1400 
     76 CB         -2.7698  -25.8987  -43.4045 C.3       13 UNK        -0.1800 
     77 C          -2.2716  -27.2022  -45.5185 C.2       13 UNK         0.5000 
     78 O          -2.8460  -28.2790  -45.6831 O.2       13 UNK        -0.5000 
     79 N          -0.9927  -26.9809  -45.8521 N.am      14 UNK        -0.5000 
     80 CA         -0.1199  -27.9714  -46.4817 C.3       14 UNK         0.1400 
     81 CB          1.3416  -27.5097  -46.3687 C.3       14 UNK        -0.1800 
     82 C          -0.4954  -28.2492  -47.9493 C.2       14 UNK         0.5000 
     83 O          -0.5581  -29.4118  -48.3513 O.2       14 UNK        -0.5000 
     84 N          -0.7313  -27.1810  -48.7217 N.am      15 UNK        -0.5000 
     85 CA         -1.0598  -27.2366  -50.1466 C.3       15 UNK         0.1400 
     86 CB         -0.8013  -25.8566  -50.7745 C.3       15 UNK        -0.1800 
     87 C          -2.5079  -27.6746  -50.4260 C.2       15 UNK         0.5000 
     88 O          -2.7709  -28.2062  -51.5054 O.2       15 UNK        -0.5000 
     89 N          -3.4140  -27.4164  -49.4703 N.am      16 UNK        -0.5000 
     90 CA         -4.8715  -27.5476  -49.5706 C.3       16 UNK         0.1400 
     91 CB         -5.2927  -29.0228  -49.7376 C.3       16 UNK        -0.1800 
     92 C          -5.4422  -26.6119  -50.6578 C.2       16 UNK         0.5000 
     93 O          -6.2421  -27.0361  -51.4945 O.2       16 UNK        -0.5000 
     94 N          -4.9854  -25.3545  -50.6378 N.am      17 UNK        -0.5000 
     95 CA         -5.3031  -24.3155  -51.6115 C.3       17 UNK         0.1400 
     96 CB         -4.2813  -24.3693  -52.7606 C.3       17 UNK        -0.1800 
     97 C          -5.2745  -22.9468  -50.9195 C.2       17 UNK         0.5000 
     98 O          -4.6443  -22.8026  -49.8708 O.2       17 UNK        -0.5000 
     99 N          -5.9467  -21.9591  -51.5196 N.am      18 UNK        -0.5000 
    100 CA        -6.0123  -20.5841  -51.0300 C.3       18 UNK         0.1400 
    101 CB        -7.2581  -19.9035  -51.6235 C.3       18 UNK        -0.1800 
    102 C         -4.7196  -19.8162  -51.3641 C.2       18 UNK         0.5000 
    103 O         -4.6488  -19.1618  -52.4058 O.2       18 UNK        -0.5000 
    104 N         -3.7255  -19.9063  -50.4694 N.am      19 UNK        -0.5000 
    105 CA        -2.4109  -19.2579  -50.5707 C.3       19 UNK         0.1400 
    106 CB        -1.6162  -19.5343  -49.2852 C.3       19 UNK        -0.1800 
    107 C         -2.4852  -17.7417  -50.8432 C.2       19 UNK         0.5000 
    108 O         -1.7808  -17.2291  -51.7116 O.2       19 UNK        -0.5000 
    109 N         -3.3973  -17.0623  -50.1364 N.am      20 UNK        -0.5000 
    110 CA        -3.6532  -15.6296  -50.2786 C.3       20 UNK         0.1400 
    111 CB        -4.5320  -15.1694  -49.1073 C.3       20 UNK        -0.1800 
    112 C         -4.2945  -15.2281  -51.6237 C.2       20 UNK         0.5000 
    113 O         -4.2218  -14.0538  -51.9874 O.2       20 UNK        -0.5000 
    114 N         -4.9216  -16.1810  -52.3303 N.am      21 UNK        -0.5000 
    115 CA        -5.5254  -15.9519  -53.6419 C.3       21 UNK         0.1400 
    116 CB        -6.6949  -16.9237  -53.8647 C.3       21 UNK        -0.1800 
    117 C         -4.4834  -16.0739  -54.7649 C.2       21 UNK         0.5000 
    118 O         -4.4712  -15.2312  -55.6637 O.2       21 UNK        -0.5000 
    119 N         -3.6302  -17.1062  -54.6996 N.am      22 UNK        -0.5000 
    120 CA        -2.5278  -17.3102  -55.6546 C.3       22 UNK         0.1400 
    121 C         -1.2956  -16.3932  -55.4088 C.2       22 UNK         0.5000 
    122 N         -1.0083  -15.9797  -54.1808 N.am      22 UNK        -0.7600 
    123 O         -0.5962  -16.0394  -56.3543 O.2       22 UNK        -0.5000 
    124 C124       -2.1300  -18.8019  -55.8067 C.3       23 UNK        -0.0398 
    125 S125       -1.6732  -19.6214  -54.2429 S.3       23 UNK        -0.2404 
    126 C126        0.1435  -19.5534  -54.3096 C.3       23 UNK        -0.0205 
    127 H127        2.1390  -11.4364  -45.2897 H         1 UNK         0.0600 
    128 H128        3.4605  -10.7162  -46.2055 H         1 UNK         0.0600 
    129 H129        3.7218  -12.2270  -45.3272 H         1 UNK         0.0600 
    130 H130        0.8597  -13.0059  -46.2753 H         1 UNK         0.3000 
    131 H131       -0.0073  -14.4115  -47.7088 H         1 UNK         0.0600 
    132 H132        2.3661  -14.5437  -49.6125 H         1 UNK         0.0800 
    133 H133        2.4768  -15.3002  -48.0476 H         1 UNK         0.0800 
    134 H134        3.0517  -17.5292  -49.6085 H         1 UNK         0.0800 
    135 H135        2.6598  -16.6074  -51.0417 H         1 UNK         0.0800 
    136 H136        1.1163  -17.5261  -52.7653 H         1 UNK         0.1150 
    137 H137        0.4712  -21.7574  -52.7586 H         1 UNK         0.1150 
    138 H138        2.2647  -19.8371  -49.3581 H         1 UNK         0.1150 
    139 H139        0.4321  -22.5485  -49.8957 H         1 UNK         0.0800 
    140 H140        1.5859  -23.0989  -51.0770 H         1 UNK         0.0800 
    141 H141        1.1316  -21.1848  -47.7907 H         1 UNK         0.0800 
    142 H142        2.6465  -21.4327  -46.9733 H         1 UNK         0.0800 
    143 H143        1.9373  -23.9384  -46.7225 H         1 UNK         0.0600 
    144 H144        1.3753  -21.7607  -45.0272 H         1 UNK         0.3000 
    145 H145        0.0662  -23.6860  -42.2823 H         1 UNK         0.0600 
    146 H146        1.8755  -22.4019  -41.1786 H         1 UNK         0.0600 
    147 H147        2.5583  -23.6951  -42.1536 H         1 UNK         0.0600 
    148 H148        2.6097  -22.0364  -42.7374 H         1 UNK         0.0600 
    149 H149        0.3915  -20.8801  -42.5968 H         1 UNK         0.3000 
    150 H150       -2.8471  -20.2016  -44.0022 H         1 UNK         0.0600 
    151 H151       -3.0887  -20.3140  -41.5218 H         1 UNK         0.0600 
    152 H152       -2.8267  -18.6609  -42.0595 H         1 UNK         0.0600 
    153 H153       -1.5096  -19.5654  -41.3184 H         1 UNK         0.0600 
    154 H154       -0.7141  -18.4416  -43.4215 H         1 UNK         0.3000 
    155 H155        1.0010  -18.6998  -46.5742 H         1 UNK         0.0600 
    156 H156        0.6191  -16.2497  -46.3621 H         1 UNK         0.0600 
    157 H157       -0.8381  -17.0858  -46.8730 H         1 UNK         0.0600 
    158 H158       -0.6879  -16.5329  -45.2138 H         1 UNK         0.0600 
    159 H159        1.5233  -17.2416  -44.1559 H         1 UNK         0.3000 
    160 H160        3.6742  -19.6616  -42.6499 H         1 UNK         0.0600 
    161 H161        4.2919  -16.9942  -44.0365 H         1 UNK         0.0600 
    162 H162        5.0925  -18.5258  -44.3673 H         1 UNK         0.0600 
    163 H163        5.2730  -17.7697  -42.7926 H         1 UNK         0.0600 
    164 H164        2.9673  -16.9847  -41.9448 H         1 UNK         0.3000 
    165 H165       -0.0067  -17.7051  -40.1331 H         1 UNK         0.0600 
    166 H166        1.2731  -16.5066  -38.3781 H         1 UNK         0.0600 
    167 H167        1.8690  -18.1502  -38.5452 H         1 UNK         0.0600 
    168 H168        2.7870  -16.8140  -39.2293 H         1 UNK         0.0600 
    169 H169        1.4505  -15.2922  -40.6689 H         1 UNK         0.3000 
    170 H170        0.2997  -13.6851  -42.0123 H         1 UNK         0.0600 
    171 H171        2.3742  -14.8055  -43.1204 H         1 UNK         0.0600 
    172 H172        1.3975  -15.0120  -44.5667 H         1 UNK         0.0600 
    173 H173        1.7579  -13.4037  -43.9492 H         1 UNK         0.0600 
    174 H174       -1.7204  -14.8882  -43.3079 H         1 UNK         0.3000 
    175 H175       -3.0097  -14.2027  -45.3018 H         1 UNK         0.0600 
    176 H176       -3.6015  -13.5209  -42.9377 H         1 UNK         0.0600 
    177 H177       -3.4122  -11.8272  -43.3744 H         1 UNK         0.0600 
    178 H178       -4.7078  -12.7897  -44.0791 H         1 UNK         0.0600 
    179 H179       -2.0203  -11.6450  -46.0798 H         1 UNK         0.3000 
    180 H180       -4.3812  -11.3569  -48.7771 H         1 UNK         0.0600 
    181 H181       -3.5162   -9.2949  -46.6681 H         1 UNK         0.0600 
    182 H182       -5.1834   -9.6938  -47.0679 H         1 UNK         0.0600 
    183 H183       -4.1558   -8.9309  -48.2699 H         1 UNK         0.0600 
    184 H184       -1.6528  -11.4374  -47.8646 H         1 UNK         0.3000 
    185 H185       -0.3678  -10.9982  -51.0207 H         1 UNK         0.0600 
    186 H186        1.2912   -9.3904  -50.0916 H         1 UNK         0.0600 
    187 H187       -0.2224   -8.5750  -50.4497 H         1 UNK         0.0600 
    188 H188        0.1836   -8.9708  -48.7841 H         1 UNK         0.0600 
    189 H189        0.7941  -11.3140  -48.3807 H         1 UNK         0.3000 
    190 H190       -1.0399  -21.9293  -46.4489 H         1 UNK         0.3000 
    191 H191       -2.5399  -23.1556  -48.4599 H         1 UNK         0.0600 
    192 H192       -3.4717  -21.8483  -45.8421 H         1 UNK         0.0600 
    193 H193       -4.5121  -22.1922  -47.2156 H         1 UNK         0.0600 
    194 H194       -3.2094  -21.0285  -47.3762 H         1 UNK         0.0600 
    195 H195       -2.2848  -24.0391  -44.9971 H         1 UNK         0.3000 
    196 H196       -4.1128  -26.2164  -45.0448 H         1 UNK         0.0600 
    197 H197       -3.0053  -26.8299  -42.8879 H         1 UNK         0.0600 
    198 H198       -3.3768  -25.1132  -42.9538 H         1 UNK         0.0600 
    199 H199       -1.7232  -25.6665  -43.2047 H         1 UNK         0.0600 
    200 H200       -0.5832  -26.0757  -45.6481 H         1 UNK         0.3000 
    201 H201       -0.2177  -28.9091  -45.9304 H         1 UNK         0.0600 
    202 H202        1.6355  -27.3870  -45.3261 H         1 UNK         0.0600 
    203 H203        1.5056  -26.5578  -46.8745 H         1 UNK         0.0600 
    204 H204        2.0179  -28.2400  -46.8144 H         1 UNK         0.0600 
    205 H205       -0.6117  -26.2499  -48.3237 H         1 UNK         0.3000 
    206 H206       -0.3953  -27.9585  -50.6259 H         1 UNK         0.0600 
    207 H207        0.2342  -25.5459  -50.6337 H         1 UNK         0.0600 
    208 H208       -0.9942  -25.8714  -51.8479 H         1 UNK         0.0600 
    209 H209       -1.4427  -25.0900  -50.3369 H         1 UNK         0.0600 
    210 H210       -3.0955  -26.9189  -48.6460 H         1 UNK         0.3000 
    211 H211       -5.2777  -27.1985  -48.6204 H         1 UNK         0.0600 
    212 H212       -4.9784  -29.4332  -50.6974 H         1 UNK         0.0600 
    213 H213       -6.3768  -29.1250  -49.6799 H         1 UNK         0.0600 
    214 H214       -4.8655  -29.6444  -48.9507 H         1 UNK         0.0600 
    215 H215       -4.3959  -25.0520  -49.8700 H         1 UNK         0.3000 
    216 H216       -6.3086  -24.4754  -52.0064 H         1 UNK         0.0600 
    217 H217       -3.2648  -24.2073  -52.3996 H         1 UNK         0.0600 
    218 H218       -4.4899  -23.6056  -53.5107 H         1 UNK         0.0600 
    219 H219       -4.3054  -25.3354  -53.2652 H         1 UNK         0.0600 
    220 H220       -6.4079  -22.1413  -52.3990 H         1 UNK         0.3000 
    221 H221       -6.1312  -20.5951  -49.9441 H         1 UNK         0.0600 
    222 H222       -8.1709  -20.4001  -51.2945 H         1 UNK         0.0600 
    223 H223       -7.2469  -19.9159  -52.7140 H         1 UNK         0.0600 
    224 H224       -7.3231  -18.8620  -51.3062 H         1 UNK         0.0600 
    225 H225       -3.8575  -20.5308  -49.6855 H         1 UNK         0.3000 
    226 H226       -1.8773  -19.7214  -51.3996 H         1 UNK         0.0600 
    227 H227       -1.4410  -20.6013  -49.1471 H         1 UNK         0.0600 
    228 H228       -0.6411  -19.0506  -49.3164 H         1 UNK         0.0600 
    229 H229       -2.1311  -19.1563  -48.4019 H         1 UNK         0.0600 
    230 H230       -3.9558  -17.5618  -49.4608 H         1 UNK         0.3000 
    231 H231       -2.6958  -15.1098  -50.2105 H         1 UNK         0.0600 
    232 H232       -5.4856  -15.6982  -49.0861 H         1 UNK         0.0600 
    233 H233       -4.7516  -14.1039  -49.1825 H         1 UNK         0.0600 
    234 H234       -4.0339  -15.3302  -48.1509 H         1 UNK         0.0600 
    235 H235       -4.8833  -17.1422  -52.0130 H         1 UNK         0.3000 
    236 H236       -5.9361  -14.9402  -53.6728 H         1 UNK         0.0600 
    237 H237       -7.4199  -16.8647  -53.0530 H         1 UNK         0.0600 
    238 H238       -7.2218  -16.6857  -54.7894 H         1 UNK         0.0600 
    239 H239       -6.3588  -17.9570  -53.9433 H         1 UNK         0.0600 
    240 H240       -3.6924  -17.7639  -53.9313 H         1 UNK         0.3000 
    241 H241       -2.9049  -17.0158  -56.6364 H         1 UNK         0.0600 
    242 H242       -0.2203  -15.3702  -54.0391 H         1 UNK         0.3800 
    243 H243       -1.4915  -16.3629  -53.3713 H         1 UNK         0.3800 
    244 H244       -1.3254  -18.9179  -56.5350 H         1 UNK         0.0800 
    245 H245       -2.9755  -19.3520  -56.2215 H         1 UNK         0.0800 
    246 H246        0.5136  -20.3731  -54.9269 H         1 UNK         0.0800 
    247 H247        0.4674  -18.6326  -54.7955 H         1 UNK         0.0800 
@<TRIPOS>BOND
     1    1    2 1    
     2    1  127 1    
     3    1  128 1    
     4    1  129 1    
     5    2    3 2    
     6    2    4 am   BACKBONE|DICT|INTERRES
     7    4    5 1    
     8    4  130 1    
     9    5    6 1    
    10    5   65 1    
    11    5  131 1    
    12    6    7 1    
    13    6  132 1    
    14    6  133 1    
    15    7    8 1    
    16    8    9 1    
    17    8  134 1    
    18    8  135 1    
    19    9   10 ar   
    20    9   14 ar   
    21   10   11 ar   
    22   10  136 1    
    23   11   12 ar   
    24   11  126 1    
    25   12   13 ar   
    26   12  137 1    
    27   13   14 ar   
    28   13   15 1    
    29   14  138 1    
    30   15   16 1    
    31   15  139 1    
    32   15  140 1    
    33   16   17 1    
    34   17   18 1    
    35   17  141 1    
    36   17  142 1    
    37   18   19 1    
    38   18   67 1    
    39   18  143 1    
    40   19   20 am   BACKBONE|DICT|INTERRES
    41   19  144 1    
    42   20   21 2    
    43   20   22 1    
    44   22   23 1    
    45   22   24 1    
    46   22  145 1    
    47   23  146 1    
    48   23  147 1    
    49   23  148 1    
    50   24   25 am   BACKBONE|DICT|INTERRES
    51   24  149 1    
    52   25   26 2    
    53   25   27 1    
    54   27   28 1    
    55   27   29 1    
    56   27  150 1    
    57   28  151 1    
    58   28  152 1    
    59   28  153 1    
    60   29   30 am   BACKBONE|DICT|INTERRES
    61   29  154 1    
    62   30   31 2    
    63   30   32 1    
    64   32   33 1    
    65   32   34 1    
    66   32  155 1    
    67   33  156 1    
    68   33  157 1    
    69   33  158 1    
    70   34   35 am   BACKBONE|DICT|INTERRES
    71   34  159 1    
    72   35   36 2    
    73   35   37 1    
    74   37   38 1    
    75   37   39 1    
    76   37  160 1    
    77   38  161 1    
    78   38  162 1    
    79   38  163 1    
    80   39   40 am   BACKBONE|DICT|INTERRES
    81   39  164 1    
    82   40   41 2    
    83   40   42 1    
    84   42   43 1    
    85   42   44 1    
    86   42  165 1    
    87   43  166 1    
    88   43  167 1    
    89   43  168 1    
    90   44   45 am   BACKBONE|DICT|INTERRES
    91   44  169 1    
    92   45   46 2    
    93   45   47 1    
    94   47   48 1    
    95   47   49 1    
    96   47  170 1    
    97   48  171 1    
    98   48  172 1    
    99   48  173 1    
   100   49   50 am   BACKBONE|DICT|INTERRES
   101   49  174 1    
   102   50   51 2    
   103   50   52 1    
   104   52   53 1    
   105   52   54 1    
   106   52  175 1    
   107   53  176 1    
   108   53  177 1    
   109   53  178 1    
   110   54   55 am   BACKBONE|DICT|INTERRES
   111   54  179 1    
   112   55   56 2    
   113   55   57 1    
   114   57   58 1    
   115   57   59 1    
   116   57  180 1    
   117   58  181 1    
   118   58  182 1    
   119   58  183 1    
   120   59   60 am   BACKBONE|DICT|INTERRES
   121   59  184 1    
   122   60   61 2    
   123   60   62 1    
   124   62   63 1    
   125   62   64 1    
   126   62  185 1    
   127   63  186 1    
   128   63  187 1    
   129   63  188 1    
   130   64   65 am   BACKBONE|DICT|INTERRES
   131   64  189 1    
   132   65   66 2    
   133   67   68 2    
   134   67   69 am   BACKBONE|DICT|INTERRES
   135   69   70 1    
   136   69  190 1    
   137   70   71 1    
   138   70   72 1    
   139   70  191 1    
   140   71  192 1    
   141   71  193 1    
   142   71  194 1    
   143   72   73 2    
   144   72   74 am   BACKBONE|DICT|INTERRES
   145   74   75 1    
   146   74  195 1    
   147   75   76 1    
   148   75   77 1    
   149   75  196 1    
   150   76  197 1    
   151   76  198 1    
   152   76  199 1    
   153   77   78 2    
   154   77   79 am   BACKBONE|DICT|INTERRES
   155   79   80 1    
   156   79  200 1    
   157   80   81 1    
   158   80   82 1    
   159   80  201 1    
   160   81  202 1    
   161   81  203 1    
   162   81  204 1    
   163   82   83 2    
   164   82   84 am   BACKBONE|DICT|INTERRES
   165   84   85 1    
   166   84  205 1    
   167   85   86 1    
   168   85   87 1    
   169   85  206 1    
   170   86  207 1    
   171   86  208 1    
   172   86  209 1    
   173   87   88 2    
   174   87   89 am   BACKBONE|DICT|INTERRES
   175   89   90 1    
   176   89  210 1    
   177   90   91 1    
   178   90   92 1    
   179   90  211 1    
   180   91  212 1    
   181   91  213 1    
   182   91  214 1    
   183   92   93 2    
   184   92   94 am   BACKBONE|DICT|INTERRES
   185   94   95 1    
   186   94  215 1    
   187   95   96 1    
   188   95   97 1    
   189   95  216 1    
   190   96  217 1    
   191   96  218 1    
   192   96  219 1    
   193   97   98 2    
   194   97   99 am   BACKBONE|DICT|INTERRES
   195   99  100 1    
   196   99  220 1    
   197  100  101 1    
   198  100  102 1    
   199  100  221 1    
   200  101  222 1    
   201  101  223 1    
   202  101  224 1    
   203  102  103 2    
   204  102  104 am   BACKBONE|DICT|INTERRES
   205  104  105 1    
   206  104  225 1    
   207  105  106 1    
   208  105  107 1    
   209  105  226 1    
   210  106  227 1    
   211  106  228 1    
   212  106  229 1    
   213  107  108 2    
   214  107  109 am   BACKBONE|DICT|INTERRES
   215  109  110 1    
   216  109  230 1    
   217  110  111 1    
   218  110  112 1    
   219  110  231 1    
   220  111  232 1    
   221  111  233 1    
   222  111  234 1    
   223  112  113 2    
   224  112  114 am   BACKBONE|DICT|INTERRES
   225  114  115 1    
   226  114  235 1    
   227  115  116 1    
   228  115  117 1    
   229  115  236 1    
   230  116  237 1    
   231  116  238 1    
   232  116  239 1    
   233  117  118 2    
   234  117  119 am   BACKBONE|DICT|INTERRES
   235  119  120 1    
   236  119  240 1    
   237  120  121 1    
   238  120  124 1    
   239  120  241 1    
   240  121  122 am   BACKBONE|DICT|INTERRES
   241  121  123 2    
   242  122  242 1    
   243  122  243 1    
   244  124  125 1    
   245  124  244 1    
   246  124  245 1    
   247  125  126 1    
   248  126  246 1    
   249  126  247 1    
@<TRIPOS>SUBSTRUCTURE
     1 UNK         1 GROUP             0       ****    0 ROOT    
