@<TRIPOS>MOLECULE
3R540
247   249    1
SMALL
USER_CHARGES


@<TRIPOS>ATOM
      1 CA          2.1306  -15.5291  -48.0485 C.3       0 UNK        -0.1800 
      2 C           2.4643  -14.2207  -48.7504 C.2       0 UNK         0.5000 
      3 O           1.8403  -13.1970  -48.4741 O.2       0 UNK        -0.5000 
      4 N           3.4466  -14.2561  -49.6596 N.am      1 UNK        -0.5000 
      5 CA          3.8834  -13.1252  -50.4891 C.3       1 UNK         0.1400 
      6 C6          4.8329  -13.5863  -51.6227 C.3       23 UNK        -0.0398 
      7 S7          3.9982  -14.5633  -52.9185 S.3       23 UNK        -0.2404 
      8 C8          4.1622  -16.2826  -52.3130 C.3       23 UNK        -0.0205 
      9 C9          2.8902  -16.9179  -51.7402 C.ar      23 UNK        -0.0193 
     10 C10         1.6596  -16.2501  -51.6726 C.ar      23 UNK        -0.1150 
     11 C11         0.5145  -16.8912  -51.1907 C.ar      23 UNK        -0.0193 
     12 C12         0.6006  -18.2215  -50.7675 C.ar      23 UNK        -0.1150 
     13 C13         1.8192  -18.9038  -50.8268 C.ar      23 UNK        -0.0193 
     14 C14         2.9548  -18.2451  -51.3069 C.ar      23 UNK        -0.1150 
     15 C15         1.9059  -20.3716  -50.4384 C.3       23 UNK        -0.0205 
     16 S16         2.7845  -20.6265  -48.8642 S.3       23 UNK        -0.2404 
     17 C17         1.5027  -20.2212  -47.6326 C.3       23 UNK        -0.0398 
     18 CA          0.7598  -21.4853  -47.1254 C.3       11 UNK         0.1400 
     19 N           0.3332  -21.3667  -45.7285 N.am      11 UNK        -0.5000 
     20 C          -0.1945  -22.3622  -45.0006 C.2       10 UNK         0.5000 
     21 O          -0.3177  -23.5174  -45.4097 O.2       10 UNK        -0.5000 
     22 CA         -0.7239  -21.9939  -43.6014 C.3       10 UNK         0.1400 
     23 CB          0.4139  -21.9556  -42.5708 C.3       10 UNK        -0.1800 
     24 N          -1.4464  -20.7198  -43.5957 N.am      10 UNK        -0.5000 
     25 C          -2.5983  -20.5088  -44.2493 C.2       9 UNK         0.5000 
     26 O          -3.2016  -21.3891  -44.8617 O.2       9 UNK        -0.5000 
     27 CA         -3.1482  -19.0705  -44.2645 C.3       9 UNK         0.1400 
     28 CB         -3.9375  -18.7741  -42.9811 C.3       9 UNK        -0.1800 
     29 N          -2.1033  -18.0625  -44.4503 N.am      9 UNK        -0.5000 
     30 C          -1.3323  -17.9591  -45.5430 C.2       8 UNK         0.5000 
     31 O          -1.4477  -18.6812  -46.5315 O.2       8 UNK        -0.5000 
     32 CA         -0.1933  -16.9259  -45.4981 C.3       8 UNK         0.1400 
     33 CB         -0.7182  -15.5082  -45.7689 C.3       8 UNK        -0.1800 
     34 N           0.5287  -16.9516  -44.2266 N.am      8 UNK        -0.5000 
     35 C           1.2107  -18.0053  -43.7573 C.2       7 UNK         0.5000 
     36 O           1.3644  -19.0520  -44.3839 O.2       7 UNK        -0.5000 
     37 CA          1.7614  -17.8957  -42.3259 C.3       7 UNK         0.1400 
     38 CB          3.1009  -17.1477  -42.2992 C.3       7 UNK        -0.1800 
     39 N           0.8127  -17.2370  -41.4297 N.am      7 UNK        -0.5000 
     40 C          -0.3319  -17.7888  -41.0050 C.2       6 UNK         0.5000 
     41 O          -0.6860  -18.9323  -41.2921 O.2       6 UNK        -0.5000 
     42 CA         -1.2480  -16.8977  -40.1455 C.3       6 UNK         0.1400 
     43 CB         -0.8123  -16.9344  -38.6732 C.3       6 UNK        -0.1800 
     44 N          -1.2771  -15.5084  -40.6085 N.am      6 UNK        -0.5000 
     45 C          -1.8216  -15.1126  -41.7677 C.2       5 UNK         0.5000 
     46 O          -2.3860  -15.8756  -42.5504 O.2       5 UNK        -0.5000 
     47 CA         -1.6684  -13.6243  -42.1382 C.3       5 UNK         0.1400 
     48 CB         -2.7996  -12.7947  -41.5129 C.3       5 UNK        -0.1800 
     49 N          -0.3741  -13.0450  -41.7609 N.am      5 UNK        -0.5000 
     50 C           0.8156  -13.4923  -42.1840 C.2       4 UNK         0.5000 
     51 O           0.9516  -14.4889  -42.8957 O.2       4 UNK        -0.5000 
     52 CA          2.0568  -12.7322  -41.6779 C.3       4 UNK         0.1400 
     53 CB          2.3592  -13.1259  -40.2229 C.3       4 UNK        -0.1800 
     54 N           3.2488  -13.0012  -42.4856 N.am      4 UNK        -0.5000 
     55 C           3.4158  -12.6391  -43.7636 C.2       3 UNK         0.5000 
     56 O           2.6043  -11.9619  -44.4017 O.2       3 UNK        -0.5000 
     57 CA          4.7161  -13.1145  -44.4308 C.3       3 UNK         0.1400 
     58 CB          4.7313  -14.6421  -44.6236 C.3       3 UNK        -0.1800 
     59 N           4.8655  -12.4653  -45.7292 N.am      3 UNK        -0.5000 
     60 C           6.0301  -12.1200  -46.2869 C.2       2 UNK         0.5000 
     61 O           7.1272  -12.3402  -45.7701 O.2       2 UNK        -0.5000 
     62 CA          5.9404  -11.4670  -47.6739 C.3       2 UNK         0.1400 
     63 CB          7.3166  -11.1096  -48.2723 C.3       2 UNK        -0.1800 
     64 N           5.2209  -12.3699  -48.5679 N.am      2 UNK        -0.5000 
     65 C           4.5540  -12.0021  -49.6678 C.2       1 UNK         0.5000 
     66 O           4.4606  -10.8348  -50.0506 O.2       1 UNK        -0.5000 
     67 C          -0.4208  -21.8516  -48.0464 C.2       11 UNK         0.5000 
     68 O          -0.2939  -22.7594  -48.8663 O.2       11 UNK        -0.5000 
     69 N          -1.5592  -21.1688  -47.8672 N.am      12 UNK        -0.5000 
     70 CA         -2.8073  -21.4327  -48.5772 C.3       12 UNK         0.1400 
     71 CB         -3.8387  -20.3539  -48.2288 C.3       12 UNK        -0.1800 
     72 C          -3.3610  -22.8398  -48.3029 C.2       12 UNK         0.5000 
     73 O          -3.7457  -23.5256  -49.2471 O.2       12 UNK        -0.5000 
     74 N          -3.3469  -23.2728  -47.0347 N.am      13 UNK        -0.5000 
     75 CA         -3.7345  -24.6232  -46.6226 C.3       13 UNK         0.1400 
     76 CB         -3.6993  -24.7342  -45.0914 C.3       13 UNK        -0.1800 
     77 C          -2.8686  -25.7154  -47.2793 C.2       13 UNK         0.5000 
     78 O          -3.4145  -26.6985  -47.7845 O.2       13 UNK        -0.5000 
     79 N          -1.5462  -25.4913  -47.3104 N.am      14 UNK        -0.5000 
     80 CA         -0.5723  -26.3417  -47.9975 C.3       14 UNK         0.1400 
     81 CB          0.8508  -25.8926  -47.6334 C.3       14 UNK        -0.1800 
     82 C          -0.7675  -26.3716  -49.5266 C.2       14 UNK         0.5000 
     83 O          -0.5854  -27.4251  -50.1390 O.2       14 UNK        -0.5000 
     84 N          -1.1842  -25.2412  -50.1138 N.am      15 UNK        -0.5000 
     85 CA         -1.5603  -25.0813  -51.5207 C.3       15 UNK         0.1400 
     86 CB         -1.4685  -23.5927  -51.9039 C.3       15 UNK        -0.1800 
     87 C          -2.9461  -25.6922  -51.8294 C.2       15 UNK         0.5000 
     88 O          -3.8459  -24.9955  -52.3058 O.2       15 UNK        -0.5000 
     89 N          -3.0761  -26.9968  -51.5489 N.am      16 UNK        -0.5000 
     90 CA         -4.2125  -27.8777  -51.8292 C.3       16 UNK         0.1400 
     91 CB         -4.2689  -28.1937  -53.3376 C.3       16 UNK        -0.1800 
     92 C          -5.5530  -27.3644  -51.2634 C.2       16 UNK         0.5000 
     93 O          -6.5618  -27.3709  -51.9712 O.2       16 UNK        -0.5000 
     94 N          -5.5308  -26.9329  -49.9923 N.am      17 UNK        -0.5000 
     95 CA         -6.6614  -26.3802  -49.2381 C.3       17 UNK         0.1400 
     96 CB         -7.7327  -27.4603  -48.9776 C.3       17 UNK        -0.1800 
     97 C          -7.2274  -25.0983  -49.8849 C.2       17 UNK         0.5000 
     98 O          -8.4335  -24.9920  -50.1154 O.2       17 UNK        -0.5000 
     99 N          -6.3215  -24.1508  -50.1566 N.am      18 UNK        -0.5000 
    100 CA        -6.5418  -22.8337  -50.7494 C.3       18 UNK         0.1400 
    101 CB        -7.3792  -21.9362  -49.8154 C.3       18 UNK        -0.1800 
    102 C         -7.0828  -22.9056  -52.1875 C.2       18 UNK         0.5000 
    103 O         -8.0870  -22.2653  -52.5073 O.2       18 UNK        -0.5000 
    104 N         -6.3887  -23.6661  -53.0443 N.am      19 UNK        -0.5000 
    105 CA        -6.6698  -23.7836  -54.4755 C.3       19 UNK         0.1400 
    106 CB        -5.9712  -25.0395  -55.0215 C.3       19 UNK        -0.1800 
    107 C         -6.2512  -22.5019  -55.2260 C.2       19 UNK         0.5000 
    108 O         -5.1701  -22.4538  -55.8152 O.2       19 UNK        -0.5000 
    109 N         -7.1094  -21.4744  -55.1427 N.am      20 UNK        -0.5000 
    110 CA        -6.9387  -20.1142  -55.6723 C.3       20 UNK         0.1400 
    111 CB        -6.8540  -20.1226  -57.2135 C.3       20 UNK        -0.1800 
    112 C         -5.7781  -19.3418  -55.0048 C.2       20 UNK         0.5000 
    113 O         -5.1596  -18.4827  -55.6365 O.2       20 UNK        -0.5000 
    114 N         -5.5089  -19.6621  -53.7333 N.am      21 UNK        -0.5000 
    115 CA        -4.4924  -19.0238  -52.8998 C.3       21 UNK         0.1400 
    116 CB        -3.9409  -20.0721  -51.9193 C.3       21 UNK        -0.1800 
    117 C         -5.0655  -17.8095  -52.1419 C.2       21 UNK         0.5000 
    118 O         -6.2639  -17.5251  -52.2199 O.2       21 UNK        -0.5000 
    119 N         -4.1818  -17.1217  -51.4125 N.am      22 UNK        -0.5000 
    120 CA        -4.4896  -16.0137  -50.4962 C.3       22 UNK         0.1400 
    121 C         -5.3266  -16.4263  -49.2488 C.2       22 UNK         0.5000 
    122 N         -5.9098  -15.4643  -48.5454 N.am      22 UNK        -0.7600 
    123 O         -5.4547  -17.5973  -48.9033 O.2       22 UNK        -0.5000 
    124 C124       -3.2061  -15.2210  -50.1149 C.3       23 UNK        -0.0398 
    125 S125       -1.7593  -16.2510  -49.6611 S.3       23 UNK        -0.2404 
    126 C126       -0.8190  -16.1546  -51.2204 C.3       23 UNK        -0.0205 
    127 H127        2.2448  -15.4185  -46.9706 H         1 UNK         0.0600 
    128 H128        1.0986  -15.8083  -48.2604 H         1 UNK         0.0600 
    129 H129        2.7733  -16.3455  -48.3792 H         1 UNK         0.0600 
    130 H130        3.8992  -15.1371  -49.8523 H         1 UNK         0.3000 
    131 H131        2.9922  -12.6893  -50.9461 H         1 UNK         0.0600 
    132 H132        5.2615  -12.7205  -52.1317 H         1 UNK         0.0800 
    133 H133        5.6832  -14.1414  -51.2232 H         1 UNK         0.0800 
    134 H134        4.9608  -16.3446  -51.5731 H         1 UNK         0.0800 
    135 H135        4.4889  -16.8924  -53.1565 H         1 UNK         0.0800 
    136 H136        1.5729  -15.2298  -52.0143 H         1 UNK         0.1150 
    137 H137       -0.2857  -18.7311  -50.4159 H         1 UNK         0.1150 
    138 H138        3.8921  -18.7813  -51.3653 H         1 UNK         0.1150 
    139 H139        0.9139  -20.8214  -50.3962 H         1 UNK         0.0800 
    140 H140        2.4411  -20.9104  -51.2216 H         1 UNK         0.0800 
    141 H141        0.8201  -19.4615  -48.0185 H         1 UNK         0.0800 
    142 H142        2.0299  -19.7435  -46.8070 H         1 UNK         0.0800 
    143 H143        1.4569  -22.3260  -47.1477 H         1 UNK         0.0600 
    144 H144        0.4533  -20.4568  -45.2917 H         1 UNK         0.3000 
    145 H145       -1.4246  -22.7743  -43.2975 H         1 UNK         0.0600 
    146 H146        0.0327  -21.7475  -41.5709 H         1 UNK         0.0600 
    147 H147        0.9327  -22.9140  -42.5289 H         1 UNK         0.0600 
    148 H148        1.1543  -21.1933  -42.8110 H         1 UNK         0.0600 
    149 H149       -1.0356  -19.9602  -43.0641 H         1 UNK         0.3000 
    150 H150       -3.8360  -18.9891  -45.1083 H         1 UNK         0.0600 
    151 H151       -4.7326  -19.5061  -42.8340 H         1 UNK         0.0600 
    152 H152       -4.4055  -17.7906  -43.0254 H         1 UNK         0.0600 
    153 H153       -3.2985  -18.8009  -42.0986 H         1 UNK         0.0600 
    154 H154       -1.9816  -17.3909  -43.6979 H         1 UNK         0.3000 
    155 H155        0.5163  -17.1863  -46.2850 H         1 UNK         0.0600 
    156 H156       -1.4533  -15.2011  -45.0258 H         1 UNK         0.0600 
    157 H157       -1.1981  -15.4515  -46.7462 H         1 UNK         0.0600 
    158 H158        0.0906  -14.7772  -45.7599 H         1 UNK         0.0600 
    159 H159        0.5077  -16.1005  -43.6691 H         1 UNK         0.3000 
    160 H160        1.9350  -18.9092  -41.9583 H         1 UNK         0.0600 
    161 H161        3.5375  -17.1575  -41.3005 H         1 UNK         0.0600 
    162 H162        2.9838  -16.1085  -42.6020 H         1 UNK         0.0600 
    163 H163        3.8214  -17.6100  -42.9752 H         1 UNK         0.0600 
    164 H164        0.9967  -16.2703  -41.2071 H         1 UNK         0.3000 
    165 H165       -2.2608  -17.3008  -40.2114 H         1 UNK         0.0600 
    166 H166       -1.5002  -16.3686  -38.0446 H         1 UNK         0.0600 
    167 H167       -0.7971  -17.9581  -38.2967 H         1 UNK         0.0600 
    168 H168        0.1870  -16.5192  -38.5365 H         1 UNK         0.0600 
    169 H169       -0.8322  -14.8178  -40.0223 H         1 UNK         0.3000 
    170 H170       -1.7545  -13.5488  -43.2238 H         1 UNK         0.0600 
    171 H171       -3.7762  -13.1920  -41.7935 H         1 UNK         0.0600 
    172 H172       -2.7456  -12.7952  -40.4236 H         1 UNK         0.0600 
    173 H173       -2.7631  -11.7590  -41.8512 H         1 UNK         0.0600 
    174 H174       -0.4058  -12.2314  -41.1634 H         1 UNK         0.3000 
    175 H175        1.8474  -11.6615  -41.7220 H         1 UNK         0.0600 
    176 H176        2.5759  -14.1912  -40.1307 H         1 UNK         0.0600 
    177 H177        3.2168  -12.5752  -39.8358 H         1 UNK         0.0600 
    178 H178        1.5151  -12.9051  -39.5685 H         1 UNK         0.0600 
    179 H179        3.9585  -13.5696  -42.0482 H         1 UNK         0.3000 
    180 H180        5.5445  -12.8241  -43.7809 H         1 UNK         0.0600 
    181 H181        3.8253  -14.9966  -45.1167 H         1 UNK         0.0600 
    182 H182        4.8110  -15.1523  -43.6648 H         1 UNK         0.0600 
    183 H183        5.5850  -14.9608  -45.2218 H         1 UNK         0.0600 
    184 H184        3.9939  -12.2037  -46.1737 H         1 UNK         0.3000 
    185 H185        5.3663  -10.5459  -47.5519 H         1 UNK         0.0600 
    186 H186        7.8718  -10.4461  -47.6082 H         1 UNK         0.0600 
    187 H187        7.9257  -11.9993  -48.4362 H         1 UNK         0.0600 
    188 H188        7.2133  -10.5950  -49.2276 H         1 UNK         0.0600 
    189 H189        5.2218  -13.3453  -48.3031 H         1 UNK         0.3000 
    190 H190       -1.5670  -20.3906  -47.2108 H         1 UNK         0.3000 
    191 H191       -2.5942  -21.3642  -49.6445 H         1 UNK         0.0600 
    192 H192       -4.0771  -20.3467  -47.1662 H         1 UNK         0.0600 
    193 H193       -4.7719  -20.5094  -48.7700 H         1 UNK         0.0600 
    194 H194       -3.4686  -19.3633  -48.4937 H         1 UNK         0.0600 
    195 H195       -3.0673  -22.6300  -46.2980 H         1 UNK         0.3000 
    196 H196       -4.7652  -24.7774  -46.9454 H         1 UNK         0.0600 
    197 H197       -4.0163  -25.7253  -44.7648 H         1 UNK         0.0600 
    198 H198       -4.3692  -24.0092  -44.6287 H         1 UNK         0.0600 
    199 H199       -2.6983  -24.5629  -44.6958 H         1 UNK         0.0600 
    200 H200       -1.1806  -24.6670  -46.8435 H         1 UNK         0.3000 
    201 H201       -0.7082  -27.3610  -47.6303 H         1 UNK         0.0600 
    202 H202        1.0136  -25.9345  -46.5563 H         1 UNK         0.0600 
    203 H203        1.0495  -24.8722  -47.9606 H         1 UNK         0.0600 
    204 H204        1.5953  -26.5379  -48.1011 H         1 UNK         0.0600 
    205 H205       -1.2688  -24.4101  -49.5381 H         1 UNK         0.3000 
    206 H206       -0.8327  -25.6190  -52.1317 H         1 UNK         0.0600 
    207 H207       -0.4737  -23.1936  -51.7054 H         1 UNK         0.0600 
    208 H208       -1.6710  -23.4492  -52.9658 H         1 UNK         0.0600 
    209 H209       -2.1869  -22.9892  -51.3510 H         1 UNK         0.0600 
    210 H210       -2.2730  -27.4425  -51.1147 H         1 UNK         0.3000 
    211 H211       -4.0091  -28.8141  -51.3078 H         1 UNK         0.0600 
    212 H212       -4.4404  -27.2965  -53.9308 H         1 UNK         0.0600 
    213 H213       -5.0691  -28.8989  -53.5652 H         1 UNK         0.0600 
    214 H214       -3.3367  -28.6437  -53.6788 H         1 UNK         0.0600 
    215 H215       -4.6475  -26.9488  -49.4929 H         1 UNK         0.3000 
    216 H216       -6.2643  -26.0823  -48.2677 H         1 UNK         0.0600 
    217 H217       -8.5145  -27.0809  -48.3187 H         1 UNK         0.0600 
    218 H218       -7.2992  -28.3360  -48.4946 H         1 UNK         0.0600 
    219 H219       -8.2148  -27.7891  -49.8985 H         1 UNK         0.0600 
    220 H220       -5.3471  -24.3332  -49.9302 H         1 UNK         0.3000 
    221 H221       -5.5531  -22.3849  -50.8295 H         1 UNK         0.0600 
    222 H222       -8.4034  -22.2965  -49.7155 H         1 UNK         0.0600 
    223 H223       -6.9412  -21.8894  -48.8184 H         1 UNK         0.0600 
    224 H224       -7.4268  -20.9154  -50.1967 H         1 UNK         0.0600 
    225 H225       -5.5560  -24.1481  -52.7122 H         1 UNK         0.3000 
    226 H226       -7.7445  -23.9204  -54.6131 H         1 UNK         0.0600 
    227 H227       -6.3423  -25.9368  -54.5262 H         1 UNK         0.0600 
    228 H228       -6.1561  -25.1571  -56.0898 H         1 UNK         0.0600 
    229 H229       -4.8911  -24.9973  -54.8763 H         1 UNK         0.0600 
    230 H230       -7.9258  -21.6116  -54.5570 H         1 UNK         0.3000 
    231 H231       -7.8463  -19.5730  -55.4015 H         1 UNK         0.0600 
    232 H232       -7.6875  -20.6716  -57.6514 H         1 UNK         0.0600 
    233 H233       -5.9286  -20.5774  -57.5676 H         1 UNK         0.0600 
    234 H234       -6.8907  -19.1082  -57.6121 H         1 UNK         0.0600 
    235 H235       -6.1084  -20.3340  -53.2794 H         1 UNK         0.3000 
    236 H236       -3.6710  -18.6774  -53.5308 H         1 UNK         0.0600 
    237 H237       -3.0549  -19.7001  -51.4037 H         1 UNK         0.0600 
    238 H238       -4.6787  -20.3240  -51.1591 H         1 UNK         0.0600 
    239 H239       -3.6529  -20.9905  -52.4322 H         1 UNK         0.0600 
    240 H240       -3.2313  -17.4546  -51.3598 H         1 UNK         0.3000 
    241 H241       -5.1311  -15.3303  -51.0562 H         1 UNK         0.0600 
    242 H242       -6.4536  -15.7191  -47.7358 H         1 UNK         0.3800 
    243 H243       -5.8391  -14.4931  -48.8063 H         1 UNK         0.3800 
    244 H244       -2.9301  -14.5819  -50.9543 H         1 UNK         0.0800 
    245 H245       -3.3983  -14.5278  -49.2945 H         1 UNK         0.0800 
    246 H246       -1.4175  -16.5619  -52.0355 H         1 UNK         0.0800 
    247 H247       -0.6574  -15.1012  -51.4548 H         1 UNK         0.0800 
@<TRIPOS>BOND
     1    1    2 1    
     2    1  127 1    
     3    1  128 1    
     4    1  129 1    
     5    2    3 2    
     6    2    4 am   BACKBONE|DICT|INTERRES
     7    4    5 1    
     8    4  130 1    
     9    5    6 1    
    10    5   65 1    
    11    5  131 1    
    12    6    7 1    
    13    6  132 1    
    14    6  133 1    
    15    7    8 1    
    16    8    9 1    
    17    8  134 1    
    18    8  135 1    
    19    9   10 ar   
    20    9   14 ar   
    21   10   11 ar   
    22   10  136 1    
    23   11   12 ar   
    24   11  126 1    
    25   12   13 ar   
    26   12  137 1    
    27   13   14 ar   
    28   13   15 1    
    29   14  138 1    
    30   15   16 1    
    31   15  139 1    
    32   15  140 1    
    33   16   17 1    
    34   17   18 1    
    35   17  141 1    
    36   17  142 1    
    37   18   19 1    
    38   18   67 1    
    39   18  143 1    
    40   19   20 am   BACKBONE|DICT|INTERRES
    41   19  144 1    
    42   20   21 2    
    43   20   22 1    
    44   22   23 1    
    45   22   24 1    
    46   22  145 1    
    47   23  146 1    
    48   23  147 1    
    49   23  148 1    
    50   24   25 am   BACKBONE|DICT|INTERRES
    51   24  149 1    
    52   25   26 2    
    53   25   27 1    
    54   27   28 1    
    55   27   29 1    
    56   27  150 1    
    57   28  151 1    
    58   28  152 1    
    59   28  153 1    
    60   29   30 am   BACKBONE|DICT|INTERRES
    61   29  154 1    
    62   30   31 2    
    63   30   32 1    
    64   32   33 1    
    65   32   34 1    
    66   32  155 1    
    67   33  156 1    
    68   33  157 1    
    69   33  158 1    
    70   34   35 am   BACKBONE|DICT|INTERRES
    71   34  159 1    
    72   35   36 2    
    73   35   37 1    
    74   37   38 1    
    75   37   39 1    
    76   37  160 1    
    77   38  161 1    
    78   38  162 1    
    79   38  163 1    
    80   39   40 am   BACKBONE|DICT|INTERRES
    81   39  164 1    
    82   40   41 2    
    83   40   42 1    
    84   42   43 1    
    85   42   44 1    
    86   42  165 1    
    87   43  166 1    
    88   43  167 1    
    89   43  168 1    
    90   44   45 am   BACKBONE|DICT|INTERRES
    91   44  169 1    
    92   45   46 2    
    93   45   47 1    
    94   47   48 1    
    95   47   49 1    
    96   47  170 1    
    97   48  171 1    
    98   48  172 1    
    99   48  173 1    
   100   49   50 am   BACKBONE|DICT|INTERRES
   101   49  174 1    
   102   50   51 2    
   103   50   52 1    
   104   52   53 1    
   105   52   54 1    
   106   52  175 1    
   107   53  176 1    
   108   53  177 1    
   109   53  178 1    
   110   54   55 am   BACKBONE|DICT|INTERRES
   111   54  179 1    
   112   55   56 2    
   113   55   57 1    
   114   57   58 1    
   115   57   59 1    
   116   57  180 1    
   117   58  181 1    
   118   58  182 1    
   119   58  183 1    
   120   59   60 am   BACKBONE|DICT|INTERRES
   121   59  184 1    
   122   60   61 2    
   123   60   62 1    
   124   62   63 1    
   125   62   64 1    
   126   62  185 1    
   127   63  186 1    
   128   63  187 1    
   129   63  188 1    
   130   64   65 am   BACKBONE|DICT|INTERRES
   131   64  189 1    
   132   65   66 2    
   133   67   68 2    
   134   67   69 am   BACKBONE|DICT|INTERRES
   135   69   70 1    
   136   69  190 1    
   137   70   71 1    
   138   70   72 1    
   139   70  191 1    
   140   71  192 1    
   141   71  193 1    
   142   71  194 1    
   143   72   73 2    
   144   72   74 am   BACKBONE|DICT|INTERRES
   145   74   75 1    
   146   74  195 1    
   147   75   76 1    
   148   75   77 1    
   149   75  196 1    
   150   76  197 1    
   151   76  198 1    
   152   76  199 1    
   153   77   78 2    
   154   77   79 am   BACKBONE|DICT|INTERRES
   155   79   80 1    
   156   79  200 1    
   157   80   81 1    
   158   80   82 1    
   159   80  201 1    
   160   81  202 1    
   161   81  203 1    
   162   81  204 1    
   163   82   83 2    
   164   82   84 am   BACKBONE|DICT|INTERRES
   165   84   85 1    
   166   84  205 1    
   167   85   86 1    
   168   85   87 1    
   169   85  206 1    
   170   86  207 1    
   171   86  208 1    
   172   86  209 1    
   173   87   88 2    
   174   87   89 am   BACKBONE|DICT|INTERRES
   175   89   90 1    
   176   89  210 1    
   177   90   91 1    
   178   90   92 1    
   179   90  211 1    
   180   91  212 1    
   181   91  213 1    
   182   91  214 1    
   183   92   93 2    
   184   92   94 am   BACKBONE|DICT|INTERRES
   185   94   95 1    
   186   94  215 1    
   187   95   96 1    
   188   95   97 1    
   189   95  216 1    
   190   96  217 1    
   191   96  218 1    
   192   96  219 1    
   193   97   98 2    
   194   97   99 am   BACKBONE|DICT|INTERRES
   195   99  100 1    
   196   99  220 1    
   197  100  101 1    
   198  100  102 1    
   199  100  221 1    
   200  101  222 1    
   201  101  223 1    
   202  101  224 1    
   203  102  103 2    
   204  102  104 am   BACKBONE|DICT|INTERRES
   205  104  105 1    
   206  104  225 1    
   207  105  106 1    
   208  105  107 1    
   209  105  226 1    
   210  106  227 1    
   211  106  228 1    
   212  106  229 1    
   213  107  108 2    
   214  107  109 am   BACKBONE|DICT|INTERRES
   215  109  110 1    
   216  109  230 1    
   217  110  111 1    
   218  110  112 1    
   219  110  231 1    
   220  111  232 1    
   221  111  233 1    
   222  111  234 1    
   223  112  113 2    
   224  112  114 am   BACKBONE|DICT|INTERRES
   225  114  115 1    
   226  114  235 1    
   227  115  116 1    
   228  115  117 1    
   229  115  236 1    
   230  116  237 1    
   231  116  238 1    
   232  116  239 1    
   233  117  118 2    
   234  117  119 am   BACKBONE|DICT|INTERRES
   235  119  120 1    
   236  119  240 1    
   237  120  121 1    
   238  120  124 1    
   239  120  241 1    
   240  121  122 am   BACKBONE|DICT|INTERRES
   241  121  123 2    
   242  122  242 1    
   243  122  243 1    
   244  124  125 1    
   245  124  244 1    
   246  124  245 1    
   247  125  126 1    
   248  126  246 1    
   249  126  247 1    
@<TRIPOS>SUBSTRUCTURE
     1 UNK         1 GROUP             0       ****    0 ROOT    
