@<TRIPOS>MOLECULE
3R540
247   249    1
SMALL
USER_CHARGES


@<TRIPOS>ATOM
      1 CA         -3.5045  -13.2051  -50.9007 C.3       0 UNK        -0.1800 
      2 C          -4.2054  -14.2182  -49.9970 C.2       0 UNK         0.5000 
      3 O          -5.3879  -14.4843  -50.1949 O.2       0 UNK        -0.5000 
      4 N          -3.5376  -14.8026  -48.9916 N.am      1 UNK        -0.5000 
      5 CA         -2.1723  -14.5090  -48.5281 C.3       1 UNK         0.1400 
      6 C6         -1.6781  -15.5822  -47.5316 C.3       23 UNK        -0.0398 
      7 S7         -1.4387  -17.2054  -48.3282 S.3       23 UNK        -0.2404 
      8 C8          0.3764  -17.2637  -48.4345 C.3       23 UNK        -0.0205 
      9 C9          0.8652  -18.3539  -49.3789 C.ar      23 UNK        -0.0193 
     10 C10         0.8839  -18.1209  -50.7574 C.ar      23 UNK        -0.1150 
     11 C11         1.3775  -19.0857  -51.6397 C.ar      23 UNK        -0.0193 
     12 C12         1.8653  -20.2892  -51.1217 C.ar      23 UNK        -0.1150 
     13 C13         1.8578  -20.5468  -49.7476 C.ar      23 UNK        -0.0193 
     14 C14         1.3462  -19.5696  -48.8796 C.ar      23 UNK        -0.1150 
     15 C15         2.4412  -21.8844  -49.2809 C.3       23 UNK        -0.0205 
     16 S16         2.6482  -22.1054  -47.4805 S.3       23 UNK        -0.2404 
     17 C17         0.9547  -22.5560  -46.9724 C.3       23 UNK        -0.0398 
     18 CA          0.9340  -23.5072  -45.7493 C.3       11 UNK         0.1400 
     19 N           1.5202  -22.8844  -44.5644 N.am      11 UNK        -0.5000 
     20 C           2.0597  -23.5255  -43.5223 C.2       10 UNK         0.5000 
     21 O           2.1162  -24.7533  -43.4311 O.2       10 UNK        -0.5000 
     22 CA          2.6150  -22.6448  -42.3884 C.3       10 UNK         0.1400 
     23 CB          3.9792  -22.0523  -42.7746 C.3       10 UNK        -0.1800 
     24 N           1.6994  -21.5629  -42.0247 N.am      10 UNK        -0.5000 
     25 C           0.5394  -21.7402  -41.3765 C.2       9 UNK         0.5000 
     26 O           0.1392  -22.8341  -40.9764 O.2       9 UNK        -0.5000 
     27 CA         -0.3215  -20.4869  -41.1321 C.3       9 UNK         0.1400 
     28 CB          0.1518  -19.7394  -39.8762 C.3       9 UNK        -0.1800 
     29 N          -0.3222  -19.5690  -42.2697 N.am      9 UNK        -0.5000 
     30 C          -0.8924  -19.8239  -43.4558 C.2       8 UNK         0.5000 
     31 O          -1.5366  -20.8426  -43.7019 O.2       8 UNK        -0.5000 
     32 CA         -0.6904  -18.7651  -44.5573 C.3       8 UNK         0.1400 
     33 CB         -1.7106  -17.6300  -44.3910 C.3       8 UNK        -0.1800 
     34 N           0.6639  -18.2046  -44.5745 N.am      8 UNK        -0.5000 
     35 C           1.7804  -18.9227  -44.7609 C.2       7 UNK         0.5000 
     36 O           1.7843  -20.1346  -44.9502 O.2       7 UNK        -0.5000 
     37 CA          3.1208  -18.1812  -44.6553 C.3       7 UNK         0.1400 
     38 CB          3.4597  -17.4561  -45.9656 C.3       7 UNK        -0.1800 
     39 N           3.1203  -17.2385  -43.5388 N.am      7 UNK        -0.5000 
     40 C           3.1249  -17.6068  -42.2491 C.2       6 UNK         0.5000 
     41 O           3.1991  -18.7763  -41.8705 O.2       6 UNK        -0.5000 
     42 CA          2.9678  -16.4787  -41.2134 C.3       6 UNK         0.1400 
     43 CB          4.3186  -15.8034  -40.9336 C.3       6 UNK        -0.1800 
     44 N           1.9957  -15.4688  -41.6367 N.am      6 UNK        -0.5000 
     45 C           0.6824  -15.6990  -41.7773 C.2       5 UNK         0.5000 
     46 O           0.1480  -16.7750  -41.5123 O.2       5 UNK        -0.5000 
     47 CA         -0.1693  -14.5513  -42.3491 C.3       5 UNK         0.1400 
     48 CB         -0.7046  -13.6581  -41.2210 C.3       5 UNK        -0.1800 
     49 N           0.5464  -13.7217  -43.3196 N.am      5 UNK        -0.5000 
     50 C           1.0084  -14.1345  -44.5064 C.2       4 UNK         0.5000 
     51 O           0.9183  -15.3003  -44.8951 O.2       4 UNK        -0.5000 
     52 CA          1.6753  -13.0605  -45.3931 C.3       4 UNK         0.1400 
     53 CB          2.0734  -13.5909  -46.7820 C.3       4 UNK        -0.1800 
     54 N           0.8212  -11.8805  -45.5559 N.am      4 UNK        -0.5000 
     55 C           0.6986  -10.8897  -44.6598 C.2       3 UNK         0.5000 
     56 O           1.3058  -10.8745  -43.5880 O.2       3 UNK        -0.5000 
     57 CA         -0.2743   -9.7392  -44.9839 C.3       3 UNK         0.1400 
     58 CB          0.4915   -8.5350  -45.5528 C.3       3 UNK        -0.1800 
     59 N          -1.3383  -10.1075  -45.9175 N.am      3 UNK        -0.5000 
     60 C          -2.3352  -10.9640  -45.6582 C.2       2 UNK         0.5000 
     61 O          -2.4784  -11.5426  -44.5802 O.2       2 UNK        -0.5000 
     62 CA         -3.3386  -11.2370  -46.7983 C.3       2 UNK         0.1400 
     63 CB         -3.3213  -10.1735  -47.9199 C.3       2 UNK        -0.1800 
     64 N          -3.1717  -12.5746  -47.3734 N.am      2 UNK        -0.5000 
     65 C          -2.0535  -13.1039  -47.8961 C.2       1 UNK         0.5000 
     66 O          -0.9663  -12.5261  -47.9205 O.2       1 UNK        -0.5000 
     67 C          -0.4889  -24.0153  -45.4415 C.2       11 UNK         0.5000 
     68 O          -1.4683  -23.4647  -45.9411 O.2       11 UNK        -0.5000 
     69 N          -0.5877  -25.0802  -44.6367 N.am      12 UNK        -0.5000 
     70 CA         -1.8469  -25.7738  -44.3476 C.3       12 UNK         0.1400 
     71 CB         -1.6155  -26.7755  -43.2068 C.3       12 UNK        -0.1800 
     72 C          -2.4412  -26.4839  -45.5837 C.2       12 UNK         0.5000 
     73 O          -3.6565  -26.6751  -45.6513 O.2       12 UNK        -0.5000 
     74 N          -1.5703  -26.8524  -46.5350 N.am      13 UNK        -0.5000 
     75 CA         -1.8885  -27.5150  -47.7969 C.3       13 UNK         0.1400 
     76 CB         -0.5817  -27.7967  -48.5550 C.3       13 UNK        -0.1800 
     77 C          -2.8587  -26.6979  -48.6701 C.2       13 UNK         0.5000 
     78 O          -2.5179  -25.5929  -49.1037 O.2       13 UNK        -0.5000 
     79 N          -4.0465  -27.2738  -48.9037 N.am      14 UNK        -0.5000 
     80 CA         -5.1241  -26.7778  -49.7660 C.3       14 UNK         0.1400 
     81 CB         -4.7121  -26.9069  -51.2479 C.3       14 UNK        -0.1800 
     82 C          -5.6126  -25.3584  -49.4085 C.2       14 UNK         0.5000 
     83 O          -5.9619  -24.5965  -50.3092 O.2       14 UNK        -0.5000 
     84 N          -5.6084  -25.0210  -48.1087 N.am      15 UNK        -0.5000 
     85 CA         -5.9432  -23.7042  -47.5495 C.3       15 UNK         0.1400 
     86 CB         -7.4478  -23.4037  -47.7171 C.3       15 UNK        -0.1800 
     87 C          -5.0381  -22.5935  -48.1236 C.2       15 UNK         0.5000 
     88 O          -5.5267  -21.6255  -48.7116 O.2       15 UNK        -0.5000 
     89 N          -3.7225  -22.8013  -47.9778 N.am      16 UNK        -0.5000 
     90 CA         -2.6310  -21.9711  -48.4898 C.3       16 UNK         0.1400 
     91 CB         -2.5596  -20.6293  -47.7370 C.3       16 UNK        -0.1800 
     92 C          -2.6860  -21.8218  -50.0176 C.2       16 UNK         0.5000 
     93 O          -2.6944  -20.7025  -50.5314 O.2       16 UNK        -0.5000 
     94 N          -2.7588  -22.9743  -50.7024 N.am      17 UNK        -0.5000 
     95 CA         -2.8574  -23.1195  -52.1577 C.3       17 UNK         0.1400 
     96 CB         -1.5258  -22.7161  -52.8231 C.3       17 UNK        -0.1800 
     97 C          -4.0714  -22.3647  -52.7381 C.2       17 UNK         0.5000 
     98 O          -3.9144  -21.5392  -53.6379 O.2       17 UNK        -0.5000 
     99 N          -5.2554  -22.6414  -52.1725 N.am      18 UNK        -0.5000 
    100 CA        -6.5531  -22.0339  -52.4766 C.3       18 UNK         0.1400 
    101 CB        -7.0578  -22.5034  -53.8564 C.3       18 UNK        -0.1800 
    102 C         -6.5397  -20.5000  -52.3165 C.2       18 UNK         0.5000 
    103 O         -6.9992  -19.7820  -53.2063 O.2       18 UNK        -0.5000 
    104 N         -5.9942  -20.0400  -51.1804 N.am      19 UNK        -0.5000 
    105 CA        -5.7632  -18.6418  -50.8122 C.3       19 UNK         0.1400 
    106 CB        -7.0998  -17.9075  -50.5779 C.3       19 UNK        -0.1800 
    107 C         -4.8354  -17.9231  -51.8138 C.2       19 UNK         0.5000 
    108 O         -5.2400  -16.9549  -52.4604 O.2       19 UNK        -0.5000 
    109 N         -3.6001  -18.4310  -51.9148 N.am      20 UNK        -0.5000 
    110 CA        -2.4835  -17.9011  -52.6988 C.3       20 UNK         0.1400 
    111 CB        -2.0598  -16.5124  -52.1745 C.3       20 UNK        -0.1800 
    112 C         -2.7227  -17.8987  -54.2217 C.2       20 UNK         0.5000 
    113 O         -2.2130  -17.0168  -54.9162 O.2       20 UNK        -0.5000 
    114 N         -3.4325  -18.9071  -54.7461 N.am      21 UNK        -0.5000 
    115 CA        -3.6425  -19.1240  -56.1825 C.3       21 UNK         0.1400 
    116 CB        -4.9759  -19.8626  -56.3924 C.3       21 UNK        -0.1800 
    117 C         -2.4425  -19.8615  -56.8207 C.2       21 UNK         0.5000 
    118 O         -2.6227  -20.8072  -57.5907 O.2       21 UNK        -0.5000 
    119 N         -1.2329  -19.4289  -56.4550 N.am      22 UNK        -0.5000 
    120 CA         0.0555  -20.0040  -56.8495 C.3       22 UNK         0.1400 
    121 C          0.4529  -19.6203  -58.3004 C.2       22 UNK         0.5000 
    122 N          1.1440  -20.5002  -59.0121 N.am      22 UNK        -0.7600 
    123 O          0.1779  -18.5200  -58.7751 O.2       22 UNK        -0.5000 
    124 C124        1.1660  -19.6029  -55.8450 C.3       23 UNK        -0.0398 
    125 S125        0.7977  -20.1761  -54.1494 S.3       23 UNK        -0.2404 
    126 C126        1.4390  -18.8006  -53.1390 C.3       23 UNK        -0.0205 
    127 H127       -4.0549  -13.0910  -51.8348 H         1 UNK         0.0600 
    128 H128       -2.4936  -13.5189  -51.1575 H         1 UNK         0.0600 
    129 H129       -3.4584  -12.2289  -50.4185 H         1 UNK         0.0600 
    130 H130       -4.0238  -15.5009  -48.4484 H         1 UNK         0.3000 
    131 H131       -1.5024  -14.5259  -49.3894 H         1 UNK         0.0600 
    132 H132       -2.4043  -15.6972  -46.7263 H         1 UNK         0.0800 
    133 H133       -0.7434  -15.2851  -47.0543 H         1 UNK         0.0800 
    134 H134        0.7538  -16.2988  -48.7769 H         1 UNK         0.0800 
    135 H135        0.7806  -17.4144  -47.4334 H         1 UNK         0.0800 
    136 H136        0.5303  -17.1743  -51.1385 H         1 UNK         0.1150 
    137 H137        2.2677  -21.0311  -51.7974 H         1 UNK         0.1150 
    138 H138        1.3378  -19.7316  -47.8124 H         1 UNK         0.1150 
    139 H139        1.8366  -22.6988  -49.6823 H         1 UNK         0.0800 
    140 H140        3.4292  -21.9955  -49.7301 H         1 UNK         0.0800 
    141 H141        0.4675  -23.0390  -47.8199 H         1 UNK         0.0800 
    142 H142        0.3903  -21.6452  -46.7653 H         1 UNK         0.0800 
    143 H143        1.5332  -24.3824  -46.0102 H         1 UNK         0.0600 
    144 H144        1.5443  -21.8656  -44.5777 H         1 UNK         0.3000 
    145 H145        2.7596  -23.2799  -41.5119 H         1 UNK         0.0600 
    146 H146        4.6900  -22.8404  -43.0257 H         1 UNK         0.0600 
    147 H147        3.9031  -21.3913  -43.6385 H         1 UNK         0.0600 
    148 H148        4.4060  -21.4778  -41.9522 H         1 UNK         0.0600 
    149 H149        1.9693  -20.6256  -42.2966 H         1 UNK         0.3000 
    150 H150       -1.3488  -20.8166  -40.9637 H         1 UNK         0.0600 
    151 H151        0.1504  -20.3964  -39.0056 H         1 UNK         0.0600 
    152 H152       -0.5025  -18.8972  -39.6497 H         1 UNK         0.0600 
    153 H153        1.1643  -19.3521  -39.9955 H         1 UNK         0.0600 
    154 H154        0.1200  -18.6661  -42.1277 H         1 UNK         0.3000 
    155 H155       -0.8540  -19.2394  -45.5270 H         1 UNK         0.0600 
    156 H156       -1.4553  -16.7763  -45.0131 H         1 UNK         0.0600 
    157 H157       -1.7640  -17.2775  -43.3611 H         1 UNK         0.0600 
    158 H158       -2.7094  -17.9633  -44.6745 H         1 UNK         0.0600 
    159 H159        0.7460  -17.1978  -44.4696 H         1 UNK         0.3000 
    160 H160        3.9001  -18.9247  -44.4741 H         1 UNK         0.0600 
    161 H161        2.7197  -16.6968  -46.2117 H         1 UNK         0.0600 
    162 H162        3.4948  -18.1589  -46.7994 H         1 UNK         0.0600 
    163 H163        4.4336  -16.9701  -45.9078 H         1 UNK         0.0600 
    164 H164        3.0006  -16.2630  -43.7669 H         1 UNK         0.3000 
    165 H165        2.6102  -16.9272  -40.2840 H         1 UNK         0.0600 
    166 H166        4.2288  -15.0533  -40.1477 H         1 UNK         0.0600 
    167 H167        5.0576  -16.5338  -40.6013 H         1 UNK         0.0600 
    168 H168        4.7180  -15.3131  -41.8223 H         1 UNK         0.0600 
    169 H169        2.3527  -14.5543  -41.8709 H         1 UNK         0.3000 
    170 H170       -1.0227  -14.9977  -42.8627 H         1 UNK         0.0600 
    171 H171       -1.2658  -14.2438  -40.4916 H         1 UNK         0.0600 
    172 H172        0.1029  -13.1543  -40.6883 H         1 UNK         0.0600 
    173 H173       -1.3779  -12.8941  -41.6109 H         1 UNK         0.0600 
    174 H174        0.6724  -12.7432  -43.0847 H         1 UNK         0.3000 
    175 H175        2.5955  -12.7600  -44.8879 H         1 UNK         0.0600 
    176 H176        2.5281  -12.8066  -47.3873 H         1 UNK         0.0600 
    177 H177        2.8044  -14.3946  -46.6980 H         1 UNK         0.0600 
    178 H178        1.2174  -13.9805  -47.3315 H         1 UNK         0.0600 
    179 H179        0.2410  -11.8611  -46.3886 H         1 UNK         0.3000 
    180 H180       -0.7416   -9.4339  -44.0453 H         1 UNK         0.0600 
    181 H181        0.9649   -8.7735  -46.5061 H         1 UNK         0.0600 
    182 H182        1.2767   -8.2118  -44.8680 H         1 UNK         0.0600 
    183 H183       -0.1711   -7.6836  -45.7095 H         1 UNK         0.0600 
    184 H184       -1.2852   -9.7052  -46.8420 H         1 UNK         0.3000 
    185 H185       -4.3293  -11.2146  -46.3418 H         1 UNK         0.0600 
    186 H186       -3.4670   -9.1710  -47.5153 H         1 UNK         0.0600 
    187 H187       -2.3865  -10.1757  -48.4815 H         1 UNK         0.0600 
    188 H188       -4.1287  -10.3496  -48.6308 H         1 UNK         0.0600 
    189 H189       -4.0043  -13.1469  -47.3827 H         1 UNK         0.3000 
    190 H190        0.2562  -25.4361  -44.2017 H         1 UNK         0.3000 
    191 H191       -2.5748  -25.0325  -44.0109 H         1 UNK         0.0600 
    192 H192       -0.8808  -27.5341  -43.4798 H         1 UNK         0.0600 
    193 H193       -1.2605  -26.2722  -42.3071 H         1 UNK         0.0600 
    194 H194       -2.5405  -27.2918  -42.9465 H         1 UNK         0.0600 
    195 H195       -0.5979  -26.6329  -46.3834 H         1 UNK         0.3000 
    196 H196       -2.3502  -28.4745  -47.5551 H         1 UNK         0.0600 
    197 H197       -0.7806  -28.3021  -49.5010 H         1 UNK         0.0600 
    198 H198        0.0804  -28.4412  -47.9764 H         1 UNK         0.0600 
    199 H199       -0.0411  -26.8768  -48.7823 H         1 UNK         0.0600 
    200 H200       -4.2326  -28.1625  -48.4596 H         1 UNK         0.3000 
    201 H201       -5.9782  -27.4364  -49.6031 H         1 UNK         0.0600 
    202 H202       -4.4217  -27.9298  -51.4872 H         1 UNK         0.0600 
    203 H203       -3.8717  -26.2569  -51.4903 H         1 UNK         0.0600 
    204 H204       -5.5353  -26.6430  -51.9130 H         1 UNK         0.0600 
    205 H205       -5.2719  -25.7080  -47.4464 H         1 UNK         0.3000 
    206 H206       -5.7340  -23.7555  -46.4799 H         1 UNK         0.0600 
    207 H207       -8.0582  -24.1924  -47.2776 H         1 UNK         0.0600 
    208 H208       -7.7147  -22.4707  -47.2195 H         1 UNK         0.0600 
    209 H209       -7.7316  -23.3051  -48.7653 H         1 UNK         0.0600 
    210 H210       -3.4192  -23.6413  -47.5036 H         1 UNK         0.3000 
    211 H211       -1.7101  -22.5129  -48.2876 H         1 UNK         0.0600 
    212 H212       -3.4149  -19.9895  -47.9563 H         1 UNK         0.0600 
    213 H213       -1.6576  -20.0868  -48.0187 H         1 UNK         0.0600 
    214 H214       -2.5201  -20.7851  -46.6588 H         1 UNK         0.0600 
    215 H215       -2.7623  -23.8405  -50.1714 H         1 UNK         0.3000 
    216 H216       -3.0222  -24.1780  -52.3599 H         1 UNK         0.0600 
    217 H217       -1.5562  -22.8864  -53.8999 H         1 UNK         0.0600 
    218 H218       -0.6924  -23.2943  -52.4245 H         1 UNK         0.0600 
    219 H219       -1.3042  -21.6602  -52.6665 H         1 UNK         0.0600 
    220 H220       -5.2904  -23.3329  -51.4254 H         1 UNK         0.3000 
    221 H221       -7.2493  -22.4116  -51.7263 H         1 UNK         0.0600 
    222 H222       -6.4174  -22.1504  -54.6639 H         1 UNK         0.0600 
    223 H223       -7.0959  -23.5913  -53.9107 H         1 UNK         0.0600 
    224 H224       -8.0650  -22.1335  -54.0511 H         1 UNK         0.0600 
    225 H225       -5.6630  -20.7188  -50.5002 H         1 UNK         0.3000 
    226 H226       -5.2323  -18.6629  -49.8588 H         1 UNK         0.0600 
    227 H227       -7.7048  -18.4207  -49.8306 H         1 UNK         0.0600 
    228 H228       -6.9251  -16.8940  -50.2152 H         1 UNK         0.0600 
    229 H229       -7.6895  -17.8284  -51.4915 H         1 UNK         0.0600 
    230 H230       -3.3730  -19.2650  -51.3719 H         1 UNK         0.3000 
    231 H231       -1.6535  -18.5873  -52.5249 H         1 UNK         0.0600 
    232 H232       -2.8094  -15.7536  -52.3981 H         1 UNK         0.0600 
    233 H233       -1.1242  -16.1879  -52.6304 H         1 UNK         0.0600 
    234 H234       -1.9087  -16.5247  -51.0971 H         1 UNK         0.0600 
    235 H235       -3.7434  -19.6618  -54.1392 H         1 UNK         0.3000 
    236 H236       -3.7260  -18.1560  -56.6804 H         1 UNK         0.0600 
    237 H237       -5.7971  -19.3495  -55.8914 H         1 UNK         0.0600 
    238 H238       -5.2263  -19.9227  -57.4520 H         1 UNK         0.0600 
    239 H239       -4.9335  -20.8814  -56.0086 H         1 UNK         0.0600 
    240 H240       -1.1909  -18.6091  -55.8639 H         1 UNK         0.3000 
    241 H241       -0.0496  -21.0904  -56.8138 H         1 UNK         0.0600 
    242 H242        1.4220  -20.2602  -59.9515 H         1 UNK         0.3800 
    243 H243        1.3879  -21.4067  -58.6429 H         1 UNK         0.3800 
    244 H244        2.1243  -20.0335  -56.1402 H         1 UNK         0.0800 
    245 H245        1.3028  -18.5199  -55.8436 H         1 UNK         0.0800 
    246 H246        0.8769  -17.8973  -53.3811 H         1 UNK         0.0800 
    247 H247        2.4772  -18.6083  -53.4128 H         1 UNK         0.0800 
@<TRIPOS>BOND
     1    1    2 1    
     2    1  127 1    
     3    1  128 1    
     4    1  129 1    
     5    2    3 2    
     6    2    4 am   BACKBONE|DICT|INTERRES
     7    4    5 1    
     8    4  130 1    
     9    5    6 1    
    10    5   65 1    
    11    5  131 1    
    12    6    7 1    
    13    6  132 1    
    14    6  133 1    
    15    7    8 1    
    16    8    9 1    
    17    8  134 1    
    18    8  135 1    
    19    9   10 ar   
    20    9   14 ar   
    21   10   11 ar   
    22   10  136 1    
    23   11   12 ar   
    24   11  126 1    
    25   12   13 ar   
    26   12  137 1    
    27   13   14 ar   
    28   13   15 1    
    29   14  138 1    
    30   15   16 1    
    31   15  139 1    
    32   15  140 1    
    33   16   17 1    
    34   17   18 1    
    35   17  141 1    
    36   17  142 1    
    37   18   19 1    
    38   18   67 1    
    39   18  143 1    
    40   19   20 am   BACKBONE|DICT|INTERRES
    41   19  144 1    
    42   20   21 2    
    43   20   22 1    
    44   22   23 1    
    45   22   24 1    
    46   22  145 1    
    47   23  146 1    
    48   23  147 1    
    49   23  148 1    
    50   24   25 am   BACKBONE|DICT|INTERRES
    51   24  149 1    
    52   25   26 2    
    53   25   27 1    
    54   27   28 1    
    55   27   29 1    
    56   27  150 1    
    57   28  151 1    
    58   28  152 1    
    59   28  153 1    
    60   29   30 am   BACKBONE|DICT|INTERRES
    61   29  154 1    
    62   30   31 2    
    63   30   32 1    
    64   32   33 1    
    65   32   34 1    
    66   32  155 1    
    67   33  156 1    
    68   33  157 1    
    69   33  158 1    
    70   34   35 am   BACKBONE|DICT|INTERRES
    71   34  159 1    
    72   35   36 2    
    73   35   37 1    
    74   37   38 1    
    75   37   39 1    
    76   37  160 1    
    77   38  161 1    
    78   38  162 1    
    79   38  163 1    
    80   39   40 am   BACKBONE|DICT|INTERRES
    81   39  164 1    
    82   40   41 2    
    83   40   42 1    
    84   42   43 1    
    85   42   44 1    
    86   42  165 1    
    87   43  166 1    
    88   43  167 1    
    89   43  168 1    
    90   44   45 am   BACKBONE|DICT|INTERRES
    91   44  169 1    
    92   45   46 2    
    93   45   47 1    
    94   47   48 1    
    95   47   49 1    
    96   47  170 1    
    97   48  171 1    
    98   48  172 1    
    99   48  173 1    
   100   49   50 am   BACKBONE|DICT|INTERRES
   101   49  174 1    
   102   50   51 2    
   103   50   52 1    
   104   52   53 1    
   105   52   54 1    
   106   52  175 1    
   107   53  176 1    
   108   53  177 1    
   109   53  178 1    
   110   54   55 am   BACKBONE|DICT|INTERRES
   111   54  179 1    
   112   55   56 2    
   113   55   57 1    
   114   57   58 1    
   115   57   59 1    
   116   57  180 1    
   117   58  181 1    
   118   58  182 1    
   119   58  183 1    
   120   59   60 am   BACKBONE|DICT|INTERRES
   121   59  184 1    
   122   60   61 2    
   123   60   62 1    
   124   62   63 1    
   125   62   64 1    
   126   62  185 1    
   127   63  186 1    
   128   63  187 1    
   129   63  188 1    
   130   64   65 am   BACKBONE|DICT|INTERRES
   131   64  189 1    
   132   65   66 2    
   133   67   68 2    
   134   67   69 am   BACKBONE|DICT|INTERRES
   135   69   70 1    
   136   69  190 1    
   137   70   71 1    
   138   70   72 1    
   139   70  191 1    
   140   71  192 1    
   141   71  193 1    
   142   71  194 1    
   143   72   73 2    
   144   72   74 am   BACKBONE|DICT|INTERRES
   145   74   75 1    
   146   74  195 1    
   147   75   76 1    
   148   75   77 1    
   149   75  196 1    
   150   76  197 1    
   151   76  198 1    
   152   76  199 1    
   153   77   78 2    
   154   77   79 am   BACKBONE|DICT|INTERRES
   155   79   80 1    
   156   79  200 1    
   157   80   81 1    
   158   80   82 1    
   159   80  201 1    
   160   81  202 1    
   161   81  203 1    
   162   81  204 1    
   163   82   83 2    
   164   82   84 am   BACKBONE|DICT|INTERRES
   165   84   85 1    
   166   84  205 1    
   167   85   86 1    
   168   85   87 1    
   169   85  206 1    
   170   86  207 1    
   171   86  208 1    
   172   86  209 1    
   173   87   88 2    
   174   87   89 am   BACKBONE|DICT|INTERRES
   175   89   90 1    
   176   89  210 1    
   177   90   91 1    
   178   90   92 1    
   179   90  211 1    
   180   91  212 1    
   181   91  213 1    
   182   91  214 1    
   183   92   93 2    
   184   92   94 am   BACKBONE|DICT|INTERRES
   185   94   95 1    
   186   94  215 1    
   187   95   96 1    
   188   95   97 1    
   189   95  216 1    
   190   96  217 1    
   191   96  218 1    
   192   96  219 1    
   193   97   98 2    
   194   97   99 am   BACKBONE|DICT|INTERRES
   195   99  100 1    
   196   99  220 1    
   197  100  101 1    
   198  100  102 1    
   199  100  221 1    
   200  101  222 1    
   201  101  223 1    
   202  101  224 1    
   203  102  103 2    
   204  102  104 am   BACKBONE|DICT|INTERRES
   205  104  105 1    
   206  104  225 1    
   207  105  106 1    
   208  105  107 1    
   209  105  226 1    
   210  106  227 1    
   211  106  228 1    
   212  106  229 1    
   213  107  108 2    
   214  107  109 am   BACKBONE|DICT|INTERRES
   215  109  110 1    
   216  109  230 1    
   217  110  111 1    
   218  110  112 1    
   219  110  231 1    
   220  111  232 1    
   221  111  233 1    
   222  111  234 1    
   223  112  113 2    
   224  112  114 am   BACKBONE|DICT|INTERRES
   225  114  115 1    
   226  114  235 1    
   227  115  116 1    
   228  115  117 1    
   229  115  236 1    
   230  116  237 1    
   231  116  238 1    
   232  116  239 1    
   233  117  118 2    
   234  117  119 am   BACKBONE|DICT|INTERRES
   235  119  120 1    
   236  119  240 1    
   237  120  121 1    
   238  120  124 1    
   239  120  241 1    
   240  121  122 am   BACKBONE|DICT|INTERRES
   241  121  123 2    
   242  122  242 1    
   243  122  243 1    
   244  124  125 1    
   245  124  244 1    
   246  124  245 1    
   247  125  126 1    
   248  126  246 1    
   249  126  247 1    
@<TRIPOS>SUBSTRUCTURE
     1 UNK         1 GROUP             0       ****    0 ROOT    
