@<TRIPOS>MOLECULE
3R540
247   249    1
SMALL
USER_CHARGES


@<TRIPOS>ATOM
      1 CA         -3.7352  -15.4434  -51.7354 C.3       0 UNK        -0.1800 
      2 C          -2.5390  -15.9456  -50.9413 C.2       0 UNK         0.5000 
      3 O          -1.7431  -15.1412  -50.4606 O.2       0 UNK        -0.5000 
      4 N          -2.4183  -17.2700  -50.7735 N.am      1 UNK        -0.5000 
      5 CA         -1.3217  -17.9332  -50.0473 C.3       1 UNK         0.1400 
      6 C6         -1.3084  -19.4596  -50.3040 C.3       23 UNK        -0.0398 
      7 S7         -0.8835  -19.8384  -52.0385 S.3       23 UNK        -0.2404 
      8 C8          0.7796  -20.5612  -51.8664 C.3       23 UNK        -0.0205 
      9 C9          1.7869  -19.5594  -51.3200 C.ar      23 UNK        -0.0193 
     10 C10         2.1979  -18.4783  -52.1019 C.ar      23 UNK        -0.1150 
     11 C11         3.1068  -17.5449  -51.6002 C.ar      23 UNK        -0.0193 
     12 C12         3.6157  -17.7082  -50.3096 C.ar      23 UNK        -0.1150 
     13 C13         3.2298  -18.7921  -49.5146 C.ar      23 UNK        -0.0193 
     14 C14         2.3107  -19.7150  -50.0337 C.ar      23 UNK        -0.1150 
     15 C15         3.8314  -18.8996  -48.1105 C.3       23 UNK        -0.0205 
     16 S16         3.5834  -20.4833  -47.2317 S.3       23 UNK        -0.2404 
     17 C17         1.8620  -20.3108  -46.6548 C.3       23 UNK        -0.0398 
     18 CA          1.0568  -21.6218  -46.7668 C.3       11 UNK         0.1400 
     19 N           1.6487  -22.6865  -45.9572 N.am      11 UNK        -0.5000 
     20 C           1.3827  -23.9900  -46.0876 C.2       10 UNK         0.5000 
     21 O           0.6125  -24.4477  -46.9309 O.2       10 UNK        -0.5000 
     22 CA          2.0739  -24.9302  -45.0820 C.3       10 UNK         0.1400 
     23 CB          3.4619  -25.3401  -45.5958 C.3       10 UNK        -0.1800 
     24 N           2.2084  -24.3299  -43.7512 N.am      10 UNK        -0.5000 
     25 C           1.1764  -24.0797  -42.9333 C.2       9 UNK         0.5000 
     26 O           0.0095  -24.3596  -43.2063 O.2       9 UNK        -0.5000 
     27 CA          1.4945  -23.3502  -41.6125 C.3       9 UNK         0.1400 
     28 CB          1.9634  -24.3488  -40.5438 C.3       9 UNK        -0.1800 
     29 N           2.4854  -22.2744  -41.7437 N.am      9 UNK        -0.5000 
     30 C           2.3496  -21.2085  -42.5438 C.2       8 UNK         0.5000 
     31 O           1.4004  -21.0607  -43.3147 O.2       8 UNK        -0.5000 
     32 CA          3.4829  -20.1655  -42.5194 C.3       8 UNK         0.1400 
     33 CB          4.7011  -20.6844  -43.2998 C.3       8 UNK        -0.1800 
     34 N           3.0475  -18.9034  -43.1211 N.am      8 UNK        -0.5000 
     35 C           2.2598  -18.0002  -42.5222 C.2       7 UNK         0.5000 
     36 O           1.9686  -18.0493  -41.3239 O.2       7 UNK        -0.5000 
     37 CA          1.7639  -16.8288  -43.4053 C.3       7 UNK         0.1400 
     38 CB          1.3989  -17.2642  -44.8392 C.3       7 UNK        -0.1800 
     39 N           0.6567  -16.0649  -42.8216 N.am      7 UNK        -0.5000 
     40 C          -0.5557  -16.5152  -42.4562 C.2       6 UNK         0.5000 
     41 O          -0.9256  -17.6820  -42.5942 O.2       6 UNK        -0.5000 
     42 CA         -1.5342  -15.4987  -41.8299 C.3       6 UNK         0.1400 
     43 CB         -1.9371  -15.9270  -40.4082 C.3       6 UNK        -0.1800 
     44 N          -0.9692  -14.1487  -41.7682 N.am      6 UNK        -0.5000 
     45 C          -1.5073  -13.0589  -42.3280 C.2       5 UNK         0.5000 
     46 O          -2.6110  -13.0338  -42.8747 O.2       5 UNK        -0.5000 
     47 CA         -0.6720  -11.7631  -42.2817 C.3       5 UNK         0.1400 
     48 CB          0.2923  -11.6797  -41.0762 C.3       5 UNK        -0.1800 
     49 N           0.0377  -11.5364  -43.5463 N.am      5 UNK        -0.5000 
     50 C           0.9633  -12.3284  -44.1058 C.2       4 UNK         0.5000 
     51 O           1.4070  -13.3527  -43.5809 O.2       4 UNK        -0.5000 
     52 CA          1.5192  -11.8690  -45.4662 C.3       4 UNK         0.1400 
     53 CB          2.7628  -10.9922  -45.2553 C.3       4 UNK        -0.1800 
     54 N           1.8981  -13.0212  -46.2854 N.am      4 UNK        -0.5000 
     55 C           1.1096  -13.7848  -47.0553 C.2       3 UNK         0.5000 
     56 O           1.5571  -14.7848  -47.6162 O.2       3 UNK        -0.5000 
     57 CA         -0.3616  -13.3812  -47.3136 C.3       3 UNK         0.1400 
     58 CB         -0.4707  -12.5644  -48.6104 C.3       3 UNK        -0.1800 
     59 N          -1.2204  -14.5594  -47.4214 N.am      3 UNK        -0.5000 
     60 C          -1.6286  -15.2763  -46.3640 C.2       2 UNK         0.5000 
     61 O          -1.3877  -14.9516  -45.2038 O.2       2 UNK        -0.5000 
     62 CA         -2.4580  -16.5523  -46.6185 C.3       2 UNK         0.1400 
     63 CB         -3.9325  -16.3157  -46.2566 C.3       2 UNK        -0.1800 
     64 N          -2.3789  -17.0348  -47.9969 N.am      2 UNK        -0.5000 
     65 C          -1.2977  -17.6175  -48.5337 C.2       1 UNK         0.5000 
     66 O          -0.2911  -17.8822  -47.8829 O.2       1 UNK        -0.5000 
     67 C          -0.4235  -21.4042  -46.3939 C.2       11 UNK         0.5000 
     68 O          -1.2594  -21.2493  -47.2832 O.2       11 UNK        -0.5000 
     69 N          -0.7337  -21.4642  -45.0917 N.am      12 UNK        -0.5000 
     70 CA         -2.0927  -21.4448  -44.5541 C.3       12 UNK         0.1400 
     71 CB         -2.0386  -21.3299  -43.0241 C.3       12 UNK        -0.1800 
     72 C          -2.9100  -22.6762  -44.9866 C.2       12 UNK         0.5000 
     73 O          -4.0834  -22.5320  -45.3262 O.2       12 UNK        -0.5000 
     74 N          -2.2714  -23.8554  -45.0199 N.am      13 UNK        -0.5000 
     75 CA         -2.8543  -25.0909  -45.5470 C.3       13 UNK         0.1400 
     76 CB         -1.9427  -26.2833  -45.2228 C.3       13 UNK        -0.1800 
     77 C          -3.1452  -25.0093  -47.0577 C.2       13 UNK         0.5000 
     78 O          -4.1969  -25.4756  -47.4940 O.2       13 UNK        -0.5000 
     79 N          -2.2429  -24.3775  -47.8231 N.am      14 UNK        -0.5000 
     80 CA         -2.4383  -24.0761  -49.2427 C.3       14 UNK         0.1400 
     81 CB         -1.1280  -23.5619  -49.8594 C.3       14 UNK        -0.1800 
     82 C          -3.5927  -23.0822  -49.4715 C.2       14 UNK         0.5000 
     83 O          -4.4059  -23.2960  -50.3694 O.2       14 UNK        -0.5000 
     84 N          -3.6823  -22.0450  -48.6276 N.am      15 UNK        -0.5000 
     85 CA         -4.7763  -21.0719  -48.6286 C.3       15 UNK         0.1400 
     86 CB         -4.4563  -19.9306  -47.6551 C.3       15 UNK        -0.1800 
     87 C          -6.1383  -21.7096  -48.2962 C.2       15 UNK         0.5000 
     88 O          -7.1298  -21.3929  -48.9523 O.2       15 UNK        -0.5000 
     89 N          -6.1584  -22.6377  -47.3284 N.am      16 UNK        -0.5000 
     90 CA         -7.3266  -23.4493  -46.9717 C.3       16 UNK         0.1400 
     91 CB         -7.0362  -24.2288  -45.6807 C.3       16 UNK        -0.1800 
     92 C          -7.7675  -24.4021  -48.1023 C.2       16 UNK         0.5000 
     93 O          -8.9624  -24.6598  -48.2478 O.2       16 UNK        -0.5000 
     94 N          -6.8046  -24.8620  -48.9129 N.am      17 UNK        -0.5000 
     95 CA         -7.0162  -25.6235  -50.1469 C.3       17 UNK         0.1400 
     96 CB         -5.7698  -26.4813  -50.4237 C.3       17 UNK        -0.1800 
     97 C          -7.3728  -24.7348  -51.3624 C.2       17 UNK         0.5000 
     98 O          -7.5039  -25.2594  -52.4692 O.2       17 UNK        -0.5000 
     99 N          -7.5374  -23.4222  -51.1396 N.am      18 UNK        -0.5000 
    100 CA        -7.9406  -22.3826  -52.0889 C.3       18 UNK         0.1400 
    101 CB        -9.3219  -22.6879  -52.7077 C.3       18 UNK        -0.1800 
    102 C         -6.8681  -22.0265  -53.1377 C.2       18 UNK         0.5000 
    103 O         -7.2159  -21.5357  -54.2141 O.2       18 UNK        -0.5000 
    104 N         -5.5836  -22.2299  -52.8110 N.am      19 UNK        -0.5000 
    105 CA        -4.4644  -21.7110  -53.5977 C.3       19 UNK         0.1400 
    106 CB        -3.1740  -22.4538  -53.2233 C.3       19 UNK        -0.1800 
    107 C         -4.3045  -20.1970  -53.3651 C.2       19 UNK         0.5000 
    108 O         -4.5036  -19.7188  -52.2439 O.2       19 UNK        -0.5000 
    109 N         -3.9282  -19.4729  -54.4236 N.am      20 UNK        -0.5000 
    110 CA        -3.7770  -18.0191  -54.4132 C.3       20 UNK         0.1400 
    111 CB        -5.1035  -17.3499  -54.8189 C.3       20 UNK        -0.1800 
    112 C         -2.5822  -17.5750  -55.2702 C.2       20 UNK         0.5000 
    113 O         -2.6347  -16.5208  -55.9053 O.2       20 UNK        -0.5000 
    114 N         -1.5061  -18.3742  -55.2573 N.am      21 UNK        -0.5000 
    115 CA        -0.2717  -18.1354  -56.0142 C.3       21 UNK         0.1400 
    116 CB         0.6417  -19.3634  -55.8835 C.3       21 UNK        -0.1800 
    117 C          0.4766  -16.8448  -55.6166 C.2       21 UNK         0.5000 
    118 O          1.2149  -16.3000  -56.4378 O.2       21 UNK        -0.5000 
    119 N          0.2519  -16.3694  -54.3846 N.am      22 UNK        -0.5000 
    120 CA         0.7213  -15.0669  -53.8840 C.3       22 UNK         0.1400 
    121 C         -0.1957  -13.8662  -54.2708 C.2       22 UNK         0.5000 
    122 N         -1.3191  -14.0612  -54.9531 N.am      22 UNK        -0.7600 
    123 O          0.1270  -12.7236  -53.9583 O.2       22 UNK        -0.5000 
    124 C124        1.0111  -15.1214  -52.3545 C.3       23 UNK        -0.0398 
    125 S125        2.7609  -14.8037  -51.9509 S.3       23 UNK        -0.2404 
    126 C126        3.5489  -16.3673  -52.4557 C.3       23 UNK        -0.0205 
    127 H127       -4.1699  -14.5710  -51.2474 H         1 UNK         0.0600 
    128 H128       -4.5133  -16.2026  -51.8172 H         1 UNK         0.0600 
    129 H129       -3.4239  -15.1522  -52.7387 H         1 UNK         0.0600 
    130 H130       -3.1089  -17.8934  -51.1719 H         1 UNK         0.3000 
    131 H131       -0.3851  -17.5283  -50.4349 H         1 UNK         0.0600 
    132 H132       -0.5981  -19.9644  -49.6473 H         1 UNK         0.0800 
    133 H133       -2.2826  -19.8967  -50.0817 H         1 UNK         0.0800 
    134 H134        0.7225  -21.4448  -51.2292 H         1 UNK         0.0800 
    135 H135        1.1171  -20.9142  -52.8413 H         1 UNK         0.0800 
    136 H136        1.8005  -18.3568  -53.0979 H         1 UNK         0.1150 
    137 H137        4.3168  -16.9821  -49.9218 H         1 UNK         0.1150 
    138 H138        1.9916  -20.5604  -49.4465 H         1 UNK         0.1150 
    139 H139        4.9076  -18.7367  -48.1843 H         1 UNK         0.0800 
    140 H140        3.4419  -18.0846  -47.4992 H         1 UNK         0.0800 
    141 H141        1.3826  -19.5262  -47.2343 H         1 UNK         0.0800 
    142 H142        1.8819  -19.9641  -45.6236 H         1 UNK         0.0800 
    143 H143        1.0779  -21.9453  -47.8093 H         1 UNK         0.0600 
    144 H144        2.2601  -22.3911  -45.2114 H         1 UNK         0.3000 
    145 H145        1.4626  -25.8307  -44.9927 H         1 UNK         0.0600 
    146 H146        3.9333  -26.0601  -44.9266 H         1 UNK         0.0600 
    147 H147        3.3908  -25.8088  -46.5782 H         1 UNK         0.0600 
    148 H148        4.1278  -24.4812  -45.6894 H         1 UNK         0.0600 
    149 H149        3.1374  -24.0704  -43.4539 H         1 UNK         0.3000 
    150 H150        0.5654  -22.8948  -41.2636 H         1 UNK         0.0600 
    151 H151        2.9152  -24.8092  -40.8114 H         1 UNK         0.0600 
    152 H152        1.2358  -25.1510  -40.4128 H         1 UNK         0.0600 
    153 H153        2.0854  -23.8625  -39.5758 H         1 UNK         0.0600 
    154 H154        3.3001  -22.3408  -41.1505 H         1 UNK         0.3000 
    155 H155        3.7743  -19.9878  -41.4822 H         1 UNK         0.0600 
    156 H156        4.4513  -20.9093  -44.3371 H         1 UNK         0.0600 
    157 H157        5.0964  -21.5975  -42.8533 H         1 UNK         0.0600 
    158 H158        5.5087  -19.9521  -43.3019 H         1 UNK         0.0600 
    159 H159        3.2444  -18.7922  -44.1036 H         1 UNK         0.3000 
    160 H160        2.5969  -16.1280  -43.4755 H         1 UNK         0.0600 
    161 H161        0.6434  -18.0509  -44.8449 H         1 UNK         0.0600 
    162 H162        2.2712  -17.6238  -45.3829 H         1 UNK         0.0600 
    163 H163        1.0037  -16.4269  -45.4126 H         1 UNK         0.0600 
    164 H164        0.8239  -15.0653  -42.7780 H         1 UNK         0.3000 
    165 H165       -2.4272  -15.5090  -42.4582 H         1 UNK         0.0600 
    166 H166       -2.6630  -15.2356  -39.9799 H         1 UNK         0.0600 
    167 H167       -2.3952  -16.9168  -40.4104 H         1 UNK         0.0600 
    168 H168       -1.0746  -15.9650  -39.7418 H         1 UNK         0.0600 
    169 H169       -0.0582  -14.0647  -41.3408 H         1 UNK         0.3000 
    170 H170       -1.3858  -10.9443  -42.1782 H         1 UNK         0.0600 
    171 H171       -0.2432  -11.8305  -40.1380 H         1 UNK         0.0600 
    172 H172        1.0923  -12.4186  -41.1215 H         1 UNK         0.0600 
    173 H173        0.7598  -10.6964  -41.0236 H         1 UNK         0.0600 
    174 H174       -0.2608  -10.7167  -44.0562 H         1 UNK         0.3000 
    175 H175        0.7748  -11.2648  -45.9865 H         1 UNK         0.0600 
    176 H176        3.5526  -11.5308  -44.7296 H         1 UNK         0.0600 
    177 H177        3.1685  -10.6474  -46.2068 H         1 UNK         0.0600 
    178 H178        2.5224  -10.1064  -44.6658 H         1 UNK         0.0600 
    179 H179        2.8442  -13.3392  -46.1411 H         1 UNK         0.3000 
    180 H180       -0.7487  -12.7762  -46.4940 H         1 UNK         0.0600 
    181 H181       -1.5039  -12.2848  -48.8171 H         1 UNK         0.0600 
    182 H182       -0.0977  -13.1240  -49.4694 H         1 UNK         0.0600 
    183 H183        0.1099  -11.6438  -48.5425 H         1 UNK         0.0600 
    184 H184       -1.4096  -14.8977  -48.3578 H         1 UNK         0.3000 
    185 H185       -2.0664  -17.3294  -45.9578 H         1 UNK         0.0600 
    186 H186       -4.0300  -15.9599  -45.2299 H         1 UNK         0.0600 
    187 H187       -4.3918  -15.5703  -46.9068 H         1 UNK         0.0600 
    188 H188       -4.5120  -17.2349  -46.3335 H         1 UNK         0.0600 
    189 H189       -3.1626  -16.8309  -48.5986 H         1 UNK         0.3000 
    190 H190        0.0227  -21.5209  -44.4127 H         1 UNK         0.3000 
    191 H191       -2.5920  -20.5559  -44.9450 H         1 UNK         0.0600 
    192 H192       -1.4938  -20.4371  -42.7161 H         1 UNK         0.0600 
    193 H193       -3.0420  -21.2620  -42.6025 H         1 UNK         0.0600 
    194 H194       -1.5485  -22.1917  -42.5713 H         1 UNK         0.0600 
    195 H195       -1.3281  -23.9136  -44.6507 H         1 UNK         0.3000 
    196 H196       -3.8062  -25.2504  -45.0365 H         1 UNK         0.0600 
    197 H197       -2.3873  -27.2173  -45.5684 H         1 UNK         0.0600 
    198 H198       -1.7833  -26.3768  -44.1485 H         1 UNK         0.0600 
    199 H199       -0.9675  -26.1901  -45.6989 H         1 UNK         0.0600 
    200 H200       -1.3694  -24.0772  -47.4049 H         1 UNK         0.3000 
    201 H201       -2.6993  -25.0095  -49.7454 H         1 UNK         0.0600 
    202 H202       -1.2285  -23.4363  -50.9375 H         1 UNK         0.0600 
    203 H203       -0.3106  -24.2630  -49.6906 H         1 UNK         0.0600 
    204 H204       -0.8315  -22.5987  -49.4471 H         1 UNK         0.0600 
    205 H205       -2.9393  -21.9034  -47.9488 H         1 UNK         0.3000 
    206 H206       -4.8390  -20.6524  -49.6349 H         1 UNK         0.0600 
    207 H207       -3.4607  -19.5307  -47.8338 H         1 UNK         0.0600 
    208 H208       -5.1685  -19.1135  -47.7727 H         1 UNK         0.0600 
    209 H209       -4.4985  -20.2553  -46.6160 H         1 UNK         0.0600 
    210 H210       -5.3139  -22.7883  -46.7827 H         1 UNK         0.3000 
    211 H211       -8.1560  -22.7670  -46.7751 H         1 UNK         0.0600 
    212 H212       -6.2146  -24.9327  -45.8104 H         1 UNK         0.0600 
    213 H213       -7.9101  -24.7999  -45.3652 H         1 UNK         0.0600 
    214 H214       -6.7744  -23.5559  -44.8639 H         1 UNK         0.0600 
    215 H215       -5.8422  -24.6385  -48.6882 H         1 UNK         0.3000 
    216 H216       -7.8575  -26.3023  -49.9941 H         1 UNK         0.0600 
    217 H217       -5.9290  -27.1408  -51.2775 H         1 UNK         0.0600 
    218 H218       -5.5271  -27.1122  -49.5684 H         1 UNK         0.0600 
    219 H219       -4.8971  -25.8679  -50.6443 H         1 UNK         0.0600 
    220 H220       -7.3636  -23.0820  -50.2016 H         1 UNK         0.3000 
    221 H221       -8.0597  -21.4789  -51.4905 H         1 UNK         0.0600 
    222 H222       -9.2800  -23.5252  -53.4045 H         1 UNK         0.0600 
    223 H223      -10.0555  -22.9265  -51.9375 H         1 UNK         0.0600 
    224 H224       -9.7022  -21.8270  -53.2585 H         1 UNK         0.0600 
    225 H225       -5.3517  -22.6171  -51.8999 H         1 UNK         0.3000 
    226 H226       -4.6669  -21.8947  -54.6550 H         1 UNK         0.0600 
    227 H227       -3.3054  -23.5348  -53.2730 H         1 UNK         0.0600 
    228 H228       -2.3624  -22.1896  -53.9020 H         1 UNK         0.0600 
    229 H229       -2.8463  -22.1989  -52.2164 H         1 UNK         0.0600 
    230 H230       -3.7663  -19.9301  -55.3108 H         1 UNK         0.3000 
    231 H231       -3.5293  -17.6951  -53.4036 H         1 UNK         0.0600 
    232 H232       -5.3901  -17.6163  -55.8367 H         1 UNK         0.0600 
    233 H233       -5.0299  -16.2628  -54.7688 H         1 UNK         0.0600 
    234 H234       -5.9141  -17.6475  -54.1536 H         1 UNK         0.0600 
    235 H235       -1.5288  -19.2034  -54.6804 H         1 UNK         0.3000 
    236 H236       -0.5465  -18.0310  -57.0659 H         1 UNK         0.0600 
    237 H237        0.1630  -20.2544  -56.2899 H         1 UNK         0.0600 
    238 H238        1.5747  -19.2196  -56.4302 H         1 UNK         0.0600 
    239 H239        0.8973  -19.5672  -54.8450 H         1 UNK         0.0600 
    240 H240       -0.3772  -16.8813  -53.7853 H         1 UNK         0.3000 
    241 H241        1.6589  -14.8487  -54.3981 H         1 UNK         0.0600 
    242 H242       -1.8836  -13.2629  -55.1961 H         1 UNK         0.3800 
    243 H243       -1.6102  -14.9826  -55.2619 H         1 UNK         0.3800 
    244 H244        0.4233  -14.3859  -51.8026 H         1 UNK         0.0800 
    245 H245        0.7204  -16.0784  -51.9236 H         1 UNK         0.0800 
    246 H246        4.6312  -16.2550  -52.3786 H         1 UNK         0.0800 
    247 H247        3.3394  -16.5562  -53.5097 H         1 UNK         0.0800 
@<TRIPOS>BOND
     1    1    2 1    
     2    1  127 1    
     3    1  128 1    
     4    1  129 1    
     5    2    3 2    
     6    2    4 am   BACKBONE|DICT|INTERRES
     7    4    5 1    
     8    4  130 1    
     9    5    6 1    
    10    5   65 1    
    11    5  131 1    
    12    6    7 1    
    13    6  132 1    
    14    6  133 1    
    15    7    8 1    
    16    8    9 1    
    17    8  134 1    
    18    8  135 1    
    19    9   10 ar   
    20    9   14 ar   
    21   10   11 ar   
    22   10  136 1    
    23   11   12 ar   
    24   11  126 1    
    25   12   13 ar   
    26   12  137 1    
    27   13   14 ar   
    28   13   15 1    
    29   14  138 1    
    30   15   16 1    
    31   15  139 1    
    32   15  140 1    
    33   16   17 1    
    34   17   18 1    
    35   17  141 1    
    36   17  142 1    
    37   18   19 1    
    38   18   67 1    
    39   18  143 1    
    40   19   20 am   BACKBONE|DICT|INTERRES
    41   19  144 1    
    42   20   21 2    
    43   20   22 1    
    44   22   23 1    
    45   22   24 1    
    46   22  145 1    
    47   23  146 1    
    48   23  147 1    
    49   23  148 1    
    50   24   25 am   BACKBONE|DICT|INTERRES
    51   24  149 1    
    52   25   26 2    
    53   25   27 1    
    54   27   28 1    
    55   27   29 1    
    56   27  150 1    
    57   28  151 1    
    58   28  152 1    
    59   28  153 1    
    60   29   30 am   BACKBONE|DICT|INTERRES
    61   29  154 1    
    62   30   31 2    
    63   30   32 1    
    64   32   33 1    
    65   32   34 1    
    66   32  155 1    
    67   33  156 1    
    68   33  157 1    
    69   33  158 1    
    70   34   35 am   BACKBONE|DICT|INTERRES
    71   34  159 1    
    72   35   36 2    
    73   35   37 1    
    74   37   38 1    
    75   37   39 1    
    76   37  160 1    
    77   38  161 1    
    78   38  162 1    
    79   38  163 1    
    80   39   40 am   BACKBONE|DICT|INTERRES
    81   39  164 1    
    82   40   41 2    
    83   40   42 1    
    84   42   43 1    
    85   42   44 1    
    86   42  165 1    
    87   43  166 1    
    88   43  167 1    
    89   43  168 1    
    90   44   45 am   BACKBONE|DICT|INTERRES
    91   44  169 1    
    92   45   46 2    
    93   45   47 1    
    94   47   48 1    
    95   47   49 1    
    96   47  170 1    
    97   48  171 1    
    98   48  172 1    
    99   48  173 1    
   100   49   50 am   BACKBONE|DICT|INTERRES
   101   49  174 1    
   102   50   51 2    
   103   50   52 1    
   104   52   53 1    
   105   52   54 1    
   106   52  175 1    
   107   53  176 1    
   108   53  177 1    
   109   53  178 1    
   110   54   55 am   BACKBONE|DICT|INTERRES
   111   54  179 1    
   112   55   56 2    
   113   55   57 1    
   114   57   58 1    
   115   57   59 1    
   116   57  180 1    
   117   58  181 1    
   118   58  182 1    
   119   58  183 1    
   120   59   60 am   BACKBONE|DICT|INTERRES
   121   59  184 1    
   122   60   61 2    
   123   60   62 1    
   124   62   63 1    
   125   62   64 1    
   126   62  185 1    
   127   63  186 1    
   128   63  187 1    
   129   63  188 1    
   130   64   65 am   BACKBONE|DICT|INTERRES
   131   64  189 1    
   132   65   66 2    
   133   67   68 2    
   134   67   69 am   BACKBONE|DICT|INTERRES
   135   69   70 1    
   136   69  190 1    
   137   70   71 1    
   138   70   72 1    
   139   70  191 1    
   140   71  192 1    
   141   71  193 1    
   142   71  194 1    
   143   72   73 2    
   144   72   74 am   BACKBONE|DICT|INTERRES
   145   74   75 1    
   146   74  195 1    
   147   75   76 1    
   148   75   77 1    
   149   75  196 1    
   150   76  197 1    
   151   76  198 1    
   152   76  199 1    
   153   77   78 2    
   154   77   79 am   BACKBONE|DICT|INTERRES
   155   79   80 1    
   156   79  200 1    
   157   80   81 1    
   158   80   82 1    
   159   80  201 1    
   160   81  202 1    
   161   81  203 1    
   162   81  204 1    
   163   82   83 2    
   164   82   84 am   BACKBONE|DICT|INTERRES
   165   84   85 1    
   166   84  205 1    
   167   85   86 1    
   168   85   87 1    
   169   85  206 1    
   170   86  207 1    
   171   86  208 1    
   172   86  209 1    
   173   87   88 2    
   174   87   89 am   BACKBONE|DICT|INTERRES
   175   89   90 1    
   176   89  210 1    
   177   90   91 1    
   178   90   92 1    
   179   90  211 1    
   180   91  212 1    
   181   91  213 1    
   182   91  214 1    
   183   92   93 2    
   184   92   94 am   BACKBONE|DICT|INTERRES
   185   94   95 1    
   186   94  215 1    
   187   95   96 1    
   188   95   97 1    
   189   95  216 1    
   190   96  217 1    
   191   96  218 1    
   192   96  219 1    
   193   97   98 2    
   194   97   99 am   BACKBONE|DICT|INTERRES
   195   99  100 1    
   196   99  220 1    
   197  100  101 1    
   198  100  102 1    
   199  100  221 1    
   200  101  222 1    
   201  101  223 1    
   202  101  224 1    
   203  102  103 2    
   204  102  104 am   BACKBONE|DICT|INTERRES
   205  104  105 1    
   206  104  225 1    
   207  105  106 1    
   208  105  107 1    
   209  105  226 1    
   210  106  227 1    
   211  106  228 1    
   212  106  229 1    
   213  107  108 2    
   214  107  109 am   BACKBONE|DICT|INTERRES
   215  109  110 1    
   216  109  230 1    
   217  110  111 1    
   218  110  112 1    
   219  110  231 1    
   220  111  232 1    
   221  111  233 1    
   222  111  234 1    
   223  112  113 2    
   224  112  114 am   BACKBONE|DICT|INTERRES
   225  114  115 1    
   226  114  235 1    
   227  115  116 1    
   228  115  117 1    
   229  115  236 1    
   230  116  237 1    
   231  116  238 1    
   232  116  239 1    
   233  117  118 2    
   234  117  119 am   BACKBONE|DICT|INTERRES
   235  119  120 1    
   236  119  240 1    
   237  120  121 1    
   238  120  124 1    
   239  120  241 1    
   240  121  122 am   BACKBONE|DICT|INTERRES
   241  121  123 2    
   242  122  242 1    
   243  122  243 1    
   244  124  125 1    
   245  124  244 1    
   246  124  245 1    
   247  125  126 1    
   248  126  246 1    
   249  126  247 1    
@<TRIPOS>SUBSTRUCTURE
     1 UNK         1 GROUP             0       ****    0 ROOT    
