@<TRIPOS>MOLECULE
3R540
247   249    1
SMALL
USER_CHARGES


@<TRIPOS>ATOM
      1 CA         -5.0609  -18.1025  -45.9081 C.3       0 UNK        -0.1800 
      2 C          -3.7695  -17.3226  -45.7049 C.2       0 UNK         0.5000 
      3 O          -2.7116  -17.9284  -45.5480 O.2       0 UNK        -0.5000 
      4 N          -3.8559  -15.9827  -45.7114 N.am      1 UNK        -0.5000 
      5 CA         -2.7481  -15.0339  -45.5020 C.3       1 UNK         0.1400 
      6 C6         -1.6835  -15.0421  -46.6371 C.3       23 UNK        -0.0398 
      7 S7         -2.3133  -14.4055  -48.2300 S.3       23 UNK        -0.2404 
      8 C8         -2.9798  -15.8832  -49.0599 C.3       23 UNK        -0.0205 
      9 C9         -1.9133  -16.7620  -49.6980 C.ar      23 UNK        -0.0193 
     10 C10        -1.6742  -16.6869  -51.0742 C.ar      23 UNK        -0.1150 
     11 C11        -0.7935  -17.5809  -51.6906 C.ar      23 UNK        -0.0193 
     12 C12        -0.1179  -18.5259  -50.9158 C.ar      23 UNK        -0.1150 
     13 C13        -0.3520  -18.6153  -49.5433 C.ar      23 UNK        -0.0193 
     14 C14        -1.2461  -17.7289  -48.9396 C.ar      23 UNK        -0.1150 
     15 C15         0.2989  -19.7168  -48.7280 C.3       23 UNK        -0.0205 
     16 S16        -0.5770  -21.2905  -48.9713 S.3       23 UNK        -0.2404 
     17 C17         0.2345  -22.3654  -47.7363 C.3       23 UNK        -0.0398 
     18 CA         -0.5599  -22.5730  -46.4181 C.3       11 UNK         0.1400 
     19 N          -0.5272  -21.3767  -45.5737 N.am      11 UNK        -0.5000 
     20 C          -0.9937  -21.2815  -44.3200 C.2       10 UNK         0.5000 
     21 O          -1.6270  -22.1710  -43.7475 O.2       10 UNK        -0.5000 
     22 CA         -0.5869  -19.9992  -43.5585 C.3       10 UNK         0.1400 
     23 CB         -1.0600  -19.9764  -42.0907 C.3       10 UNK        -0.1800 
     24 N           0.8587  -19.7527  -43.6402 N.am      10 UNK        -0.5000 
     25 C           1.8546  -20.5859  -43.2918 C.2       9 UNK         0.5000 
     26 O           1.6753  -21.6660  -42.7277 O.2       9 UNK        -0.5000 
     27 CA          3.3010  -20.1486  -43.6214 C.3       9 UNK         0.1400 
     28 CB          4.1003  -21.2793  -44.3030 C.3       9 UNK        -0.1800 
     29 N           3.4071  -18.8964  -44.3879 N.am      9 UNK        -0.5000 
     30 C           2.9939  -18.6729  -45.6449 C.2       8 UNK         0.5000 
     31 O           2.4588  -19.5312  -46.3446 O.2       8 UNK        -0.5000 
     32 CA          3.1375  -17.2443  -46.1997 C.3       8 UNK         0.1400 
     33 CB          1.7777  -16.5262  -46.1608 C.3       8 UNK        -0.1800 
     34 N           4.1245  -16.4258  -45.4922 N.am      8 UNK        -0.5000 
     35 C           5.4505  -16.5120  -45.6703 C.2       7 UNK         0.5000 
     36 O           5.9881  -17.3570  -46.3866 O.2       7 UNK        -0.5000 
     37 CA          6.3225  -15.4784  -44.9377 C.3       7 UNK         0.1400 
     38 CB          6.2847  -14.1290  -45.6731 C.3       7 UNK        -0.1800 
     39 N           5.8707  -15.2825  -43.5613 N.am      7 UNK        -0.5000 
     40 C           6.5563  -15.6399  -42.4663 C.2       6 UNK         0.5000 
     41 O           7.6837  -16.1354  -42.4941 O.2       6 UNK        -0.5000 
     42 CA          5.8691  -15.4172  -41.1006 C.3       6 UNK         0.1400 
     43 CB          6.3278  -14.0887  -40.4802 C.3       6 UNK        -0.1800 
     44 N           4.4060  -15.4276  -41.1695 N.am      6 UNK        -0.5000 
     45 C           3.6678  -16.4802  -41.5459 C.2       5 UNK         0.5000 
     46 O           4.1427  -17.5888  -41.7829 O.2       5 UNK        -0.5000 
     47 CA          2.1575  -16.2567  -41.7534 C.3       5 UNK         0.1400 
     48 CB          1.3693  -16.8152  -40.5608 C.3       5 UNK        -0.1800 
     49 N           1.7599  -14.8652  -42.0037 N.am      5 UNK        -0.5000 
     50 C           2.2017  -14.0931  -43.0107 C.2       4 UNK         0.5000 
     51 O           3.0823  -14.4522  -43.7947 O.2       4 UNK        -0.5000 
     52 CA          1.5700  -12.6975  -43.1694 C.3       4 UNK         0.1400 
     53 CB          1.4684  -12.2856  -44.6489 C.3       4 UNK        -0.1800 
     54 N           0.2336  -12.6611  -42.5800 N.am      4 UNK        -0.5000 
     55 C          -0.1720  -11.8495  -41.5944 C.2       3 UNK         0.5000 
     56 O           0.5529  -11.0092  -41.0608 O.2       3 UNK        -0.5000 
     57 CA         -1.6336  -11.9944  -41.1162 C.3       3 UNK         0.1400 
     58 CB         -2.4897  -10.8364  -41.6523 C.3       3 UNK        -0.1800 
     59 N          -2.2566  -13.2599  -41.5117 N.am      3 UNK        -0.5000 
     60 C          -1.9295  -14.4631  -41.0210 C.2       2 UNK         0.5000 
     61 O          -1.1132  -14.6266  -40.1148 O.2       2 UNK        -0.5000 
     62 CA         -2.5810  -15.6898  -41.6917 C.3       2 UNK         0.1400 
     63 CB         -3.8098  -16.1534  -40.8965 C.3       2 UNK        -0.1800 
     64 N          -2.9678  -15.4710  -43.0900 N.am      2 UNK        -0.5000 
     65 C          -2.1233  -15.1855  -44.0940 C.2       1 UNK         0.5000 
     66 O          -0.9142  -15.0234  -43.9275 O.2       1 UNK        -0.5000 
     67 C          -1.9782  -23.1395  -46.6674 C.2       11 UNK         0.5000 
     68 O          -2.9452  -22.3852  -46.8151 O.2       11 UNK        -0.5000 
     69 N          -2.0581  -24.4741  -46.7655 N.am      12 UNK        -0.5000 
     70 CA         -3.2895  -25.2203  -47.0314 C.3       12 UNK         0.1400 
     71 CB         -3.0184  -26.7222  -46.8621 C.3       12 UNK        -0.1800 
     72 C          -3.8913  -24.9366  -48.4201 C.2       12 UNK         0.5000 
     73 O          -5.1102  -24.9939  -48.5707 O.2       12 UNK        -0.5000 
     74 N          -3.0383  -24.6028  -49.3994 N.am      13 UNK        -0.5000 
     75 CA         -3.4349  -24.2528  -50.7643 C.3       13 UNK         0.1400 
     76 CB         -2.1796  -24.1055  -51.6362 C.3       13 UNK        -0.1800 
     77 C          -4.2880  -22.9741  -50.8363 C.2       13 UNK         0.5000 
     78 O          -5.1977  -22.8967  -51.6631 O.2       13 UNK        -0.5000 
     79 N          -3.9916  -21.9989  -49.9693 N.am      14 UNK        -0.5000 
     80 CA         -4.7593  -20.7628  -49.8466 C.3       14 UNK         0.1400 
     81 CB         -3.8642  -19.6596  -49.2867 C.3       14 UNK        -0.1800 
     82 C          -6.0149  -20.9469  -48.9837 C.2       14 UNK         0.5000 
     83 O          -7.0409  -20.3418  -49.2904 O.2       14 UNK        -0.5000 
     84 N          -5.9421  -21.8132  -47.9620 N.am      15 UNK        -0.5000 
     85 CA         -7.0893  -22.2093  -47.1377 C.3       15 UNK         0.1400 
     86 CB         -6.6044  -23.0460  -45.9450 C.3       15 UNK        -0.1800 
     87 C          -8.1600  -22.9703  -47.9475 C.2       15 UNK         0.5000 
     88 O          -9.3539  -22.7566  -47.7370 O.2       15 UNK        -0.5000 
     89 N          -7.7075  -23.8015  -48.8965 N.am      16 UNK        -0.5000 
     90 CA         -8.5308  -24.4937  -49.8904 C.3       16 UNK         0.1400 
     91 CB         -7.7145  -25.6616  -50.4680 C.3       16 UNK        -0.1800 
     92 C          -9.0256  -23.5779  -51.0312 C.2       16 UNK         0.5000 
     93 O          -9.8545  -24.0158  -51.8297 O.2       16 UNK        -0.5000 
     94 N          -8.4994  -22.3451  -51.1035 N.am      17 UNK        -0.5000 
     95 CA         -8.7562  -21.3110  -52.1128 C.3       17 UNK         0.1400 
     96 CB        -10.2278  -20.8494  -52.0705 C.3       17 UNK        -0.1800 
     97 C          -8.2846  -21.6949  -53.5324 C.2       17 UNK         0.5000 
     98 O          -8.8019  -21.1623  -54.5160 O.2       17 UNK        -0.5000 
     99 N          -7.2981  -22.5965  -53.6177 N.am      18 UNK        -0.5000 
    100 CA        -6.6578  -23.0140  -54.8630 C.3       18 UNK         0.1400 
    101 CB        -6.1304  -24.4491  -54.7003 C.3       18 UNK        -0.1800 
    102 C         -5.5134  -22.0627  -55.2511 C.2       18 UNK         0.5000 
    103 O         -5.3173  -21.8055  -56.4388 O.2       18 UNK        -0.5000 
    104 N         -4.7758  -21.5758  -54.2385 N.am      19 UNK        -0.5000 
    105 CA        -3.6078  -20.6860  -54.3268 C.3       19 UNK         0.1400 
    106 CB        -4.0116  -19.2968  -54.8595 C.3       19 UNK        -0.1800 
    107 C         -2.4157  -21.2958  -55.0999 C.2       19 UNK         0.5000 
    108 O         -1.5592  -20.5642  -55.6027 O.2       19 UNK        -0.5000 
    109 N         -2.3569  -22.6349  -55.1478 N.am      20 UNK        -0.5000 
    110 CA        -1.3566  -23.4396  -55.8583 C.3       20 UNK         0.1400 
    111 CB        -1.7662  -24.9180  -55.7705 C.3       20 UNK        -0.1800 
    112 C          0.0916  -23.2495  -55.3629 C.2       20 UNK         0.5000 
    113 O          1.0288  -23.5597  -56.0985 O.2       20 UNK        -0.5000 
    114 N          0.2481  -22.7253  -54.1399 N.am      21 UNK        -0.5000 
    115 CA         1.5247  -22.3122  -53.5596 C.3       21 UNK         0.1400 
    116 CB         1.3274  -22.0728  -52.0557 C.3       21 UNK        -0.1800 
    117 C          2.1365  -21.0739  -54.2508 C.2       21 UNK         0.5000 
    118 O          3.3603  -20.9338  -54.2407 O.2       21 UNK        -0.5000 
    119 N          1.2942  -20.2229  -54.8545 N.am      22 UNK        -0.5000 
    120 CA         1.7139  -19.1183  -55.7342 C.3       22 UNK         0.1400 
    121 C          1.5787  -19.5149  -57.2281 C.2       22 UNK         0.5000 
    122 N          0.5011  -20.1828  -57.6256 N.am      22 UNK        -0.7600 
    123 O          2.4572  -19.2168  -58.0324 O.2       22 UNK        -0.5000 
    124 C124        0.9364  -17.8023  -55.4738 C.3       23 UNK        -0.0398 
    125 S125        1.0474  -17.2272  -53.7460 S.3       23 UNK        -0.2404 
    126 C126       -0.6452  -17.6034  -53.2020 C.3       23 UNK        -0.0205 
    127 H127       -5.8555  -17.4720  -46.3075 H         1 UNK         0.0600 
    128 H128       -5.3969  -18.5212  -44.9596 H         1 UNK         0.0600 
    129 H129       -4.9012  -18.9264  -46.6027 H         1 UNK         0.0600 
    130 H130       -4.7603  -15.5554  -45.8560 H         1 UNK         0.3000 
    131 H131       -3.2030  -14.0422  -45.4965 H         1 UNK         0.0600 
    132 H132       -0.8507  -14.3865  -46.3786 H         1 UNK         0.0800 
    133 H133       -1.2418  -16.0274  -46.7549 H         1 UNK         0.0800 
    134 H134       -3.6799  -15.5479  -49.8265 H         1 UNK         0.0800 
    135 H135       -3.5764  -16.4722  -48.3675 H         1 UNK         0.0800 
    136 H136       -2.2149  -15.9673  -51.6728 H         1 UNK         0.1150 
    137 H137        0.5587  -19.2194  -51.3914 H         1 UNK         0.1150 
    138 H138       -1.4691  -17.8425  -47.8899 H         1 UNK         0.1150 
    139 H139        1.3481  -19.8254  -49.0067 H         1 UNK         0.0800 
    140 H140        0.2738  -19.4532  -47.6714 H         1 UNK         0.0800 
    141 H141        1.2293  -21.9744  -47.5156 H         1 UNK         0.0800 
    142 H142        0.4089  -23.3308  -48.2137 H         1 UNK         0.0800 
    143 H143       -0.0194  -23.3300  -45.8456 H         1 UNK         0.0600 
    144 H144       -0.0094  -20.5955  -45.9473 H         1 UNK         0.3000 
    145 H145       -1.0685  -19.1667  -44.0686 H         1 UNK         0.0600 
    146 H146       -0.7847  -19.0414  -41.6035 H         1 UNK         0.0600 
    147 H147       -2.1453  -20.0657  -42.0310 H         1 UNK         0.0600 
    148 H148       -0.6307  -20.7951  -41.5125 H         1 UNK         0.0600 
    149 H149        1.1268  -18.9030  -44.1124 H         1 UNK         0.3000 
    150 H150        3.7772  -19.9606  -42.6595 H         1 UNK         0.0600 
    151 H151        4.1742  -22.1520  -43.6533 H         1 UNK         0.0600 
    152 H152        5.1173  -20.9606  -44.5316 H         1 UNK         0.0600 
    153 H153        3.6333  -21.6072  -45.2319 H         1 UNK         0.0600 
    154 H154        3.8308  -18.1298  -43.8801 H         1 UNK         0.3000 
    155 H155        3.4428  -17.3306  -47.2448 H         1 UNK         0.0600 
    156 H156        1.0270  -17.0797  -46.7262 H         1 UNK         0.0600 
    157 H157        1.8435  -15.5310  -46.6008 H         1 UNK         0.0600 
    158 H158        1.4049  -16.4143  -45.1419 H         1 UNK         0.0600 
    159 H159        3.7527  -15.6846  -44.9018 H         1 UNK         0.3000 
    160 H160        7.3514  -15.8434  -44.9583 H         1 UNK         0.0600 
    161 H161        5.2813  -13.7008  -45.6820 H         1 UNK         0.0600 
    162 H162        6.6057  -14.2390  -46.7097 H         1 UNK         0.0600 
    163 H163        6.9511  -13.4070  -45.2011 H         1 UNK         0.0600 
    164 H164        4.9379  -14.8989  -43.4483 H         1 UNK         0.3000 
    165 H165        6.1793  -16.2301  -40.4408 H         1 UNK         0.0600 
    166 H166        5.9131  -13.9552  -39.4808 H         1 UNK         0.0600 
    167 H167        7.4141  -14.0555  -40.3867 H         1 UNK         0.0600 
    168 H168        6.0244  -13.2353  -41.0880 H         1 UNK         0.0600 
    169 H169        3.9353  -14.5524  -40.9939 H         1 UNK         0.3000 
    170 H170        1.8746  -16.8314  -42.6372 H         1 UNK         0.0600 
    171 H171        0.3018  -16.8375  -40.7714 H         1 UNK         0.0600 
    172 H172        1.6687  -17.8396  -40.3343 H         1 UNK         0.0600 
    173 H173        1.5238  -16.2187  -39.6610 H         1 UNK         0.0600 
    174 H174        1.0380  -14.4933  -41.4019 H         1 UNK         0.3000 
    175 H175        2.2348  -11.9956  -42.6630 H         1 UNK         0.0600 
    176 H176        2.4539  -12.2333  -45.1133 H         1 UNK         0.0600 
    177 H177        0.8721  -12.9969  -45.2214 H         1 UNK         0.0600 
    178 H178        1.0097  -11.3023  -44.7535 H         1 UNK         0.0600 
    179 H179       -0.4075  -13.3605  -42.9412 H         1 UNK         0.3000 
    180 H180       -1.6282  -11.9412  -40.0255 H         1 UNK         0.0600 
    181 H181       -2.0783   -9.8726  -41.3493 H         1 UNK         0.0600 
    182 H182       -2.5395  -10.8439  -42.7419 H         1 UNK         0.0600 
    183 H183       -3.5086  -10.8875  -41.2679 H         1 UNK         0.0600 
    184 H184       -2.9415  -13.2163  -42.2518 H         1 UNK         0.3000 
    185 H185       -1.8465  -16.4968  -41.6809 H         1 UNK         0.0600 
    186 H186       -3.5494  -16.3532  -39.8561 H         1 UNK         0.0600 
    187 H187       -4.5986  -15.4001  -40.8990 H         1 UNK         0.0600 
    188 H188       -4.2219  -17.0746  -41.3088 H         1 UNK         0.0600 
    189 H189       -3.9456  -15.5916  -43.3106 H         1 UNK         0.3000 
    190 H190       -1.2238  -25.0281  -46.6347 H         1 UNK         0.3000 
    191 H191       -4.0262  -24.9219  -46.2838 H         1 UNK         0.0600 
    192 H192       -2.2659  -27.0786  -47.5666 H         1 UNK         0.0600 
    193 H193       -3.9262  -27.3037  -47.0295 H         1 UNK         0.0600 
    194 H194       -2.6708  -26.9497  -45.8542 H         1 UNK         0.0600 
    195 H195       -2.0519  -24.5780  -49.1899 H         1 UNK         0.3000 
    196 H196       -4.0364  -25.0733  -51.1612 H         1 UNK         0.0600 
    197 H197       -1.5904  -25.0226  -51.6410 H         1 UNK         0.0600 
    198 H198       -1.5378  -23.2954  -51.2876 H         1 UNK         0.0600 
    199 H199       -2.4509  -23.8922  -52.6689 H         1 UNK         0.0600 
    200 H200       -3.2334  -22.1317  -49.3134 H         1 UNK         0.3000 
    201 H201       -5.0867  -20.4458  -50.8395 H         1 UNK         0.0600 
    202 H202       -4.4173  -18.7296  -49.1532 H         1 UNK         0.0600 
    203 H203       -3.4269  -19.9332  -48.3253 H         1 UNK         0.0600 
    204 H204       -3.0526  -19.4599  -49.9841 H         1 UNK         0.0600 
    205 H205       -5.0518  -22.2458  -47.7507 H         1 UNK         0.3000 
    206 H206       -7.5486  -21.2982  -46.7484 H         1 UNK         0.0600 
    207 H207       -5.8270  -22.5261  -45.3845 H         1 UNK         0.0600 
    208 H208       -7.4249  -23.2483  -45.2556 H         1 UNK         0.0600 
    209 H209       -6.2045  -24.0078  -46.2638 H         1 UNK         0.0600 
    210 H210       -6.7099  -23.9932  -48.9325 H         1 UNK         0.3000 
    211 H211       -9.4114  -24.9018  -49.3905 H         1 UNK         0.0600 
    212 H212       -8.3004  -26.2352  -51.1872 H         1 UNK         0.0600 
    213 H213       -7.4014  -26.3501  -49.6829 H         1 UNK         0.0600 
    214 H214       -6.8182  -25.3090  -50.9804 H         1 UNK         0.0600 
    215 H215       -7.8456  -22.0757  -50.3803 H         1 UNK         0.3000 
    216 H216       -8.1424  -20.4570  -51.8240 H         1 UNK         0.0600 
    217 H217      -10.3804  -19.9695  -52.6965 H         1 UNK         0.0600 
    218 H218      -10.5264  -20.5796  -51.0574 H         1 UNK         0.0600 
    219 H219      -10.9074  -21.6239  -52.4267 H         1 UNK         0.0600 
    220 H220       -6.8798  -22.9372  -52.7588 H         1 UNK         0.3000 
    221 H221       -7.3925  -23.0115  -55.6710 H         1 UNK         0.0600 
    222 H222       -5.3911  -24.5241  -53.9020 H         1 UNK         0.0600 
    223 H223       -6.9411  -25.1402  -54.4686 H         1 UNK         0.0600 
    224 H224       -5.6584  -24.7982  -55.6196 H         1 UNK         0.0600 
    225 H225       -5.0178  -21.8889  -53.3028 H         1 UNK         0.3000 
    226 H226       -3.2566  -20.5513  -53.3026 H         1 UNK         0.0600 
    227 H227       -4.8357  -18.8785  -54.2817 H         1 UNK         0.0600 
    228 H228       -3.1816  -18.5928  -54.7937 H         1 UNK         0.0600 
    229 H229       -4.3204  -19.3378  -55.9043 H         1 UNK         0.0600 
    230 H230       -3.1119  -23.1468  -54.7180 H         1 UNK         0.3000 
    231 H231       -1.3790  -23.1386  -56.9076 H         1 UNK         0.0600 
    232 H232       -2.7577  -25.0795  -56.1941 H         1 UNK         0.0600 
    233 H233       -1.7787  -25.2722  -54.7391 H         1 UNK         0.0600 
    234 H234       -1.0715  -25.5500  -56.3254 H         1 UNK         0.0600 
    235 H235       -0.5802  -22.5157  -53.6059 H         1 UNK         0.3000 
    236 H236        2.2360  -23.1319  -53.6805 H         1 UNK         0.0600 
    237 H237        2.2228  -21.6516  -51.5967 H         1 UNK         0.0600 
    238 H238        1.1056  -23.0053  -51.5364 H         1 UNK         0.0600 
    239 H239        0.5024  -21.3879  -51.8670 H         1 UNK         0.0600 
    240 H240        0.3039  -20.4341  -54.8615 H         1 UNK         0.3000 
    241 H241        2.7692  -18.8985  -55.5610 H         1 UNK         0.0600 
    242 H242        0.4113  -20.4449  -58.5943 H         1 UNK         0.3800 
    243 H243       -0.2552  -20.3806  -56.9774 H         1 UNK         0.3800 
    244 H244        1.3311  -17.0056  -56.1068 H         1 UNK         0.0800 
    245 H245       -0.1121  -17.9136  -55.7568 H         1 UNK         0.0800 
    246 H246       -1.3350  -16.9014  -53.6730 H         1 UNK         0.0800 
    247 H247       -0.9256  -18.5970  -53.5542 H         1 UNK         0.0800 
@<TRIPOS>BOND
     1    1    2 1    
     2    1  127 1    
     3    1  128 1    
     4    1  129 1    
     5    2    3 2    
     6    2    4 am   BACKBONE|DICT|INTERRES
     7    4    5 1    
     8    4  130 1    
     9    5    6 1    
    10    5   65 1    
    11    5  131 1    
    12    6    7 1    
    13    6  132 1    
    14    6  133 1    
    15    7    8 1    
    16    8    9 1    
    17    8  134 1    
    18    8  135 1    
    19    9   10 ar   
    20    9   14 ar   
    21   10   11 ar   
    22   10  136 1    
    23   11   12 ar   
    24   11  126 1    
    25   12   13 ar   
    26   12  137 1    
    27   13   14 ar   
    28   13   15 1    
    29   14  138 1    
    30   15   16 1    
    31   15  139 1    
    32   15  140 1    
    33   16   17 1    
    34   17   18 1    
    35   17  141 1    
    36   17  142 1    
    37   18   19 1    
    38   18   67 1    
    39   18  143 1    
    40   19   20 am   BACKBONE|DICT|INTERRES
    41   19  144 1    
    42   20   21 2    
    43   20   22 1    
    44   22   23 1    
    45   22   24 1    
    46   22  145 1    
    47   23  146 1    
    48   23  147 1    
    49   23  148 1    
    50   24   25 am   BACKBONE|DICT|INTERRES
    51   24  149 1    
    52   25   26 2    
    53   25   27 1    
    54   27   28 1    
    55   27   29 1    
    56   27  150 1    
    57   28  151 1    
    58   28  152 1    
    59   28  153 1    
    60   29   30 am   BACKBONE|DICT|INTERRES
    61   29  154 1    
    62   30   31 2    
    63   30   32 1    
    64   32   33 1    
    65   32   34 1    
    66   32  155 1    
    67   33  156 1    
    68   33  157 1    
    69   33  158 1    
    70   34   35 am   BACKBONE|DICT|INTERRES
    71   34  159 1    
    72   35   36 2    
    73   35   37 1    
    74   37   38 1    
    75   37   39 1    
    76   37  160 1    
    77   38  161 1    
    78   38  162 1    
    79   38  163 1    
    80   39   40 am   BACKBONE|DICT|INTERRES
    81   39  164 1    
    82   40   41 2    
    83   40   42 1    
    84   42   43 1    
    85   42   44 1    
    86   42  165 1    
    87   43  166 1    
    88   43  167 1    
    89   43  168 1    
    90   44   45 am   BACKBONE|DICT|INTERRES
    91   44  169 1    
    92   45   46 2    
    93   45   47 1    
    94   47   48 1    
    95   47   49 1    
    96   47  170 1    
    97   48  171 1    
    98   48  172 1    
    99   48  173 1    
   100   49   50 am   BACKBONE|DICT|INTERRES
   101   49  174 1    
   102   50   51 2    
   103   50   52 1    
   104   52   53 1    
   105   52   54 1    
   106   52  175 1    
   107   53  176 1    
   108   53  177 1    
   109   53  178 1    
   110   54   55 am   BACKBONE|DICT|INTERRES
   111   54  179 1    
   112   55   56 2    
   113   55   57 1    
   114   57   58 1    
   115   57   59 1    
   116   57  180 1    
   117   58  181 1    
   118   58  182 1    
   119   58  183 1    
   120   59   60 am   BACKBONE|DICT|INTERRES
   121   59  184 1    
   122   60   61 2    
   123   60   62 1    
   124   62   63 1    
   125   62   64 1    
   126   62  185 1    
   127   63  186 1    
   128   63  187 1    
   129   63  188 1    
   130   64   65 am   BACKBONE|DICT|INTERRES
   131   64  189 1    
   132   65   66 2    
   133   67   68 2    
   134   67   69 am   BACKBONE|DICT|INTERRES
   135   69   70 1    
   136   69  190 1    
   137   70   71 1    
   138   70   72 1    
   139   70  191 1    
   140   71  192 1    
   141   71  193 1    
   142   71  194 1    
   143   72   73 2    
   144   72   74 am   BACKBONE|DICT|INTERRES
   145   74   75 1    
   146   74  195 1    
   147   75   76 1    
   148   75   77 1    
   149   75  196 1    
   150   76  197 1    
   151   76  198 1    
   152   76  199 1    
   153   77   78 2    
   154   77   79 am   BACKBONE|DICT|INTERRES
   155   79   80 1    
   156   79  200 1    
   157   80   81 1    
   158   80   82 1    
   159   80  201 1    
   160   81  202 1    
   161   81  203 1    
   162   81  204 1    
   163   82   83 2    
   164   82   84 am   BACKBONE|DICT|INTERRES
   165   84   85 1    
   166   84  205 1    
   167   85   86 1    
   168   85   87 1    
   169   85  206 1    
   170   86  207 1    
   171   86  208 1    
   172   86  209 1    
   173   87   88 2    
   174   87   89 am   BACKBONE|DICT|INTERRES
   175   89   90 1    
   176   89  210 1    
   177   90   91 1    
   178   90   92 1    
   179   90  211 1    
   180   91  212 1    
   181   91  213 1    
   182   91  214 1    
   183   92   93 2    
   184   92   94 am   BACKBONE|DICT|INTERRES
   185   94   95 1    
   186   94  215 1    
   187   95   96 1    
   188   95   97 1    
   189   95  216 1    
   190   96  217 1    
   191   96  218 1    
   192   96  219 1    
   193   97   98 2    
   194   97   99 am   BACKBONE|DICT|INTERRES
   195   99  100 1    
   196   99  220 1    
   197  100  101 1    
   198  100  102 1    
   199  100  221 1    
   200  101  222 1    
   201  101  223 1    
   202  101  224 1    
   203  102  103 2    
   204  102  104 am   BACKBONE|DICT|INTERRES
   205  104  105 1    
   206  104  225 1    
   207  105  106 1    
   208  105  107 1    
   209  105  226 1    
   210  106  227 1    
   211  106  228 1    
   212  106  229 1    
   213  107  108 2    
   214  107  109 am   BACKBONE|DICT|INTERRES
   215  109  110 1    
   216  109  230 1    
   217  110  111 1    
   218  110  112 1    
   219  110  231 1    
   220  111  232 1    
   221  111  233 1    
   222  111  234 1    
   223  112  113 2    
   224  112  114 am   BACKBONE|DICT|INTERRES
   225  114  115 1    
   226  114  235 1    
   227  115  116 1    
   228  115  117 1    
   229  115  236 1    
   230  116  237 1    
   231  116  238 1    
   232  116  239 1    
   233  117  118 2    
   234  117  119 am   BACKBONE|DICT|INTERRES
   235  119  120 1    
   236  119  240 1    
   237  120  121 1    
   238  120  124 1    
   239  120  241 1    
   240  121  122 am   BACKBONE|DICT|INTERRES
   241  121  123 2    
   242  122  242 1    
   243  122  243 1    
   244  124  125 1    
   245  124  244 1    
   246  124  245 1    
   247  125  126 1    
   248  126  246 1    
   249  126  247 1    
@<TRIPOS>SUBSTRUCTURE
     1 UNK         1 GROUP             0       ****    0 ROOT    
