@<TRIPOS>MOLECULE
3R540
247   249    1
SMALL
USER_CHARGES


@<TRIPOS>ATOM
      1 CA          2.0484  -11.8992  -47.5579 C.3       0 UNK        -0.1800 
      2 C           3.3208  -12.6301  -47.1558 C.2       0 UNK         0.5000 
      3 O           4.3668  -11.9984  -47.0098 O.2       0 UNK        -0.5000 
      4 N           3.2358  -13.9546  -46.9707 N.am      1 UNK        -0.5000 
      5 CA          4.3748  -14.8542  -46.7343 C.3       1 UNK         0.1400 
      6 C6          3.9485  -16.3395  -46.8472 C.3       23 UNK        -0.0398 
      7 S7          5.3246  -17.4346  -47.3275 S.3       23 UNK        -0.2404 
      8 C8          5.2893  -17.2970  -49.1459 C.3       23 UNK        -0.0205 
      9 C9          4.0763  -17.9806  -49.7608 C.ar      23 UNK        -0.0193 
     10 C10         3.1197  -17.2429  -50.4637 C.ar      23 UNK        -0.1150 
     11 C11         2.0183  -17.8731  -51.0540 C.ar      23 UNK        -0.0193 
     12 C12         1.8753  -19.2610  -50.9131 C.ar      23 UNK        -0.1150 
     13 C13         2.8210  -20.0112  -50.2044 C.ar      23 UNK        -0.0193 
     14 C14         3.9277  -19.3631  -49.6492 C.ar      23 UNK        -0.1150 
     15 C15         2.6552  -21.5225  -50.0643 C.3       23 UNK        -0.0205 
     16 S16         3.0158  -22.1467  -48.3836 S.3       23 UNK        -0.2404 
     17 C17         1.7144  -21.3180  -47.4068 C.3       23 UNK        -0.0398 
     18 CA          0.5783  -22.2629  -46.9500 C.3       11 UNK         0.1400 
     19 N          -0.3299  -21.5976  -46.0149 N.am      11 UNK        -0.5000 
     20 C          -1.3201  -22.1998  -45.3411 C.2       10 UNK         0.5000 
     21 O          -1.5393  -23.4103  -45.3773 O.2       10 UNK        -0.5000 
     22 CA         -2.2595  -21.2856  -44.5348 C.3       10 UNK         0.1400 
     23 CB         -1.6357  -20.9113  -43.1824 C.3       10 UNK        -0.1800 
     24 N          -2.6151  -20.0716  -45.2703 N.am      10 UNK        -0.5000 
     25 C          -3.2987  -20.0622  -46.4235 C.2       9 UNK         0.5000 
     26 O          -3.7687  -21.0722  -46.9471 O.2       9 UNK        -0.5000 
     27 CA         -3.4503  -18.7070  -47.1324 C.3       9 UNK         0.1400 
     28 CB         -4.5966  -17.8921  -46.5202 C.3       9 UNK        -0.1800 
     29 N          -2.2214  -17.9124  -47.1278 N.am      9 UNK        -0.5000 
     30 C          -1.0733  -18.2726  -47.7194 C.2       8 UNK         0.5000 
     31 O          -0.9323  -19.3143  -48.3562 O.2       8 UNK        -0.5000 
     32 CA          0.1473  -17.3604  -47.4848 C.3       8 UNK         0.1400 
     33 CB          0.1333  -16.1269  -48.3952 C.3       8 UNK        -0.1800 
     34 N           0.2441  -16.9195  -46.0965 N.am      8 UNK        -0.5000 
     35 C           0.4906  -17.7288  -45.0591 C.2       7 UNK         0.5000 
     36 O           0.7447  -18.9284  -45.1668 O.2       7 UNK        -0.5000 
     37 CA          0.3860  -17.0850  -43.6669 C.3       7 UNK         0.1400 
     38 CB          1.6918  -16.3682  -43.3012 C.3       7 UNK        -0.1800 
     39 N          -0.7260  -16.1351  -43.5853 N.am      7 UNK        -0.5000 
     40 C          -2.0179  -16.4945  -43.5923 C.2       6 UNK         0.5000 
     41 O          -2.3979  -17.6636  -43.6374 O.2       6 UNK        -0.5000 
     42 CA         -3.0591  -15.3599  -43.5871 C.3       6 UNK         0.1400 
     43 CB         -3.3604  -14.9137  -42.1488 C.3       6 UNK        -0.1800 
     44 N          -2.6472  -14.1978  -44.3750 N.am      6 UNK        -0.5000 
     45 C          -2.4346  -14.1956  -45.6989 C.2       5 UNK         0.5000 
     46 O          -2.5976  -15.1796  -46.4195 O.2       5 UNK        -0.5000 
     47 CA         -1.9295  -12.8843  -46.3277 C.3       5 UNK         0.1400 
     48 CB         -3.0741  -12.1630  -47.0536 C.3       5 UNK        -0.1800 
     49 N          -1.3145  -11.9662  -45.3644 N.am      5 UNK        -0.5000 
     50 C          -0.1501  -12.1818  -44.7409 C.2       4 UNK         0.5000 
     51 O           0.5315  -13.2036  -44.8804 O.2       4 UNK        -0.5000 
     52 CA          0.3262  -11.0781  -43.7913 C.3       4 UNK         0.1400 
     53 CB         -0.0256  -11.4193  -42.3341 C.3       4 UNK        -0.1800 
     54 N           1.7683  -10.9660  -43.9400 N.am      4 UNK        -0.5000 
     55 C           2.5043   -9.8610  -43.7776 C.2       3 UNK         0.5000 
     56 O           2.0337   -8.7756  -43.4334 O.2       3 UNK        -0.5000 
     57 CA          4.0153   -9.9920  -44.0777 C.3       3 UNK         0.1400 
     58 CB          4.8822   -9.0295  -43.2389 C.3       3 UNK        -0.1800 
     59 N           4.5058  -11.3748  -43.9895 N.am      3 UNK        -0.5000 
     60 C           4.5671  -12.1494  -42.8936 C.2       2 UNK         0.5000 
     61 O           4.2894  -11.7558  -41.7602 O.2       2 UNK        -0.5000 
     62 CA          4.9530  -13.6236  -43.1211 C.3       2 UNK         0.1400 
     63 CB          4.4565  -14.5420  -41.9903 C.3       2 UNK        -0.1800 
     64 N           4.4078  -14.0932  -44.3977 N.am      2 UNK        -0.5000 
     65 C           5.1342  -14.5641  -45.4187 C.2       1 UNK         0.5000 
     66 O           6.3538  -14.7284  -45.3710 O.2       1 UNK        -0.5000 
     67 C          -0.1860  -22.8852  -48.1379 C.2       11 UNK         0.5000 
     68 O           0.0089  -24.0656  -48.4209 O.2       11 UNK        -0.5000 
     69 N          -1.0650  -22.1057  -48.7831 N.am      12 UNK        -0.5000 
     70 CA         -1.9090  -22.5440  -49.8966 C.3       12 UNK         0.1400 
     71 CB         -2.7020  -21.3478  -50.4379 C.3       12 UNK        -0.1800 
     72 C          -2.8500  -23.7043  -49.5236 C.2       12 UNK         0.5000 
     73 O          -2.9723  -24.6584  -50.2941 O.2       12 UNK        -0.5000 
     74 N          -3.4530  -23.6297  -48.3294 N.am      13 UNK        -0.5000 
     75 CA         -4.2878  -24.6850  -47.7615 C.3       13 UNK         0.1400 
     76 CB         -4.9915  -24.1643  -46.4998 C.3       13 UNK        -0.1800 
     77 C          -3.4917  -25.9708  -47.4679 C.2       13 UNK         0.5000 
     78 O          -3.9455  -27.0553  -47.8336 O.2       13 UNK        -0.5000 
     79 N          -2.3064  -25.8301  -46.8553 N.am      14 UNK        -0.5000 
     80 CA         -1.3873  -26.9318  -46.5517 C.3       14 UNK         0.1400 
     81 CB         -0.2563  -26.4234  -45.6451 C.3       14 UNK        -0.1800 
     82 C          -0.8114  -27.6074  -47.8111 C.2       14 UNK         0.5000 
     83 O          -0.6689  -28.8303  -47.8350 O.2       14 UNK        -0.5000 
     84 N          -0.5227  -26.8049  -48.8438 N.am      15 UNK        -0.5000 
     85 CA         -0.0671  -27.2469  -50.1636 C.3       15 UNK         0.1400 
     86 CB          0.5330  -26.0429  -50.9083 C.3       15 UNK        -0.1800 
     87 C          -1.1747  -27.9017  -51.0146 C.2       15 UNK         0.5000 
     88 O          -0.8596  -28.4916  -52.0489 O.2       15 UNK        -0.5000 
     89 N          -2.4369  -27.7793  -50.5768 N.am      16 UNK        -0.5000 
     90 CA         -3.6600  -28.2450  -51.2333 C.3       16 UNK         0.1400 
     91 CB         -3.6958  -29.7856  -51.3173 C.3       16 UNK        -0.1800 
     92 C          -3.8984  -27.5466  -52.5875 C.2       16 UNK         0.5000 
     93 O          -4.2355  -28.2000  -53.5777 O.2       16 UNK        -0.5000 
     94 N          -3.7177  -26.2191  -52.5972 N.am      17 UNK        -0.5000 
     95 CA         -4.0397  -25.3309  -53.7129 C.3       17 UNK         0.1400 
     96 CB         -3.1600  -24.0705  -53.6029 C.3       17 UNK        -0.1800 
     97 C          -5.5509  -25.0042  -53.7417 C.2       17 UNK         0.5000 
     98 O          -6.3644  -25.7590  -53.2005 O.2       17 UNK        -0.5000 
     99 N          -5.9184  -23.8753  -54.3623 N.am      18 UNK        -0.5000 
    100 CA        -7.2877  -23.3590  -54.4679 C.3       18 UNK         0.1400 
    101 CB        -7.3404  -22.3457  -55.6260 C.3       18 UNK        -0.1800 
    102 C         -7.8065  -22.7704  -53.1346 C.2       18 UNK         0.5000 
    103 O         -8.1736  -21.5955  -53.0754 O.2       18 UNK        -0.5000 
    104 N         -7.8097  -23.6060  -52.0872 N.am      19 UNK        -0.5000 
    105 CA        -8.1442  -23.3049  -50.6943 C.3       19 UNK         0.1400 
    106 CB        -9.6554  -23.0132  -50.5501 C.3       19 UNK        -0.1800 
    107 C         -7.2214  -22.2102  -50.1168 C.2       19 UNK         0.5000 
    108 O         -6.0070  -22.2782  -50.3142 O.2       19 UNK        -0.5000 
    109 N         -7.8001  -21.2186  -49.4297 N.am      20 UNK        -0.5000 
    110 CA        -7.1255  -20.0662  -48.8296 C.3       20 UNK         0.1400 
    111 CB        -8.0473  -19.4984  -47.7333 C.3       20 UNK        -0.1800 
    112 C         -6.7166  -19.0013  -49.8746 C.2       20 UNK         0.5000 
    113 O         -7.0386  -17.8220  -49.7175 O.2       20 UNK        -0.5000 
    114 N         -6.0301  -19.4364  -50.9367 N.am      21 UNK        -0.5000 
    115 CA        -5.4735  -18.5885  -51.9896 C.3       21 UNK         0.1400 
    116 CB        -5.0756  -19.4770  -53.1789 C.3       21 UNK        -0.1800 
    117 C         -4.2603  -17.7847  -51.4866 C.2       21 UNK         0.5000 
    118 O         -3.6125  -18.2001  -50.5284 O.2       21 UNK        -0.5000 
    119 N         -3.9812  -16.6557  -52.1483 N.am      22 UNK        -0.5000 
    120 CA        -2.8421  -15.7283  -51.9694 C.3       22 UNK         0.1400 
    121 C         -2.5785  -15.1232  -50.5521 C.2       22 UNK         0.5000 
    122 N         -3.1542  -15.6439  -49.4783 N.am      22 UNK        -0.7600 
    123 O         -1.8656  -14.1301  -50.4375 O.2       22 UNK        -0.5000 
    124 C124       -1.5451  -16.2176  -52.6800 C.3       23 UNK        -0.0398 
    125 S125       -0.6810  -17.6313  -51.9008 S.3       23 UNK        -0.2404 
    126 C126        1.0426  -17.0265  -51.8755 C.3       23 UNK        -0.0205 
    127 H127        1.8351  -11.0936  -46.8564 H         1 UNK         0.0600 
    128 H128        1.1887  -12.5684  -47.5861 H         1 UNK         0.0600 
    129 H129        2.1684  -11.4621  -48.5489 H         1 UNK         0.0600 
    130 H130        2.3341  -14.3977  -47.0623 H         1 UNK         0.3000 
    131 H131        5.0781  -14.6458  -47.5435 H         1 UNK         0.0600 
    132 H132        3.5171  -16.7007  -45.9121 H         1 UNK         0.0800 
    133 H133        3.1629  -16.4562  -47.5925 H         1 UNK         0.0800 
    134 H134        6.1921  -17.7587  -49.5479 H         1 UNK         0.0800 
    135 H135        5.3331  -16.2453  -49.4325 H         1 UNK         0.0800 
    136 H136        3.2434  -16.1741  -50.5686 H         1 UNK         0.1150 
    137 H137        1.0323  -19.7643  -51.3642 H         1 UNK         0.1150 
    138 H138        4.6748  -19.9334  -49.1154 H         1 UNK         0.1150 
    139 H139        1.6443  -21.8252  -50.3422 H         1 UNK         0.0800 
    140 H140        3.3279  -22.0112  -50.7699 H         1 UNK         0.0800 
    141 H141        1.3151  -20.4721  -47.9641 H         1 UNK         0.0800 
    142 H142        2.2007  -20.8857  -46.5313 H         1 UNK         0.0800 
    143 H143        1.0391  -23.0864  -46.4001 H         1 UNK         0.0600 
    144 H144       -0.2016  -20.5983  -45.8969 H         1 UNK         0.3000 
    145 H145       -3.1798  -21.8409  -44.3427 H         1 UNK         0.0600 
    146 H146       -1.3788  -21.8039  -42.6108 H         1 UNK         0.0600 
    147 H147       -0.7244  -20.3259  -43.3056 H         1 UNK         0.0600 
    148 H148       -2.3290  -20.3260  -42.5780 H         1 UNK         0.0600 
    149 H149       -2.3237  -19.1877  -44.8638 H         1 UNK         0.3000 
    150 H150       -3.7092  -18.9245  -48.1669 H         1 UNK         0.0600 
    151 H151       -5.5047  -18.4889  -46.4552 H         1 UNK         0.0600 
    152 H152       -4.8217  -17.0123  -47.1235 H         1 UNK         0.0600 
    153 H153       -4.3590  -17.5580  -45.5117 H         1 UNK         0.0600 
    154 H154       -2.2687  -17.0084  -46.6670 H         1 UNK         0.3000 
    155 H155        1.0389  -17.9439  -47.7256 H         1 UNK         0.0600 
    156 H156       -0.6122  -15.3968  -48.0872 H         1 UNK         0.0600 
    157 H157        1.1006  -15.6282  -48.4124 H         1 UNK         0.0600 
    158 H158       -0.1012  -16.4080  -49.4174 H         1 UNK         0.0600 
    159 H159       -0.0044  -15.9607  -45.9039 H         1 UNK         0.3000 
    160 H160        0.2173  -17.8826  -42.9403 H         1 UNK         0.0600 
    161 H161        1.8867  -15.5240  -43.9626 H         1 UNK         0.0600 
    162 H162        2.5451  -17.0447  -43.3667 H         1 UNK         0.0600 
    163 H163        1.6519  -15.9934  -42.2788 H         1 UNK         0.0600 
    164 H164       -0.4912  -15.1523  -43.5770 H         1 UNK         0.3000 
    165 H165       -3.9808  -15.7494  -44.0228 H         1 UNK         0.0600 
    166 H166       -4.1564  -14.1692  -42.1254 H         1 UNK         0.0600 
    167 H167       -3.6881  -15.7570  -41.5393 H         1 UNK         0.0600 
    168 H168       -2.4819  -14.4820  -41.6674 H         1 UNK         0.0600 
    169 H169       -2.4999  -13.3372  -43.8701 H         1 UNK         0.3000 
    170 H170       -1.1751  -13.1525  -47.0699 H         1 UNK         0.0600 
    171 H171       -3.5284  -12.8095  -47.8062 H         1 UNK         0.0600 
    172 H172       -3.8613  -11.8580  -46.3631 H         1 UNK         0.0600 
    173 H173       -2.7145  -11.2729  -47.5701 H         1 UNK         0.0600 
    174 H174       -1.8121  -11.1043  -45.1908 H         1 UNK         0.3000 
    175 H175       -0.1468  -10.1350  -44.0732 H         1 UNK         0.0600 
    176 H176        0.4337  -12.3574  -42.0189 H         1 UNK         0.0600 
    177 H177        0.3142  -10.6378  -41.6542 H         1 UNK         0.0600 
    178 H178       -1.1037  -11.5181  -42.2030 H         1 UNK         0.0600 
    179 H179        2.2178  -11.8136  -44.2536 H         1 UNK         0.3000 
    180 H180        4.1330   -9.7043  -45.1234 H         1 UNK         0.0600 
    181 H181        4.7467   -9.1855  -42.1685 H         1 UNK         0.0600 
    182 H182        4.6260   -7.9906  -43.4492 H         1 UNK         0.0600 
    183 H183        5.9411   -9.1528  -43.4658 H         1 UNK         0.0600 
    184 H184        4.7511  -11.7928  -44.8804 H         1 UNK         0.3000 
    185 H185        6.0441  -13.6589  -43.1297 H         1 UNK         0.0600 
    186 H186        4.9460  -14.2986  -41.0467 H         1 UNK         0.0600 
    187 H187        3.3823  -14.4408  -41.8360 H         1 UNK         0.0600 
    188 H188        4.6711  -15.5888  -42.2061 H         1 UNK         0.0600 
    189 H189        3.4146  -13.9720  -44.5348 H         1 UNK         0.3000 
    190 H190       -1.1414  -21.1249  -48.5177 H         1 UNK         0.3000 
    191 H191       -1.2481  -22.8987  -50.6898 H         1 UNK         0.0600 
    192 H192       -3.3490  -20.9154  -49.6745 H         1 UNK         0.0600 
    193 H193       -3.3390  -21.6428  -51.2705 H         1 UNK         0.0600 
    194 H194       -2.0380  -20.5601  -50.7952 H         1 UNK         0.0600 
    195 H195       -3.3468  -22.7818  -47.7794 H         1 UNK         0.3000 
    196 H196       -5.0561  -24.9300  -48.4981 H         1 UNK         0.0600 
    197 H197       -5.6334  -24.9312  -46.0649 H         1 UNK         0.0600 
    198 H198       -5.6203  -23.3035  -46.7293 H         1 UNK         0.0600 
    199 H199       -4.2760  -23.8597  -45.7354 H         1 UNK         0.0600 
    200 H200       -2.0123  -24.9032  -46.5596 H         1 UNK         0.3000 
    201 H201       -1.9480  -27.6889  -45.9998 H         1 UNK         0.0600 
    202 H202       -0.6501  -26.0268  -44.7092 H         1 UNK         0.0600 
    203 H203        0.3206  -25.6330  -46.1263 H         1 UNK         0.0600 
    204 H204        0.4349  -27.2283  -45.3920 H         1 UNK         0.0600 
    205 H205       -0.5899  -25.7980  -48.7081 H         1 UNK         0.3000 
    206 H206        0.7202  -27.9902  -50.0238 H         1 UNK         0.0600 
    207 H207        1.3599  -25.6044  -50.3492 H         1 UNK         0.0600 
    208 H208        0.9213  -26.3364  -51.8843 H         1 UNK         0.0600 
    209 H209       -0.2119  -25.2631  -51.0718 H         1 UNK         0.0600 
    210 H210       -2.5816  -27.2558  -49.7231 H         1 UNK         0.3000 
    211 H211       -4.4830  -27.9359  -50.5873 H         1 UNK         0.0600 
    212 H212       -2.9359  -30.1759  -51.9947 H         1 UNK         0.0600 
    213 H213       -4.6640  -30.1324  -51.6800 H         1 UNK         0.0600 
    214 H214       -3.5363  -30.2364  -50.3378 H         1 UNK         0.0600 
    215 H215       -3.4482  -25.7583  -51.7303 H         1 UNK         0.3000 
    216 H216       -3.7946  -25.8361  -54.6491 H         1 UNK         0.0600 
    217 H217       -3.2157  -23.4620  -54.5059 H         1 UNK         0.0600 
    218 H218       -2.1112  -24.3328  -53.4613 H         1 UNK         0.0600 
    219 H219       -3.4618  -23.4470  -52.7616 H         1 UNK         0.0600 
    220 H220       -5.1965  -23.2909  -54.7574 H         1 UNK         0.3000 
    221 H221       -7.9499  -24.1876  -54.7274 H         1 UNK         0.0600 
    222 H222       -6.6856  -21.4925  -55.4465 H         1 UNK         0.0600 
    223 H223       -7.0397  -22.8068  -56.5669 H         1 UNK         0.0600 
    224 H224       -8.3518  -21.9614  -55.7649 H         1 UNK         0.0600 
    225 H225       -7.4264  -24.5328  -52.2561 H         1 UNK         0.3000 
    226 H226       -7.9264  -24.2106  -50.1268 H         1 UNK         0.0600 
    227 H227      -10.2486  -23.8215  -50.9780 H         1 UNK         0.0600 
    228 H228       -9.9456  -22.9298  -49.5021 H         1 UNK         0.0600 
    229 H229       -9.9463  -22.0907  -51.0540 H         1 UNK         0.0600 
    230 H230       -8.8068  -21.2240  -49.3565 H         1 UNK         0.3000 
    231 H231       -6.2055  -20.4095  -48.3513 H         1 UNK         0.0600 
    232 H232       -7.6170  -18.6164  -47.2599 H         1 UNK         0.0600 
    233 H233       -8.2217  -20.2335  -46.9474 H         1 UNK         0.0600 
    234 H234       -9.0160  -19.2042  -48.1387 H         1 UNK         0.0600 
    235 H235       -5.7927  -20.4223  -50.9667 H         1 UNK         0.3000 
    236 H236       -6.2475  -17.8906  -52.3152 H         1 UNK         0.0600 
    237 H237       -5.9314  -20.0369  -53.5544 H         1 UNK         0.0600 
    238 H238       -4.6918  -18.8785  -54.0057 H         1 UNK         0.0600 
    239 H239       -4.3001  -20.1928  -52.9061 H         1 UNK         0.0600 
    240 H240       -4.6078  -16.3948  -52.8958 H         1 UNK         0.3000 
    241 H241       -3.1655  -14.8570  -52.5404 H         1 UNK         0.0600 
    242 H242       -3.5978  -16.5505  -49.5806 H         1 UNK         0.3800 
    243 H243       -2.9824  -15.2612  -48.5601 H         1 UNK         0.3800 
    244 H244       -1.7822  -16.5055  -53.7048 H         1 UNK         0.0800 
    245 H245       -0.8513  -15.3811  -52.7750 H         1 UNK         0.0800 
    246 H246        1.4095  -16.9735  -52.9011 H         1 UNK         0.0800 
    247 H247        1.0425  -16.0046  -51.4931 H         1 UNK         0.0800 
@<TRIPOS>BOND
     1    1    2 1    
     2    1  127 1    
     3    1  128 1    
     4    1  129 1    
     5    2    3 2    
     6    2    4 am   BACKBONE|DICT|INTERRES
     7    4    5 1    
     8    4  130 1    
     9    5    6 1    
    10    5   65 1    
    11    5  131 1    
    12    6    7 1    
    13    6  132 1    
    14    6  133 1    
    15    7    8 1    
    16    8    9 1    
    17    8  134 1    
    18    8  135 1    
    19    9   10 ar   
    20    9   14 ar   
    21   10   11 ar   
    22   10  136 1    
    23   11   12 ar   
    24   11  126 1    
    25   12   13 ar   
    26   12  137 1    
    27   13   14 ar   
    28   13   15 1    
    29   14  138 1    
    30   15   16 1    
    31   15  139 1    
    32   15  140 1    
    33   16   17 1    
    34   17   18 1    
    35   17  141 1    
    36   17  142 1    
    37   18   19 1    
    38   18   67 1    
    39   18  143 1    
    40   19   20 am   BACKBONE|DICT|INTERRES
    41   19  144 1    
    42   20   21 2    
    43   20   22 1    
    44   22   23 1    
    45   22   24 1    
    46   22  145 1    
    47   23  146 1    
    48   23  147 1    
    49   23  148 1    
    50   24   25 am   BACKBONE|DICT|INTERRES
    51   24  149 1    
    52   25   26 2    
    53   25   27 1    
    54   27   28 1    
    55   27   29 1    
    56   27  150 1    
    57   28  151 1    
    58   28  152 1    
    59   28  153 1    
    60   29   30 am   BACKBONE|DICT|INTERRES
    61   29  154 1    
    62   30   31 2    
    63   30   32 1    
    64   32   33 1    
    65   32   34 1    
    66   32  155 1    
    67   33  156 1    
    68   33  157 1    
    69   33  158 1    
    70   34   35 am   BACKBONE|DICT|INTERRES
    71   34  159 1    
    72   35   36 2    
    73   35   37 1    
    74   37   38 1    
    75   37   39 1    
    76   37  160 1    
    77   38  161 1    
    78   38  162 1    
    79   38  163 1    
    80   39   40 am   BACKBONE|DICT|INTERRES
    81   39  164 1    
    82   40   41 2    
    83   40   42 1    
    84   42   43 1    
    85   42   44 1    
    86   42  165 1    
    87   43  166 1    
    88   43  167 1    
    89   43  168 1    
    90   44   45 am   BACKBONE|DICT|INTERRES
    91   44  169 1    
    92   45   46 2    
    93   45   47 1    
    94   47   48 1    
    95   47   49 1    
    96   47  170 1    
    97   48  171 1    
    98   48  172 1    
    99   48  173 1    
   100   49   50 am   BACKBONE|DICT|INTERRES
   101   49  174 1    
   102   50   51 2    
   103   50   52 1    
   104   52   53 1    
   105   52   54 1    
   106   52  175 1    
   107   53  176 1    
   108   53  177 1    
   109   53  178 1    
   110   54   55 am   BACKBONE|DICT|INTERRES
   111   54  179 1    
   112   55   56 2    
   113   55   57 1    
   114   57   58 1    
   115   57   59 1    
   116   57  180 1    
   117   58  181 1    
   118   58  182 1    
   119   58  183 1    
   120   59   60 am   BACKBONE|DICT|INTERRES
   121   59  184 1    
   122   60   61 2    
   123   60   62 1    
   124   62   63 1    
   125   62   64 1    
   126   62  185 1    
   127   63  186 1    
   128   63  187 1    
   129   63  188 1    
   130   64   65 am   BACKBONE|DICT|INTERRES
   131   64  189 1    
   132   65   66 2    
   133   67   68 2    
   134   67   69 am   BACKBONE|DICT|INTERRES
   135   69   70 1    
   136   69  190 1    
   137   70   71 1    
   138   70   72 1    
   139   70  191 1    
   140   71  192 1    
   141   71  193 1    
   142   71  194 1    
   143   72   73 2    
   144   72   74 am   BACKBONE|DICT|INTERRES
   145   74   75 1    
   146   74  195 1    
   147   75   76 1    
   148   75   77 1    
   149   75  196 1    
   150   76  197 1    
   151   76  198 1    
   152   76  199 1    
   153   77   78 2    
   154   77   79 am   BACKBONE|DICT|INTERRES
   155   79   80 1    
   156   79  200 1    
   157   80   81 1    
   158   80   82 1    
   159   80  201 1    
   160   81  202 1    
   161   81  203 1    
   162   81  204 1    
   163   82   83 2    
   164   82   84 am   BACKBONE|DICT|INTERRES
   165   84   85 1    
   166   84  205 1    
   167   85   86 1    
   168   85   87 1    
   169   85  206 1    
   170   86  207 1    
   171   86  208 1    
   172   86  209 1    
   173   87   88 2    
   174   87   89 am   BACKBONE|DICT|INTERRES
   175   89   90 1    
   176   89  210 1    
   177   90   91 1    
   178   90   92 1    
   179   90  211 1    
   180   91  212 1    
   181   91  213 1    
   182   91  214 1    
   183   92   93 2    
   184   92   94 am   BACKBONE|DICT|INTERRES
   185   94   95 1    
   186   94  215 1    
   187   95   96 1    
   188   95   97 1    
   189   95  216 1    
   190   96  217 1    
   191   96  218 1    
   192   96  219 1    
   193   97   98 2    
   194   97   99 am   BACKBONE|DICT|INTERRES
   195   99  100 1    
   196   99  220 1    
   197  100  101 1    
   198  100  102 1    
   199  100  221 1    
   200  101  222 1    
   201  101  223 1    
   202  101  224 1    
   203  102  103 2    
   204  102  104 am   BACKBONE|DICT|INTERRES
   205  104  105 1    
   206  104  225 1    
   207  105  106 1    
   208  105  107 1    
   209  105  226 1    
   210  106  227 1    
   211  106  228 1    
   212  106  229 1    
   213  107  108 2    
   214  107  109 am   BACKBONE|DICT|INTERRES
   215  109  110 1    
   216  109  230 1    
   217  110  111 1    
   218  110  112 1    
   219  110  231 1    
   220  111  232 1    
   221  111  233 1    
   222  111  234 1    
   223  112  113 2    
   224  112  114 am   BACKBONE|DICT|INTERRES
   225  114  115 1    
   226  114  235 1    
   227  115  116 1    
   228  115  117 1    
   229  115  236 1    
   230  116  237 1    
   231  116  238 1    
   232  116  239 1    
   233  117  118 2    
   234  117  119 am   BACKBONE|DICT|INTERRES
   235  119  120 1    
   236  119  240 1    
   237  120  121 1    
   238  120  124 1    
   239  120  241 1    
   240  121  122 am   BACKBONE|DICT|INTERRES
   241  121  123 2    
   242  122  242 1    
   243  122  243 1    
   244  124  125 1    
   245  124  244 1    
   246  124  245 1    
   247  125  126 1    
   248  126  246 1    
   249  126  247 1    
@<TRIPOS>SUBSTRUCTURE
     1 UNK         1 GROUP             0       ****    0 ROOT    
