@<TRIPOS>MOLECULE
3R540
247   249    1
SMALL
USER_CHARGES


@<TRIPOS>ATOM
      1 CA          6.1923  -10.7943  -45.0452 C.3       0 UNK        -0.1800 
      2 C           6.0725  -10.1887  -46.4421 C.2       0 UNK         0.5000 
      3 O           6.7750   -9.2268  -46.7445 O.2       0 UNK        -0.5000 
      4 N           5.2132  -10.7109  -47.3287 N.am      1 UNK        -0.5000 
      5 CA          4.2648  -11.8078  -47.0968 C.3       1 UNK         0.1400 
      6 C6          3.8694  -12.4911  -48.4279 C.3       23 UNK        -0.0398 
      7 S7          3.1635  -14.1630  -48.2115 S.3       23 UNK        -0.2404 
      8 C8          3.9074  -15.0322  -49.6279 C.3       23 UNK        -0.0205 
      9 C9          3.0110  -16.1461  -50.1451 C.ar      23 UNK        -0.0193 
     10 C10         1.8273  -15.8255  -50.8139 C.ar      23 UNK        -0.1150 
     11 C11         1.0117  -16.8292  -51.3405 C.ar      23 UNK        -0.0193 
     12 C12         1.3919  -18.1678  -51.2032 C.ar      23 UNK        -0.1150 
     13 C13         2.5815  -18.5020  -50.5465 C.ar      23 UNK        -0.0193 
     14 C14         3.3805  -17.4873  -50.0084 C.ar      23 UNK        -0.1150 
     15 C15         3.0340  -19.9529  -50.4612 C.3       23 UNK        -0.0205 
     16 S16         2.5081  -20.7500  -48.9141 S.3       23 UNK        -0.2404 
     17 C17         0.7331  -21.0071  -49.2329 C.3       23 UNK        -0.0398 
     18 CA          0.1492  -22.1642  -48.3876 C.3       11 UNK         0.1400 
     19 N           0.0897  -21.8578  -46.9526 N.am      11 UNK        -0.5000 
     20 C          -0.2974  -22.7205  -46.0000 C.2       10 UNK         0.5000 
     21 O          -0.5925  -23.8952  -46.2181 O.2       10 UNK        -0.5000 
     22 CA         -0.4341  -22.1737  -44.5682 C.3       10 UNK         0.1400 
     23 CB          0.9238  -22.1593  -43.8510 C.3       10 UNK        -0.1800 
     24 N          -1.0463  -20.8447  -44.5258 N.am      10 UNK        -0.5000 
     25 C          -2.3018  -20.5773  -44.9148 C.2       9 UNK         0.5000 
     26 O          -3.0898  -21.4364  -45.3077 O.2       9 UNK        -0.5000 
     27 CA         -2.7432  -19.1022  -44.9109 C.3       9 UNK         0.1400 
     28 CB         -3.1357  -18.6504  -43.4972 C.3       9 UNK        -0.1800 
     29 N          -1.7196  -18.2080  -45.4501 N.am      9 UNK        -0.5000 
     30 C          -1.2665  -18.2459  -46.7118 C.2       8 UNK         0.5000 
     31 O          -1.7128  -19.0016  -47.5771 O.2       8 UNK        -0.5000 
     32 CA         -0.0767  -17.3228  -47.0388 C.3       8 UNK         0.1400 
     33 CB         -0.5500  -15.8895  -47.3228 C.3       8 UNK        -0.1800 
     34 N           0.9212  -17.2976  -45.9675 N.am      8 UNK        -0.5000 
     35 C           1.6270  -18.3612  -45.5596 C.2       7 UNK         0.5000 
     36 O           1.5278  -19.4799  -46.0582 O.2       7 UNK        -0.5000 
     37 CA          2.5491  -18.1515  -44.3473 C.3       7 UNK         0.1400 
     38 CB          3.8160  -17.3811  -44.7513 C.3       7 UNK        -0.1800 
     39 N           1.8635  -17.4521  -43.2595 N.am      7 UNK        -0.5000 
     40 C           0.8510  -17.9733  -42.5478 C.2       6 UNK         0.5000 
     41 O           0.4373  -19.1212  -42.6996 O.2       6 UNK        -0.5000 
     42 CA          0.1478  -17.0581  -41.5234 C.3       6 UNK         0.1400 
     43 CB          0.8046  -17.1955  -40.1423 C.3       6 UNK        -0.1800 
     44 N           0.1419  -15.6488  -41.9121 N.am      6 UNK        -0.5000 
     45 C          -0.3867  -15.1606  -43.0423 C.2       5 UNK         0.5000 
     46 O          -1.0619  -15.8350  -43.8204 O.2       5 UNK        -0.5000 
     47 CA         -0.0615  -13.6944  -43.3957 C.3       5 UNK         0.1400 
     48 CB         -1.2820  -12.7966  -43.1458 C.3       5 UNK        -0.1800 
     49 N           1.1007  -13.1196  -42.7040 N.am      5 UNK        -0.5000 
     50 C           2.3554  -13.5963  -42.7257 C.2       4 UNK         0.5000 
     51 O           2.6710  -14.6684  -43.2434 O.2       4 UNK        -0.5000 
     52 CA          3.4244  -12.7070  -42.0724 C.3       4 UNK         0.1400 
     53 CB          4.8606  -13.1948  -42.3409 C.3       4 UNK        -0.1800 
     54 N           3.2753  -11.3439  -42.5730 N.am      4 UNK        -0.5000 
     55 C           3.3736  -10.2263  -41.8422 C.2       3 UNK         0.5000 
     56 O           3.5812  -10.2276  -40.6283 O.2       3 UNK        -0.5000 
     57 CA          3.2354   -8.8752  -42.5780 C.3       3 UNK         0.1400 
     58 CB          4.5572   -8.0917  -42.5224 C.3       3 UNK        -0.1800 
     59 N           2.8357   -9.0084  -43.9807 N.am      3 UNK        -0.5000 
     60 C           1.5911   -9.2562  -44.4091 C.2       2 UNK         0.5000 
     61 O           0.6182   -9.3636  -43.6627 O.2       2 UNK        -0.5000 
     62 CA          1.4194   -9.4577  -45.9278 C.3       2 UNK         0.1400 
     63 CB          1.1095   -8.1206  -46.6172 C.3       2 UNK        -0.1800 
     64 N           2.5860  -10.0745  -46.5723 N.am      2 UNK        -0.5000 
     65 C           3.0230  -11.3185  -46.3214 C.2       1 UNK         0.5000 
     66 O           2.5151  -12.0479  -45.4737 O.2       1 UNK        -0.5000 
     67 C          -1.2232  -22.5939  -48.9410 C.2       11 UNK         0.5000 
     68 O          -1.2904  -23.5888  -49.6609 O.2       11 UNK        -0.5000 
     69 N          -2.2896  -21.8746  -48.5615 N.am      12 UNK        -0.5000 
     70 CA         -3.6686  -22.2334  -48.8885 C.3       12 UNK         0.1400 
     71 CB         -4.6142  -21.0907  -48.4837 C.3       12 UNK        -0.1800 
     72 C          -4.0924  -23.5593  -48.2310 C.2       12 UNK         0.5000 
     73 O          -4.5506  -24.4649  -48.9286 O.2       12 UNK        -0.5000 
     74 N          -3.9092  -23.6590  -46.9062 N.am      13 UNK        -0.5000 
     75 CA         -4.3003  -24.8041  -46.0796 C.3       13 UNK         0.1400 
     76 CB         -3.9998  -24.5014  -44.6049 C.3       13 UNK        -0.1800 
     77 C          -3.6512  -26.1355  -46.4969 C.2       13 UNK         0.5000 
     78 O          -4.3136  -27.1716  -46.4292 O.2       13 UNK        -0.5000 
     79 N          -2.3995  -26.0817  -46.9742 N.am      14 UNK        -0.5000 
     80 CA         -1.6351  -27.2206  -47.4928 C.3       14 UNK         0.1400 
     81 CB         -0.2189  -26.7501  -47.8585 C.3       14 UNK        -0.1800 
     82 C          -2.2860  -27.9391  -48.6938 C.2       14 UNK         0.5000 
     83 O          -1.9987  -29.1168  -48.9126 O.2       14 UNK        -0.5000 
     84 N          -3.1554  -27.2369  -49.4309 N.am      15 UNK        -0.5000 
     85 CA         -3.9411  -27.7666  -50.5444 C.3       15 UNK         0.1400 
     86 CB         -3.4269  -27.1419  -51.8505 C.3       15 UNK        -0.1800 
     87 C          -5.4492  -27.5304  -50.3263 C.2       15 UNK         0.5000 
     88 O          -6.2073  -27.5019  -51.2972 O.2       15 UNK        -0.5000 
     89 N          -5.8632  -27.3479  -49.0603 N.am      16 UNK        -0.5000 
     90 CA         -7.2402  -27.1391  -48.5869 C.3       16 UNK         0.1400 
     91 CB         -8.0359  -28.4556  -48.6983 C.3       16 UNK        -0.1800 
     92 C          -7.9738  -25.9519  -49.2549 C.2       16 UNK         0.5000 
     93 O          -9.2001  -25.9718  -49.3702 O.2       16 UNK        -0.5000 
     94 N          -7.2004  -24.9562  -49.7103 N.am      17 UNK        -0.5000 
     95 CA         -7.5905  -23.7836  -50.4975 C.3       17 UNK         0.1400 
     96 CB         -8.4932  -22.8439  -49.6736 C.3       17 UNK        -0.1800 
     97 C          -8.1782  -24.1050  -51.8917 C.2       17 UNK         0.5000 
     98 O          -8.7189  -23.2052  -52.5367 O.2       17 UNK        -0.5000 
     99 N          -8.0425  -25.3555  -52.3595 N.am      18 UNK        -0.5000 
    100 CA        -8.4406  -25.7873  -53.7034 C.3       18 UNK         0.1400 
    101 CB        -8.6865  -27.3038  -53.6909 C.3       18 UNK        -0.1800 
    102 C         -7.3840  -25.4174  -54.7628 C.2       18 UNK         0.5000 
    103 O         -7.7068  -25.3201  -55.9473 O.2       18 UNK        -0.5000 
    104 N         -6.1483  -25.2032  -54.3061 N.am      19 UNK        -0.5000 
    105 CA        -4.9954  -24.7141  -55.0459 C.3       19 UNK         0.1400 
    106 CB        -4.2811  -25.8932  -55.7317 C.3       19 UNK        -0.1800 
    107 C         -4.0855  -23.9933  -54.0374 C.2       19 UNK         0.5000 
    108 O         -4.4154  -23.9449  -52.8488 O.2       19 UNK        -0.5000 
    109 N         -2.9702  -23.4306  -54.5228 N.am      20 UNK        -0.5000 
    110 CA        -1.8600  -22.8081  -53.7767 C.3       20 UNK         0.1400 
    111 CB        -1.1494  -23.8596  -52.9043 C.3       20 UNK        -0.1800 
    112 C         -2.1944  -21.5350  -52.9627 C.2       20 UNK         0.5000 
    113 O         -1.2744  -20.8096  -52.5806 O.2       20 UNK        -0.5000 
    114 N         -3.4842  -21.2645  -52.7357 N.am      21 UNK        -0.5000 
    115 CA        -4.0216  -20.0479  -52.1371 C.3       21 UNK         0.1400 
    116 CB        -5.5207  -20.2574  -51.8699 C.3       21 UNK        -0.1800 
    117 C         -3.8010  -18.8172  -53.0351 C.2       21 UNK         0.5000 
    118 O         -3.6923  -18.9466  -54.2574 O.2       21 UNK        -0.5000 
    119 N         -3.7564  -17.6417  -52.4033 N.am      22 UNK        -0.5000 
    120 CA        -3.4344  -16.3576  -53.0469 C.3       22 UNK         0.1400 
    121 C         -4.5889  -15.7235  -53.8783 C.2       22 UNK         0.5000 
    122 N         -5.8039  -16.2570  -53.8500 N.am      22 UNK        -0.7600 
    123 O         -4.3755  -14.7300  -54.5677 O.2       22 UNK        -0.5000 
    124 C124       -2.8584  -15.3354  -52.0314 C.3       23 UNK        -0.0398 
    125 S125       -1.5841  -16.0154  -50.9122 S.3       23 UNK        -0.2404 
    126 C126       -0.2620  -16.4525  -52.0787 C.3       23 UNK        -0.0205 
    127 H127        6.5499  -11.8223  -45.1006 H         1 UNK         0.0600 
    128 H128        6.9036  -10.2289  -44.4428 H         1 UNK         0.0600 
    129 H129        5.2372  -10.7824  -44.5246 H         1 UNK         0.0600 
    130 H130        5.1802  -10.3005  -48.2513 H         1 UNK         0.3000 
    131 H131        4.7614  -12.5596  -46.4803 H         1 UNK         0.0600 
    132 H132        3.1683  -11.8797  -48.9990 H         1 UNK         0.0800 
    133 H133        4.7592  -12.5824  -49.0525 H         1 UNK         0.0800 
    134 H134        4.0820  -14.3323  -50.4463 H         1 UNK         0.0800 
    135 H135        4.8856  -15.4180  -49.3374 H         1 UNK         0.0800 
    136 H136        1.5407  -14.7891  -50.9264 H         1 UNK         0.1150 
    137 H137        0.7704  -18.9478  -51.6215 H         1 UNK         0.1150 
    138 H138        4.3023  -17.7429  -49.5048 H         1 UNK         0.1150 
    139 H139        2.6654  -20.5204  -51.3171 H         1 UNK         0.0800 
    140 H140        4.1224  -19.9974  -50.5208 H         1 UNK         0.0800 
    141 H141        0.6093  -21.2172  -50.2974 H         1 UNK         0.0800 
    142 H142        0.2017  -20.0742  -49.0432 H         1 UNK         0.0800 
    143 H143        0.8103  -23.0267  -48.4981 H         1 UNK         0.0600 
    144 H144        0.3879  -20.9262  -46.6754 H         1 UNK         0.3000 
    145 H145       -1.0890  -22.8524  -44.0189 H         1 UNK         0.0600 
    146 H146        0.8139  -21.8666  -42.8068 H         1 UNK         0.0600 
    147 H147        1.3814  -23.1493  -43.8637 H         1 UNK         0.0600 
    148 H148        1.6242  -21.4690  -44.3200 H         1 UNK         0.0600 
    149 H149       -0.4681  -20.0926  -44.1645 H         1 UNK         0.3000 
    150 H150       -3.6244  -19.0175  -45.5502 H         1 UNK         0.0600 
    151 H151       -3.9543  -19.2576  -43.1090 H         1 UNK         0.0600 
    152 H152       -3.4673  -17.6119  -43.4908 H         1 UNK         0.0600 
    153 H153       -2.3033  -18.7412  -42.8003 H         1 UNK         0.0600 
    154 H154       -1.3322  -17.5156  -44.8160 H         1 UNK         0.3000 
    155 H155        0.4038  -17.7087  -47.9408 H         1 UNK         0.0600 
    156 H156        0.2552  -15.2869  -47.7434 H         1 UNK         0.0600 
    157 H157       -0.9088  -15.3913  -46.4228 H         1 UNK         0.0600 
    158 H158       -1.3699  -15.8834  -48.0399 H         1 UNK         0.0600 
    159 H159        1.0390  -16.4243  -45.4761 H         1 UNK         0.3000 
    160 H160        2.8528  -19.1343  -43.9804 H         1 UNK         0.0600 
    161 H161        3.5814  -16.3915  -45.1457 H         1 UNK         0.0600 
    162 H162        4.3668  -17.9182  -45.5244 H         1 UNK         0.0600 
    163 H163        4.4868  -17.2514  -43.9019 H         1 UNK         0.0600 
    164 H164        2.1319  -16.4827  -43.1075 H         1 UNK         0.3000 
    165 H165       -0.8906  -17.3834  -41.4427 H         1 UNK         0.0600 
    166 H166        1.8411  -16.8558  -40.1543 H         1 UNK         0.0600 
    167 H167        0.2687  -16.6159  -39.3904 H         1 UNK         0.0600 
    168 H168        0.8033  -18.2350  -39.8115 H         1 UNK         0.0600 
    169 H169        0.6848  -15.0202  -41.3395 H         1 UNK         0.3000 
    170 H170        0.1627  -13.6720  -44.4642 H         1 UNK         0.0600 
    171 H171       -2.1600  -13.1723  -43.6731 H         1 UNK         0.0600 
    172 H172       -1.5317  -12.7451  -42.0854 H         1 UNK         0.0600 
    173 H173       -1.1032  -11.7808  -43.4997 H         1 UNK         0.0600 
    174 H174        0.9483  -12.2252  -42.2606 H         1 UNK         0.3000 
    175 H175        3.2423  -12.7388  -40.9964 H         1 UNK         0.0600 
    176 H176        5.0152  -14.1969  -41.9394 H         1 UNK         0.0600 
    177 H177        5.5948  -12.5397  -41.8717 H         1 UNK         0.0600 
    178 H178        5.0771  -13.2310  -43.4093 H         1 UNK         0.0600 
    179 H179        3.0350  -11.2746  -43.5554 H         1 UNK         0.3000 
    180 H180        2.4743   -8.2957  -42.0511 H         1 UNK         0.0600 
    181 H181        5.3645   -8.6249  -43.0252 H         1 UNK         0.0600 
    182 H182        4.8698   -7.9218  -41.4913 H         1 UNK         0.0600 
    183 H183        4.4563   -7.1135  -42.9930 H         1 UNK         0.0600 
    184 H184        3.5679   -8.9243  -44.6696 H         1 UNK         0.3000 
    185 H185        0.5659  -10.1232  -46.0742 H         1 UNK         0.0600 
    186 H186        0.8992   -8.2626  -47.6774 H         1 UNK         0.0600 
    187 H187        0.2324   -7.6467  -46.1743 H         1 UNK         0.0600 
    188 H188        1.9407   -7.4196  -46.5298 H         1 UNK         0.0600 
    189 H189        3.0699   -9.5184  -47.2624 H         1 UNK         0.3000 
    190 H190       -2.1491  -21.0543  -47.9819 H         1 UNK         0.3000 
    191 H191       -3.7344  -22.3639  -49.9708 H         1 UNK         0.0600 
    192 H192       -4.3403  -20.1558  -48.9713 H         1 UNK         0.0600 
    193 H193       -5.6430  -21.3185  -48.7646 H         1 UNK         0.0600 
    194 H194       -4.6035  -20.9126  -47.4088 H         1 UNK         0.0600 
    195 H195       -3.5250  -22.8593  -46.4065 H         1 UNK         0.3000 
    196 H196       -5.3803  -24.9229  -46.1872 H         1 UNK         0.0600 
    197 H197       -4.3121  -25.3264  -43.9635 H         1 UNK         0.0600 
    198 H198       -4.5295  -23.6101  -44.2684 H         1 UNK         0.0600 
    199 H199       -2.9343  -24.3414  -44.4398 H         1 UNK         0.0600 
    200 H200       -1.9115  -25.1907  -46.9467 H         1 UNK         0.3000 
    201 H201       -1.5537  -27.9524  -46.6868 H         1 UNK         0.0600 
    202 H202        0.3054  -26.3617  -46.9855 H         1 UNK         0.0600 
    203 H203       -0.2412  -25.9638  -48.6140 H         1 UNK         0.0600 
    204 H204        0.3795  -27.5714  -48.2549 H         1 UNK         0.0600 
    205 H205       -3.3408  -26.2711  -49.1813 H         1 UNK         0.3000 
    206 H206       -3.8210  -28.8489  -50.6193 H         1 UNK         0.0600 
    207 H207       -2.3858  -27.4095  -52.0307 H         1 UNK         0.0600 
    208 H208       -4.0030  -27.4792  -52.7125 H         1 UNK         0.0600 
    209 H209       -3.4863  -26.0565  -51.8091 H         1 UNK         0.0600 
    210 H210       -5.1621  -27.3759  -48.3281 H         1 UNK         0.3000 
    211 H211       -7.1614  -26.8865  -47.5287 H         1 UNK         0.0600 
    212 H212       -8.1972  -28.7411  -49.7385 H         1 UNK         0.0600 
    213 H213       -9.0151  -28.3663  -48.2266 H         1 UNK         0.0600 
    214 H214       -7.5140  -29.2744  -48.2029 H         1 UNK         0.0600 
    215 H215       -6.2007  -25.0216  -49.5271 H         1 UNK         0.3000 
    216 H216       -6.6590  -23.2518  -50.6934 H         1 UNK         0.0600 
    217 H217       -8.0430  -22.6124  -48.7082 H         1 UNK         0.0600 
    218 H218       -9.4744  -23.2826  -49.4911 H         1 UNK         0.0600 
    219 H219       -8.6498  -21.8970  -50.1914 H         1 UNK         0.0600 
    220 H220       -7.5595  -26.0443  -51.7911 H         1 UNK         0.3000 
    221 H221       -9.3758  -25.2935  -53.9752 H         1 UNK         0.0600 
    222 H222       -7.7746  -27.8586  -53.4678 H         1 UNK         0.0600 
    223 H223       -9.4354  -27.5763  -52.9470 H         1 UNK         0.0600 
    224 H224       -9.0493  -27.6472  -54.6604 H         1 UNK         0.0600 
    225 H225       -5.9910  -25.2461  -53.3062 H         1 UNK         0.3000 
    226 H226       -5.3220  -23.9885  -55.7934 H         1 UNK         0.0600 
    227 H227       -4.9549  -26.4267  -56.4023 H         1 UNK         0.0600 
    228 H228       -3.4367  -25.5517  -56.3309 H         1 UNK         0.0600 
    229 H229       -3.8996  -26.6098  -55.0039 H         1 UNK         0.0600 
    230 H230       -2.8235  -23.4778  -55.5215 H         1 UNK         0.3000 
    231 H231       -1.1460  -22.4848  -54.5356 H         1 UNK         0.0600 
    232 H232       -0.2903  -23.4293  -52.3882 H         1 UNK         0.0600 
    233 H233       -0.7841  -24.6909  -53.5070 H         1 UNK         0.0600 
    234 H234       -1.8146  -24.2673  -52.1436 H         1 UNK         0.0600 
    235 H235       -4.1537  -21.9660  -53.0238 H         1 UNK         0.3000 
    236 H236       -3.5044  -19.8855  -51.1895 H         1 UNK         0.0600 
    237 H237       -5.9509  -19.4023  -51.3473 H         1 UNK         0.0600 
    238 H238       -6.0793  -20.3928  -52.7971 H         1 UNK         0.0600 
    239 H239       -5.6930  -21.1358  -51.2498 H         1 UNK         0.0600 
    240 H240       -3.8632  -17.6120  -51.3999 H         1 UNK         0.3000 
    241 H241       -2.6458  -16.5572  -53.7746 H         1 UNK         0.0600 
    242 H242       -5.9899  -17.0769  -53.2956 H         1 UNK         0.3800 
    243 H243       -6.5426  -15.8408  -54.3954 H         1 UNK         0.3800 
    244 H244       -2.4331  -14.4771  -52.5544 H         1 UNK         0.0800 
    245 H245       -3.6590  -14.9391  -51.4044 H         1 UNK         0.0800 
    246 H246       -0.0638  -15.6100  -52.7430 H         1 UNK         0.0800 
    247 H247       -0.5923  -17.2794  -52.7093 H         1 UNK         0.0800 
@<TRIPOS>BOND
     1    1    2 1    
     2    1  127 1    
     3    1  128 1    
     4    1  129 1    
     5    2    3 2    
     6    2    4 am   BACKBONE|DICT|INTERRES
     7    4    5 1    
     8    4  130 1    
     9    5    6 1    
    10    5   65 1    
    11    5  131 1    
    12    6    7 1    
    13    6  132 1    
    14    6  133 1    
    15    7    8 1    
    16    8    9 1    
    17    8  134 1    
    18    8  135 1    
    19    9   10 ar   
    20    9   14 ar   
    21   10   11 ar   
    22   10  136 1    
    23   11   12 ar   
    24   11  126 1    
    25   12   13 ar   
    26   12  137 1    
    27   13   14 ar   
    28   13   15 1    
    29   14  138 1    
    30   15   16 1    
    31   15  139 1    
    32   15  140 1    
    33   16   17 1    
    34   17   18 1    
    35   17  141 1    
    36   17  142 1    
    37   18   19 1    
    38   18   67 1    
    39   18  143 1    
    40   19   20 am   BACKBONE|DICT|INTERRES
    41   19  144 1    
    42   20   21 2    
    43   20   22 1    
    44   22   23 1    
    45   22   24 1    
    46   22  145 1    
    47   23  146 1    
    48   23  147 1    
    49   23  148 1    
    50   24   25 am   BACKBONE|DICT|INTERRES
    51   24  149 1    
    52   25   26 2    
    53   25   27 1    
    54   27   28 1    
    55   27   29 1    
    56   27  150 1    
    57   28  151 1    
    58   28  152 1    
    59   28  153 1    
    60   29   30 am   BACKBONE|DICT|INTERRES
    61   29  154 1    
    62   30   31 2    
    63   30   32 1    
    64   32   33 1    
    65   32   34 1    
    66   32  155 1    
    67   33  156 1    
    68   33  157 1    
    69   33  158 1    
    70   34   35 am   BACKBONE|DICT|INTERRES
    71   34  159 1    
    72   35   36 2    
    73   35   37 1    
    74   37   38 1    
    75   37   39 1    
    76   37  160 1    
    77   38  161 1    
    78   38  162 1    
    79   38  163 1    
    80   39   40 am   BACKBONE|DICT|INTERRES
    81   39  164 1    
    82   40   41 2    
    83   40   42 1    
    84   42   43 1    
    85   42   44 1    
    86   42  165 1    
    87   43  166 1    
    88   43  167 1    
    89   43  168 1    
    90   44   45 am   BACKBONE|DICT|INTERRES
    91   44  169 1    
    92   45   46 2    
    93   45   47 1    
    94   47   48 1    
    95   47   49 1    
    96   47  170 1    
    97   48  171 1    
    98   48  172 1    
    99   48  173 1    
   100   49   50 am   BACKBONE|DICT|INTERRES
   101   49  174 1    
   102   50   51 2    
   103   50   52 1    
   104   52   53 1    
   105   52   54 1    
   106   52  175 1    
   107   53  176 1    
   108   53  177 1    
   109   53  178 1    
   110   54   55 am   BACKBONE|DICT|INTERRES
   111   54  179 1    
   112   55   56 2    
   113   55   57 1    
   114   57   58 1    
   115   57   59 1    
   116   57  180 1    
   117   58  181 1    
   118   58  182 1    
   119   58  183 1    
   120   59   60 am   BACKBONE|DICT|INTERRES
   121   59  184 1    
   122   60   61 2    
   123   60   62 1    
   124   62   63 1    
   125   62   64 1    
   126   62  185 1    
   127   63  186 1    
   128   63  187 1    
   129   63  188 1    
   130   64   65 am   BACKBONE|DICT|INTERRES
   131   64  189 1    
   132   65   66 2    
   133   67   68 2    
   134   67   69 am   BACKBONE|DICT|INTERRES
   135   69   70 1    
   136   69  190 1    
   137   70   71 1    
   138   70   72 1    
   139   70  191 1    
   140   71  192 1    
   141   71  193 1    
   142   71  194 1    
   143   72   73 2    
   144   72   74 am   BACKBONE|DICT|INTERRES
   145   74   75 1    
   146   74  195 1    
   147   75   76 1    
   148   75   77 1    
   149   75  196 1    
   150   76  197 1    
   151   76  198 1    
   152   76  199 1    
   153   77   78 2    
   154   77   79 am   BACKBONE|DICT|INTERRES
   155   79   80 1    
   156   79  200 1    
   157   80   81 1    
   158   80   82 1    
   159   80  201 1    
   160   81  202 1    
   161   81  203 1    
   162   81  204 1    
   163   82   83 2    
   164   82   84 am   BACKBONE|DICT|INTERRES
   165   84   85 1    
   166   84  205 1    
   167   85   86 1    
   168   85   87 1    
   169   85  206 1    
   170   86  207 1    
   171   86  208 1    
   172   86  209 1    
   173   87   88 2    
   174   87   89 am   BACKBONE|DICT|INTERRES
   175   89   90 1    
   176   89  210 1    
   177   90   91 1    
   178   90   92 1    
   179   90  211 1    
   180   91  212 1    
   181   91  213 1    
   182   91  214 1    
   183   92   93 2    
   184   92   94 am   BACKBONE|DICT|INTERRES
   185   94   95 1    
   186   94  215 1    
   187   95   96 1    
   188   95   97 1    
   189   95  216 1    
   190   96  217 1    
   191   96  218 1    
   192   96  219 1    
   193   97   98 2    
   194   97   99 am   BACKBONE|DICT|INTERRES
   195   99  100 1    
   196   99  220 1    
   197  100  101 1    
   198  100  102 1    
   199  100  221 1    
   200  101  222 1    
   201  101  223 1    
   202  101  224 1    
   203  102  103 2    
   204  102  104 am   BACKBONE|DICT|INTERRES
   205  104  105 1    
   206  104  225 1    
   207  105  106 1    
   208  105  107 1    
   209  105  226 1    
   210  106  227 1    
   211  106  228 1    
   212  106  229 1    
   213  107  108 2    
   214  107  109 am   BACKBONE|DICT|INTERRES
   215  109  110 1    
   216  109  230 1    
   217  110  111 1    
   218  110  112 1    
   219  110  231 1    
   220  111  232 1    
   221  111  233 1    
   222  111  234 1    
   223  112  113 2    
   224  112  114 am   BACKBONE|DICT|INTERRES
   225  114  115 1    
   226  114  235 1    
   227  115  116 1    
   228  115  117 1    
   229  115  236 1    
   230  116  237 1    
   231  116  238 1    
   232  116  239 1    
   233  117  118 2    
   234  117  119 am   BACKBONE|DICT|INTERRES
   235  119  120 1    
   236  119  240 1    
   237  120  121 1    
   238  120  124 1    
   239  120  241 1    
   240  121  122 am   BACKBONE|DICT|INTERRES
   241  121  123 2    
   242  122  242 1    
   243  122  243 1    
   244  124  125 1    
   245  124  244 1    
   246  124  245 1    
   247  125  126 1    
   248  126  246 1    
   249  126  247 1    
@<TRIPOS>SUBSTRUCTURE
     1 UNK         1 GROUP             0       ****    0 ROOT    
