@<TRIPOS>MOLECULE
3R540
247   249    1
SMALL
USER_CHARGES


@<TRIPOS>ATOM
      1 CA         -6.4792  -13.7308  -45.2358 C.3       0 UNK        -0.1800 
      2 C          -4.9595  -13.8042  -45.2509 C.2       0 UNK         0.5000 
      3 O          -4.2961  -12.9012  -44.7413 O.2       0 UNK        -0.5000 
      4 N          -4.4031  -14.8841  -45.8174 N.am      1 UNK        -0.5000 
      5 CA         -2.9576  -15.1143  -45.9783 C.3       1 UNK         0.1400 
      6 C6         -2.6524  -16.3358  -46.8841 C.3       23 UNK        -0.0398 
      7 S7         -3.4752  -16.2138  -48.5102 S.3       23 UNK        -0.2404 
      8 C8         -2.1094  -15.7051  -49.5997 C.3       23 UNK        -0.0205 
      9 C9         -1.5249  -16.8925  -50.3479 C.ar      23 UNK        -0.0193 
     10 C10        -2.1110  -17.3162  -51.5435 C.ar      23 UNK        -0.1150 
     11 C11        -1.5795  -18.3951  -52.2555 C.ar      23 UNK        -0.0193 
     12 C12        -0.4587  -19.0624  -51.7538 C.ar      23 UNK        -0.1150 
     13 C13         0.1271  -18.6596  -50.5498 C.ar      23 UNK        -0.0193 
     14 C14        -0.4037  -17.5659  -49.8565 C.ar      23 UNK        -0.1150 
     15 C15         1.3108  -19.4306  -49.9805 C.3       23 UNK        -0.0205 
     16 S16         0.8090  -21.0481  -49.3042 S.3       23 UNK        -0.2404 
     17 C17        -0.5516  -20.5489  -48.2017 C.3       23 UNK        -0.0398 
     18 CA         -0.8972  -21.6166  -47.1428 C.3       11 UNK         0.1400 
     19 N           0.1016  -21.7262  -46.0772 N.am      11 UNK        -0.5000 
     20 C           0.0871  -22.6625  -45.1163 C.2       10 UNK         0.5000 
     21 O          -0.7173  -23.5933  -45.0834 O.2       10 UNK        -0.5000 
     22 CA          1.0914  -22.4931  -43.9605 C.3       10 UNK         0.1400 
     23 CB          2.4831  -23.0121  -44.3499 C.3       10 UNK        -0.1800 
     24 N           1.1822  -21.1031  -43.5089 N.am      10 UNK        -0.5000 
     25 C           0.1684  -20.4224  -42.9538 C.2       9 UNK         0.5000 
     26 O          -0.9229  -20.9261  -42.6855 O.2       9 UNK        -0.5000 
     27 CA          0.3889  -18.9179  -42.7116 C.3       9 UNK         0.1400 
     28 CB          1.0639  -18.6616  -41.3563 C.3       9 UNK        -0.1800 
     29 N           1.1754  -18.3033  -43.7806 N.am      9 UNK        -0.5000 
     30 C           0.7130  -18.0810  -45.0183 C.2       8 UNK         0.5000 
     31 O          -0.4404  -18.3298  -45.3693 O.2       8 UNK        -0.5000 
     32 CA          1.7241  -17.5666  -46.0597 C.3       8 UNK         0.1400 
     33 CB          1.8322  -16.0409  -46.0349 C.3       8 UNK        -0.1800 
     34 N           3.0543  -18.1471  -45.8863 N.am      8 UNK        -0.5000 
     35 C           3.3359  -19.4307  -46.1437 C.2       7 UNK         0.5000 
     36 O           2.5028  -20.2357  -46.5522 O.2       7 UNK        -0.5000 
     37 CA          4.7684  -19.9122  -45.8563 C.3       7 UNK         0.1400 
     38 CB          5.6640  -19.6926  -47.0843 C.3       7 UNK        -0.1800 
     39 N           5.3830  -19.2790  -44.6889 N.am      7 UNK        -0.5000 
     40 C           4.8952  -19.3105  -43.4412 C.2       6 UNK         0.5000 
     41 O           3.8328  -19.8563  -43.1390 O.2       6 UNK        -0.5000 
     42 CA          5.7212  -18.6195  -42.3390 C.3       6 UNK         0.1400 
     43 CB          7.1219  -18.1500  -42.7953 C.3       6 UNK        -0.1800 
     44 N           4.9984  -17.5109  -41.7096 N.am      6 UNK        -0.5000 
     45 C           4.5162  -16.4091  -42.3030 C.2       5 UNK         0.5000 
     46 O           4.5214  -16.2205  -43.5228 O.2       5 UNK        -0.5000 
     47 CA          3.9866  -15.3266  -41.3407 C.3       5 UNK         0.1400 
     48 CB          5.1155  -14.7977  -40.4370 C.3       5 UNK        -0.1800 
     49 N           3.4030  -14.1835  -42.0413 N.am      5 UNK        -0.5000 
     50 C           2.1452  -14.1225  -42.4873 C.2       4 UNK         0.5000 
     51 O           1.3400  -15.0507  -42.3885 O.2       4 UNK        -0.5000 
     52 CA          1.7251  -12.7893  -43.1325 C.3       4 UNK         0.1400 
     53 CB          2.0558  -12.7559  -44.6320 C.3       4 UNK        -0.1800 
     54 N           0.2887  -12.6035  -42.9648 N.am      4 UNK        -0.5000 
     55 C          -0.2874  -11.7369  -42.1211 C.2       3 UNK         0.5000 
     56 O           0.3330  -10.8785  -41.4921 O.2       3 UNK        -0.5000 
     57 CA         -1.8147  -11.8544  -41.9253 C.3       3 UNK         0.1400 
     58 CB         -2.5485  -10.8126  -42.7826 C.3       3 UNK        -0.1800 
     59 N          -2.3321  -13.1868  -42.2435 N.am      3 UNK        -0.5000 
     60 C          -2.0298  -14.3026  -41.5618 C.2       2 UNK         0.5000 
     61 O          -1.4272  -14.2928  -40.4875 O.2       2 UNK        -0.5000 
     62 CA         -2.4495  -15.6565  -42.1731 C.3       2 UNK         0.1400 
     63 CB         -3.5322  -16.3203  -41.3068 C.3       2 UNK        -0.1800 
     64 N          -2.9293  -15.5825  -43.5570 N.am      2 UNK        -0.5000 
     65 C          -2.2088  -15.2159  -44.6292 C.2       1 UNK         0.5000 
     66 O          -1.0229  -14.8969  -44.5727 O.2       1 UNK        -0.5000 
     67 C          -2.3050  -21.3535  -46.5801 C.2       11 UNK         0.5000 
     68 O          -3.2473  -21.9948  -47.0361 O.2       11 UNK        -0.5000 
     69 N          -2.4383  -20.4527  -45.5951 N.am      12 UNK        -0.5000 
     70 CA         -3.7104  -20.1412  -44.9341 C.3       12 UNK         0.1400 
     71 CB         -3.5135  -19.0114  -43.9157 C.3       12 UNK        -0.1800 
     72 C          -4.3465  -21.3683  -44.2568 C.2       12 UNK         0.5000 
     73 O          -5.5387  -21.6152  -44.4415 O.2       12 UNK        -0.5000 
     74 N          -3.5224  -22.1513  -43.5462 N.am      13 UNK        -0.5000 
     75 CA         -3.9033  -23.4254  -42.9301 C.3       13 UNK         0.1400 
     76 CB         -2.7450  -23.9234  -42.0528 C.3       13 UNK        -0.1800 
     77 C          -4.3146  -24.5042  -43.9549 C.2       13 UNK         0.5000 
     78 O          -5.1396  -25.3612  -43.6375 O.2       13 UNK        -0.5000 
     79 N          -3.7572  -24.4221  -45.1690 N.am      14 UNK        -0.5000 
     80 CA         -4.0557  -25.2825  -46.3130 C.3       14 UNK         0.1400 
     81 CB         -2.7531  -25.5072  -47.0998 C.3       14 UNK        -0.1800 
     82 C          -5.1662  -24.7135  -47.2243 C.2       14 UNK         0.5000 
     83 O          -5.3525  -25.2331  -48.3249 O.2       14 UNK        -0.5000 
     84 N          -5.8674  -23.6564  -46.7824 N.am      15 UNK        -0.5000 
     85 CA         -6.9550  -22.9565  -47.4797 C.3       15 UNK         0.1400 
     86 CB         -8.1940  -23.8671  -47.6107 C.3       15 UNK        -0.1800 
     87 C          -6.5096  -22.3359  -48.8230 C.2       15 UNK         0.5000 
     88 O          -7.1726  -22.5152  -49.8452 O.2       15 UNK        -0.5000 
     89 N          -5.3705  -21.6325  -48.7756 N.am      16 UNK        -0.5000 
     90 CA         -4.6198  -21.0016  -49.8691 C.3       16 UNK         0.1400 
     91 CB         -5.4999  -20.0891  -50.7485 C.3       16 UNK        -0.1800 
     92 C          -3.7781  -21.9968  -50.6932 C.2       16 UNK         0.5000 
     93 O          -3.1827  -21.5892  -51.6902 O.2       16 UNK        -0.5000 
     94 N          -3.7093  -23.2624  -50.2476 N.am      17 UNK        -0.5000 
     95 CA         -2.9624  -24.3757  -50.8384 C.3       17 UNK         0.1400 
     96 CB         -1.4440  -24.1662  -50.6328 C.3       17 UNK        -0.1800 
     97 C          -3.3806  -24.6158  -52.3045 C.2       17 UNK         0.5000 
     98 O          -4.5685  -24.8166  -52.5678 O.2       17 UNK        -0.5000 
     99 N          -2.4197  -24.5655  -53.2352 N.am      18 UNK        -0.5000 
    100 CA        -2.6590  -24.5045  -54.6735 C.3       18 UNK         0.1400 
    101 CB        -1.3900  -24.9628  -55.4125 C.3       18 UNK        -0.1800 
    102 C         -3.0693  -23.0678  -55.0442 C.2       18 UNK         0.5000 
    103 O         -2.2190  -22.2609  -55.4211 O.2       18 UNK        -0.5000 
    104 N         -4.3634  -22.7645  -54.8830 N.am      19 UNK        -0.5000 
    105 CA        -4.9423  -21.4197  -54.9618 C.3       19 UNK         0.1400 
    106 CB        -6.4382  -21.5039  -54.6235 C.3       19 UNK        -0.1800 
    107 C         -4.7284  -20.6832  -56.3004 C.2       19 UNK         0.5000 
    108 O         -4.7452  -19.4532  -56.3207 O.2       19 UNK        -0.5000 
    109 N         -4.5300  -21.4374  -57.3886 N.am      20 UNK        -0.5000 
    110 CA        -4.2326  -20.9047  -58.7175 C.3       20 UNK         0.1400 
    111 CB        -4.7225  -21.9106  -59.7707 C.3       20 UNK        -0.1800 
    112 C         -2.7356  -20.6028  -58.9291 C.2       20 UNK         0.5000 
    113 O         -2.4076  -19.7873  -59.7923 O.2       20 UNK        -0.5000 
    114 N         -1.8476  -21.2623  -58.1686 N.am      21 UNK        -0.5000 
    115 CA        -0.3952  -21.2177  -58.3719 C.3       21 UNK         0.1400 
    116 CB         0.2719  -22.3683  -57.6035 C.3       21 UNK        -0.1800 
    117 C          0.2415  -19.8708  -57.9887 C.2       21 UNK         0.5000 
    118 O          1.2776  -19.5127  -58.5505 O.2       21 UNK        -0.5000 
    119 N         -0.3930  -19.1435  -57.0621 N.am      22 UNK        -0.5000 
    120 CA        -0.0181  -17.7749  -56.6764 C.3       22 UNK         0.1400 
    121 C         -0.4988  -16.6686  -57.6660 C.2       22 UNK         0.5000 
    122 N         -1.2423  -16.9841  -58.7216 N.am      22 UNK        -0.7600 
    123 O         -0.1717  -15.4987  -57.4846 O.2       22 UNK        -0.5000 
    124 C124       -0.3941  -17.4686  -55.2038 C.3       23 UNK        -0.0398 
    125 S125       -2.1832  -17.5843  -54.8514 S.3       23 UNK        -0.2404 
    126 C126       -2.2377  -18.8560  -53.5481 C.3       23 UNK        -0.0205 
    127 H127       -6.9320  -14.6003  -45.7128 H         1 UNK         0.0600 
    128 H128       -6.8159  -12.8389  -45.7640 H         1 UNK         0.0600 
    129 H129       -6.8416  -13.6778  -44.2092 H         1 UNK         0.0600 
    130 H130       -5.0002  -15.5825  -46.2374 H         1 UNK         0.3000 
    131 H131       -2.5558  -14.2312  -46.4800 H         1 UNK         0.0600 
    132 H132       -2.9919  -17.2592  -46.4156 H         1 UNK         0.0800 
    133 H133       -1.5770  -16.4517  -47.0284 H         1 UNK         0.0800 
    134 H134       -1.3366  -15.1846  -49.0321 H         1 UNK         0.0800 
    135 H135       -2.4918  -14.9782  -50.3179 H         1 UNK         0.0800 
    136 H136       -2.9833  -16.8037  -51.9246 H         1 UNK         0.1150 
    137 H137       -0.0557  -19.9132  -52.2852 H         1 UNK         0.1150 
    138 H138        0.0439  -17.2466  -48.9268 H         1 UNK         0.1150 
    139 H139        2.0538  -19.5880  -50.7635 H         1 UNK         0.0800 
    140 H140        1.8090  -18.8564  -49.1985 H         1 UNK         0.0800 
    141 H141       -1.4105  -20.3478  -48.8455 H         1 UNK         0.0800 
    142 H142       -0.3016  -19.6037  -47.7198 H         1 UNK         0.0800 
    143 H143       -0.9380  -22.5852  -47.6441 H         1 UNK         0.0600 
    144 H144        0.8563  -21.0449  -46.0912 H         1 UNK         0.3000 
    145 H145        0.7333  -23.0900  -43.1191 H         1 UNK         0.0600 
    146 H146        3.1952  -22.8866  -43.5340 H         1 UNK         0.0600 
    147 H147        2.4454  -24.0752  -44.5904 H         1 UNK         0.0600 
    148 H148        2.8790  -22.4961  -45.2233 H         1 UNK         0.0600 
    149 H149        2.0700  -20.6291  -43.6410 H         1 UNK         0.3000 
    150 H150       -0.5924  -18.4401  -42.6937 H         1 UNK         0.0600 
    151 H151        0.4733  -19.0842  -40.5426 H         1 UNK         0.0600 
    152 H152        1.1638  -17.5932  -41.1640 H         1 UNK         0.0600 
    153 H153        2.0577  -19.1062  -41.3052 H         1 UNK         0.0600 
    154 H154        2.1495  -18.1223  -43.5854 H         1 UNK         0.3000 
    155 H155        1.3554  -17.8567  -47.0442 H         1 UNK         0.0600 
    156 H156        2.1635  -15.6865  -45.0593 H         1 UNK         0.0600 
    157 H157        0.8681  -15.5812  -46.2507 H         1 UNK         0.0600 
    158 H158        2.5378  -15.6790  -46.7827 H         1 UNK         0.0600 
    159 H159        3.7746  -17.5504  -45.5006 H         1 UNK         0.3000 
    160 H160        4.7208  -20.9845  -45.6585 H         1 UNK         0.0600 
    161 H161        5.7838  -18.6324  -47.3109 H         1 UNK         0.0600 
    162 H162        5.2390  -20.1713  -47.9677 H         1 UNK         0.0600 
    163 H163        6.6558  -20.1185  -46.9314 H         1 UNK         0.0600 
    164 H164        6.2512  -18.7891  -44.8478 H         1 UNK         0.3000 
    165 H165        5.8671  -19.3716  -41.5624 H         1 UNK         0.0600 
    166 H166        7.0701  -17.3749  -43.5608 H         1 UNK         0.0600 
    167 H167        7.6848  -17.7415  -41.9558 H         1 UNK         0.0600 
    168 H168        7.7071  -18.9793  -43.1950 H         1 UNK         0.0600 
    169 H169        4.9078  -17.5835  -40.7061 H         1 UNK         0.3000 
    170 H170        3.2232  -15.7845  -40.7078 H         1 UNK         0.0600 
    171 H171        5.9310  -14.3698  -41.0217 H         1 UNK         0.0600 
    172 H172        4.7489  -14.0257  -39.7601 H         1 UNK         0.0600 
    173 H173        5.5377  -15.5887  -39.8164 H         1 UNK         0.0600 
    174 H174        4.0204  -13.4023  -42.2067 H         1 UNK         0.3000 
    175 H175        2.2787  -11.9861  -42.6419 H         1 UNK         0.0600 
    176 H176        3.0873  -13.0563  -44.8211 H         1 UNK         0.0600 
    177 H177        1.9298  -11.7506  -45.0339 H         1 UNK         0.0600 
    178 H178        1.4044  -13.4181  -45.2008 H         1 UNK         0.0600 
    179 H179       -0.2828  -13.3296  -43.3854 H         1 UNK         0.3000 
    180 H180       -2.0308  -11.6484  -40.8750 H         1 UNK         0.0600 
    181 H181       -3.6249  -10.8493  -42.6136 H         1 UNK         0.0600 
    182 H182       -2.3712  -10.9729  -43.8469 H         1 UNK         0.0600 
    183 H183       -2.2152   -9.8024  -42.5418 H         1 UNK         0.0600 
    184 H184       -2.8634  -13.2686  -43.1024 H         1 UNK         0.3000 
    185 H185       -1.5617  -16.2917  -42.1647 H         1 UNK         0.0600 
    186 H186       -3.7536  -17.3301  -41.6475 H         1 UNK         0.0600 
    187 H187       -3.2099  -16.4004  -40.2677 H         1 UNK         0.0600 
    188 H188       -4.4610  -15.7487  -41.3182 H         1 UNK         0.0600 
    189 H189       -3.9087  -15.7802  -43.6990 H         1 UNK         0.3000 
    190 H190       -1.6280  -19.9135  -45.3061 H         1 UNK         0.3000 
    191 H191       -4.3965  -19.7869  -45.7062 H         1 UNK         0.0600 
    192 H192       -4.4768  -18.6209  -43.5865 H         1 UNK         0.0600 
    193 H193       -2.9510  -18.1851  -44.3416 H         1 UNK         0.0600 
    194 H194       -2.9777  -19.3471  -43.0286 H         1 UNK         0.0600 
    195 H195       -2.5595  -21.8527  -43.4206 H         1 UNK         0.3000 
    196 H196       -4.7647  -23.2392  -42.2857 H         1 UNK         0.0600 
    197 H197       -1.8472  -24.1127  -42.6420 H         1 UNK         0.0600 
    198 H198       -2.4911  -23.1937  -41.2836 H         1 UNK         0.0600 
    199 H199       -3.0087  -24.8529  -41.5468 H         1 UNK         0.0600 
    200 H200       -3.0787  -23.6891  -45.3348 H         1 UNK         0.3000 
    201 H201       -4.4025  -26.2539  -45.9556 H         1 UNK         0.0600 
    202 H202       -2.8989  -26.2147  -47.9166 H         1 UNK         0.0600 
    203 H203       -2.3823  -24.5773  -47.5296 H         1 UNK         0.0600 
    204 H204       -1.9701  -25.9123  -46.4584 H         1 UNK         0.0600 
    205 H205       -5.6088  -23.2620  -45.8858 H         1 UNK         0.3000 
    206 H206       -7.2343  -22.1188  -46.8389 H         1 UNK         0.0600 
    207 H207       -8.4981  -24.2597  -46.6404 H         1 UNK         0.0600 
    208 H208       -9.0422  -23.3150  -48.0170 H         1 UNK         0.0600 
    209 H209       -8.0090  -24.7139  -48.2722 H         1 UNK         0.0600 
    210 H210       -4.8524  -21.6587  -47.8999 H         1 UNK         0.3000 
    211 H211       -3.8950  -20.3530  -49.3753 H         1 UNK         0.0600 
    212 H212       -4.8832  -19.4740  -51.4047 H         1 UNK         0.0600 
    213 H213       -6.0995  -19.4115  -50.1410 H         1 UNK         0.0600 
    214 H214       -6.1735  -20.6624  -51.3853 H         1 UNK         0.0600 
    215 H215       -4.2859  -23.5078  -49.4540 H         1 UNK         0.3000 
    216 H216       -3.2531  -25.2714  -50.2884 H         1 UNK         0.0600 
    217 H217       -0.8735  -25.0245  -50.9897 H         1 UNK         0.0600 
    218 H218       -1.2064  -24.0480  -49.5766 H         1 UNK         0.0600 
    219 H219       -1.0755  -23.2785  -51.1487 H         1 UNK         0.0600 
    220 H220       -1.4800  -24.3525  -52.9339 H         1 UNK         0.3000 
    221 H221       -3.4709  -25.1833  -54.9435 H         1 UNK         0.0600 
    222 H222       -1.1420  -25.9946  -55.1635 H         1 UNK         0.0600 
    223 H223       -0.5271  -24.3435  -55.1642 H         1 UNK         0.0600 
    224 H224       -1.5313  -24.9147  -56.4926 H         1 UNK         0.0600 
    225 H225       -4.9694  -23.4857  -54.5151 H         1 UNK         0.3000 
    226 H226       -4.4592  -20.8247  -54.1869 H         1 UNK         0.0600 
    227 H227       -6.5946  -21.9287  -53.6314 H         1 UNK         0.0600 
    228 H228       -6.8969  -20.5142  -54.6269 H         1 UNK         0.0600 
    229 H229       -6.9783  -22.1202  -55.3432 H         1 UNK         0.0600 
    230 H230       -4.5438  -22.4415  -57.2873 H         1 UNK         0.3000 
    231 H231       -4.7812  -19.9716  -58.8635 H         1 UNK         0.0600 
    232 H232       -4.2120  -22.8703  -59.6802 H         1 UNK         0.0600 
    233 H233       -4.5440  -21.5379  -60.7803 H         1 UNK         0.0600 
    234 H234       -5.7938  -22.0894  -59.6770 H         1 UNK         0.0600 
    235 H235       -2.1757  -21.8281  -57.3937 H         1 UNK         0.3000 
    236 H236       -0.2046  -21.3748  -59.4358 H         1 UNK         0.0600 
    237 H237       -0.1554  -23.3313  -57.8823 H         1 UNK         0.0600 
    238 H238        1.3398  -22.4124  -57.8209 H         1 UNK         0.0600 
    239 H239        0.1658  -22.2486  -56.5252 H         1 UNK         0.0600 
    240 H240       -1.2463  -19.5045  -56.6597 H         1 UNK         0.3000 
    241 H241        1.0713  -17.7183  -56.7185 H         1 UNK         0.0600 
    242 H242       -1.5355  -16.2550  -59.3525 H         1 UNK         0.3800 
    243 H243       -1.5115  -17.9410  -58.9069 H         1 UNK         0.3800 
    244 H244       -0.0541  -16.4712  -54.9203 H         1 UNK         0.0800 
    245 H245        0.1479  -18.1531  -54.5506 H         1 UNK         0.0800 
    246 H246       -1.7888  -19.7805  -53.9160 H         1 UNK         0.0800 
    247 H247       -3.2809  -19.0851  -53.3336 H         1 UNK         0.0800 
@<TRIPOS>BOND
     1    1    2 1    
     2    1  127 1    
     3    1  128 1    
     4    1  129 1    
     5    2    3 2    
     6    2    4 am   BACKBONE|DICT|INTERRES
     7    4    5 1    
     8    4  130 1    
     9    5    6 1    
    10    5   65 1    
    11    5  131 1    
    12    6    7 1    
    13    6  132 1    
    14    6  133 1    
    15    7    8 1    
    16    8    9 1    
    17    8  134 1    
    18    8  135 1    
    19    9   10 ar   
    20    9   14 ar   
    21   10   11 ar   
    22   10  136 1    
    23   11   12 ar   
    24   11  126 1    
    25   12   13 ar   
    26   12  137 1    
    27   13   14 ar   
    28   13   15 1    
    29   14  138 1    
    30   15   16 1    
    31   15  139 1    
    32   15  140 1    
    33   16   17 1    
    34   17   18 1    
    35   17  141 1    
    36   17  142 1    
    37   18   19 1    
    38   18   67 1    
    39   18  143 1    
    40   19   20 am   BACKBONE|DICT|INTERRES
    41   19  144 1    
    42   20   21 2    
    43   20   22 1    
    44   22   23 1    
    45   22   24 1    
    46   22  145 1    
    47   23  146 1    
    48   23  147 1    
    49   23  148 1    
    50   24   25 am   BACKBONE|DICT|INTERRES
    51   24  149 1    
    52   25   26 2    
    53   25   27 1    
    54   27   28 1    
    55   27   29 1    
    56   27  150 1    
    57   28  151 1    
    58   28  152 1    
    59   28  153 1    
    60   29   30 am   BACKBONE|DICT|INTERRES
    61   29  154 1    
    62   30   31 2    
    63   30   32 1    
    64   32   33 1    
    65   32   34 1    
    66   32  155 1    
    67   33  156 1    
    68   33  157 1    
    69   33  158 1    
    70   34   35 am   BACKBONE|DICT|INTERRES
    71   34  159 1    
    72   35   36 2    
    73   35   37 1    
    74   37   38 1    
    75   37   39 1    
    76   37  160 1    
    77   38  161 1    
    78   38  162 1    
    79   38  163 1    
    80   39   40 am   BACKBONE|DICT|INTERRES
    81   39  164 1    
    82   40   41 2    
    83   40   42 1    
    84   42   43 1    
    85   42   44 1    
    86   42  165 1    
    87   43  166 1    
    88   43  167 1    
    89   43  168 1    
    90   44   45 am   BACKBONE|DICT|INTERRES
    91   44  169 1    
    92   45   46 2    
    93   45   47 1    
    94   47   48 1    
    95   47   49 1    
    96   47  170 1    
    97   48  171 1    
    98   48  172 1    
    99   48  173 1    
   100   49   50 am   BACKBONE|DICT|INTERRES
   101   49  174 1    
   102   50   51 2    
   103   50   52 1    
   104   52   53 1    
   105   52   54 1    
   106   52  175 1    
   107   53  176 1    
   108   53  177 1    
   109   53  178 1    
   110   54   55 am   BACKBONE|DICT|INTERRES
   111   54  179 1    
   112   55   56 2    
   113   55   57 1    
   114   57   58 1    
   115   57   59 1    
   116   57  180 1    
   117   58  181 1    
   118   58  182 1    
   119   58  183 1    
   120   59   60 am   BACKBONE|DICT|INTERRES
   121   59  184 1    
   122   60   61 2    
   123   60   62 1    
   124   62   63 1    
   125   62   64 1    
   126   62  185 1    
   127   63  186 1    
   128   63  187 1    
   129   63  188 1    
   130   64   65 am   BACKBONE|DICT|INTERRES
   131   64  189 1    
   132   65   66 2    
   133   67   68 2    
   134   67   69 am   BACKBONE|DICT|INTERRES
   135   69   70 1    
   136   69  190 1    
   137   70   71 1    
   138   70   72 1    
   139   70  191 1    
   140   71  192 1    
   141   71  193 1    
   142   71  194 1    
   143   72   73 2    
   144   72   74 am   BACKBONE|DICT|INTERRES
   145   74   75 1    
   146   74  195 1    
   147   75   76 1    
   148   75   77 1    
   149   75  196 1    
   150   76  197 1    
   151   76  198 1    
   152   76  199 1    
   153   77   78 2    
   154   77   79 am   BACKBONE|DICT|INTERRES
   155   79   80 1    
   156   79  200 1    
   157   80   81 1    
   158   80   82 1    
   159   80  201 1    
   160   81  202 1    
   161   81  203 1    
   162   81  204 1    
   163   82   83 2    
   164   82   84 am   BACKBONE|DICT|INTERRES
   165   84   85 1    
   166   84  205 1    
   167   85   86 1    
   168   85   87 1    
   169   85  206 1    
   170   86  207 1    
   171   86  208 1    
   172   86  209 1    
   173   87   88 2    
   174   87   89 am   BACKBONE|DICT|INTERRES
   175   89   90 1    
   176   89  210 1    
   177   90   91 1    
   178   90   92 1    
   179   90  211 1    
   180   91  212 1    
   181   91  213 1    
   182   91  214 1    
   183   92   93 2    
   184   92   94 am   BACKBONE|DICT|INTERRES
   185   94   95 1    
   186   94  215 1    
   187   95   96 1    
   188   95   97 1    
   189   95  216 1    
   190   96  217 1    
   191   96  218 1    
   192   96  219 1    
   193   97   98 2    
   194   97   99 am   BACKBONE|DICT|INTERRES
   195   99  100 1    
   196   99  220 1    
   197  100  101 1    
   198  100  102 1    
   199  100  221 1    
   200  101  222 1    
   201  101  223 1    
   202  101  224 1    
   203  102  103 2    
   204  102  104 am   BACKBONE|DICT|INTERRES
   205  104  105 1    
   206  104  225 1    
   207  105  106 1    
   208  105  107 1    
   209  105  226 1    
   210  106  227 1    
   211  106  228 1    
   212  106  229 1    
   213  107  108 2    
   214  107  109 am   BACKBONE|DICT|INTERRES
   215  109  110 1    
   216  109  230 1    
   217  110  111 1    
   218  110  112 1    
   219  110  231 1    
   220  111  232 1    
   221  111  233 1    
   222  111  234 1    
   223  112  113 2    
   224  112  114 am   BACKBONE|DICT|INTERRES
   225  114  115 1    
   226  114  235 1    
   227  115  116 1    
   228  115  117 1    
   229  115  236 1    
   230  116  237 1    
   231  116  238 1    
   232  116  239 1    
   233  117  118 2    
   234  117  119 am   BACKBONE|DICT|INTERRES
   235  119  120 1    
   236  119  240 1    
   237  120  121 1    
   238  120  124 1    
   239  120  241 1    
   240  121  122 am   BACKBONE|DICT|INTERRES
   241  121  123 2    
   242  122  242 1    
   243  122  243 1    
   244  124  125 1    
   245  124  244 1    
   246  124  245 1    
   247  125  126 1    
   248  126  246 1    
   249  126  247 1    
@<TRIPOS>SUBSTRUCTURE
     1 UNK         1 GROUP             0       ****    0 ROOT    
