@<TRIPOS>MOLECULE
3R540
247   249    1
SMALL
USER_CHARGES


@<TRIPOS>ATOM
      1 CA          4.7505  -14.0325  -46.5706 C.3       0 UNK        -0.1800 
      2 C           4.1082  -13.9914  -47.9503 C.2       0 UNK         0.5000 
      3 O           4.2132  -12.9802  -48.6439 O.2       0 UNK        -0.5000 
      4 N           3.4377  -15.0856  -48.3370 N.am      1 UNK        -0.5000 
      5 CA          2.7245  -15.2823  -49.6097 C.3       1 UNK         0.1400 
      6 C6          3.6699  -15.3270  -50.8424 C.3       23 UNK        -0.0398 
      7 S7          4.9296  -16.6470  -50.7188 S.3       23 UNK        -0.2404 
      8 C8          4.3632  -17.8448  -51.9700 C.3       23 UNK        -0.0205 
      9 C9          3.2358  -18.7299  -51.4569 C.ar      23 UNK        -0.0193 
     10 C10         1.9093  -18.2945  -51.5253 C.ar      23 UNK        -0.1150 
     11 C11         0.8702  -19.1071  -51.0657 C.ar      23 UNK        -0.0193 
     12 C12         1.1619  -20.3750  -50.5566 C.ar      23 UNK        -0.1150 
     13 C13         2.4803  -20.8355  -50.5076 C.ar      23 UNK        -0.0193 
     14 C14         3.5145  -20.0033  -50.9477 C.ar      23 UNK        -0.1150 
     15 C15         2.7758  -22.2531  -50.0361 C.3       23 UNK        -0.0205 
     16 S16         3.5409  -22.3267  -48.3837 S.3       23 UNK        -0.2404 
     17 C17         2.2687  -21.5959  -47.3002 C.3       23 UNK        -0.0398 
     18 CA          1.2749  -22.6337  -46.7145 C.3       11 UNK         0.1400 
     19 N           0.7767  -22.2368  -45.3925 N.am      11 UNK        -0.5000 
     20 C          -0.0161  -22.9820  -44.6071 C.2       10 UNK         0.5000 
     21 O          -0.3708  -24.1279  -44.8829 O.2       10 UNK        -0.5000 
     22 CA         -0.5475  -22.3171  -43.3223 C.3       10 UNK         0.1400 
     23 CB          0.5093  -22.3392  -42.2082 C.3       10 UNK        -0.1800 
     24 N          -0.9962  -20.9430  -43.5503 N.am      10 UNK        -0.5000 
     25 C          -2.0231  -20.6045  -44.3438 C.2       9 UNK         0.5000 
     26 O          -2.7558  -21.4232  -44.8987 O.2       9 UNK        -0.5000 
     27 CA         -2.2245  -19.1026  -44.6158 C.3       9 UNK         0.1400 
     28 CB         -3.0246  -18.4296  -43.4913 C.3       9 UNK        -0.1800 
     29 N          -0.9572  -18.3998  -44.8103 N.am      9 UNK        -0.5000 
     30 C          -0.1129  -18.6421  -45.8234 C.2       8 UNK         0.5000 
     31 O          -0.3160  -19.4721  -46.7059 O.2       8 UNK        -0.5000 
     32 CA          1.2171  -17.8780  -45.8110 C.3       8 UNK         0.1400 
     33 CB          1.0210  -16.4685  -46.3710 C.3       8 UNK        -0.1800 
     34 N           1.7848  -17.8011  -44.4659 N.am      8 UNK        -0.5000 
     35 C           2.2737  -18.8553  -43.7968 C.2       7 UNK         0.5000 
     36 O           2.3350  -19.9911  -44.2646 O.2       7 UNK        -0.5000 
     37 CA          2.7265  -18.6092  -42.3467 C.3       7 UNK         0.1400 
     38 CB          4.1799  -18.1140  -42.3127 C.3       7 UNK        -0.1800 
     39 N           1.8719  -17.6502  -41.6467 N.am      7 UNK        -0.5000 
     40 C           0.5756  -17.8463  -41.3643 C.2       6 UNK         0.5000 
     41 O          -0.0276  -18.8889  -41.6187 O.2       6 UNK        -0.5000 
     42 CA         -0.1789  -16.6587  -40.7358 C.3       6 UNK         0.1400 
     43 CB         -0.1273  -16.7371  -39.2030 C.3       6 UNK        -0.1800 
     44 N           0.3443  -15.3600  -41.1747 N.am      6 UNK        -0.5000 
     45 C           0.2417  -14.8936  -42.4262 C.2       5 UNK         0.5000 
     46 O          -0.3359  -15.4997  -43.3306 O.2       5 UNK        -0.5000 
     47 CA          0.9618  -13.5709  -42.7284 C.3       5 UNK         0.1400 
     48 CB          2.1919  -13.8188  -43.6164 C.3       5 UNK        -0.1800 
     49 N           0.0590  -12.6543  -43.4167 N.am      5 UNK        -0.5000 
     50 C          -0.5963  -11.6448  -42.8256 C.2       4 UNK         0.5000 
     51 O          -0.4798  -11.3642  -41.6317 O.2       4 UNK        -0.5000 
     52 CA         -1.5388  -10.7929  -43.7030 C.3       4 UNK         0.1400 
     53 CB         -0.8250   -9.5163  -44.1735 C.3       4 UNK        -0.1800 
     54 N          -2.0428  -11.5084  -44.8739 N.am      4 UNK        -0.5000 
     55 C          -2.8892  -12.5447  -44.8299 C.2       3 UNK         0.5000 
     56 O          -3.4491  -12.9174  -43.7980 O.2       3 UNK        -0.5000 
     57 CA         -3.1488  -13.3070  -46.1458 C.3       3 UNK         0.1400 
     58 CB         -4.5983  -13.1077  -46.6180 C.3       3 UNK        -0.1800 
     59 N          -2.2456  -12.9993  -47.2647 N.am      3 UNK        -0.5000 
     60 C          -0.9198  -13.1909  -47.2839 C.2       2 UNK         0.5000 
     61 O          -0.2488  -13.4858  -46.2926 O.2       2 UNK        -0.5000 
     62 CA         -0.2177  -12.9714  -48.6290 C.3       2 UNK         0.1400 
     63 CB          0.2252  -11.5064  -48.7845 C.3       2 UNK        -0.1800 
     64 N           0.9415  -13.8527  -48.6860 N.am      2 UNK        -0.5000 
     65 C           1.5374  -14.3022  -49.7974 C.2       1 UNK         0.5000 
     66 O           1.1748  -13.9815  -50.9306 O.2       1 UNK        -0.5000 
     67 C           0.1164  -22.9122  -47.6937 C.2       11 UNK         0.5000 
     68 O           0.0925  -23.9663  -48.3276 O.2       11 UNK        -0.5000 
     69 N          -0.8410  -21.9780  -47.7666 N.am      12 UNK        -0.5000 
     70 CA         -2.0465  -22.0571  -48.5871 C.3       12 UNK         0.1400 
     71 CB         -2.8306  -20.7436  -48.4692 C.3       12 UNK        -0.1800 
     72 C          -2.9345  -23.2584  -48.2314 C.2       12 UNK         0.5000 
     73 O          -3.3914  -23.9538  -49.1368 O.2       12 UNK        -0.5000 
     74 N          -3.1271  -23.5060  -46.9287 N.am      13 UNK        -0.5000 
     75 CA         -3.8639  -24.6563  -46.4062 C.3       13 UNK         0.1400 
     76 CB         -4.0644  -24.4933  -44.8920 C.3       13 UNK        -0.1800 
     77 C          -3.1834  -26.0006  -46.7251 C.2       13 UNK         0.5000 
     78 O          -3.8751  -26.9581  -47.0732 O.2       13 UNK        -0.5000 
     79 N          -1.8479  -26.0455  -46.6162 N.am      14 UNK        -0.5000 
     80 CA         -1.0313  -27.2174  -46.9324 C.3       14 UNK         0.1400 
     81 CB          0.3904  -27.0174  -46.3846 C.3       14 UNK        -0.1800 
     82 C          -0.9991  -27.5295  -48.4397 C.2       14 UNK         0.5000 
     83 O          -1.1402  -28.6920  -48.8219 O.2       14 UNK        -0.5000 
     84 N          -0.8181  -26.4901  -49.2655 N.am      15 UNK        -0.5000 
     85 CA         -0.7816  -26.5856  -50.7252 C.3       15 UNK         0.1400 
     86 CB         -0.1837  -25.2917  -51.2969 C.3       15 UNK        -0.1800 
     87 C          -2.1628  -26.8545  -51.3488 C.2       15 UNK         0.5000 
     88 O          -2.2385  -27.5174  -52.3841 O.2       15 UNK        -0.5000 
     89 N          -3.2191  -26.3133  -50.7251 N.am      16 UNK        -0.5000 
     90 CA         -4.6412  -26.3531  -51.0852 C.3       16 UNK         0.1400 
     91 CB         -5.1757  -27.7961  -51.1480 C.3       16 UNK        -0.1800 
     92 C          -4.9798  -25.5635  -52.3634 C.2       16 UNK         0.5000 
     93 O          -5.8722  -24.7167  -52.3371 O.2       16 UNK        -0.5000 
     94 N          -4.2480  -25.8243  -53.4528 N.am      17 UNK        -0.5000 
     95 CA         -4.4000  -25.1688  -54.7536 C.3       17 UNK         0.1400 
     96 CB         -3.6002  -25.9578  -55.8011 C.3       17 UNK        -0.1800 
     97 C          -3.9685  -23.6890  -54.7500 C.2       17 UNK         0.5000 
     98 O          -4.4470  -22.9160  -55.5802 O.2       17 UNK        -0.5000 
     99 N          -3.0802  -23.3195  -53.8170 N.am      18 UNK        -0.5000 
    100 CA        -2.5533  -21.9633  -53.6550 C.3       18 UNK         0.1400 
    101 CB        -1.1912  -22.0408  -52.9485 C.3       18 UNK        -0.1800 
    102 C         -3.5052  -21.0187  -52.8937 C.2       18 UNK         0.5000 
    103 O         -3.2321  -19.8198  -52.8350 O.2       18 UNK        -0.5000 
    104 N         -4.6002  -21.5450  -52.3256 N.am      19 UNK        -0.5000 
    105 CA        -5.5871  -20.8143  -51.5232 C.3       19 UNK         0.1400 
    106 CB        -6.3331  -21.8121  -50.6203 C.3       19 UNK        -0.1800 
    107 C         -6.5430  -19.9225  -52.3498 C.2       19 UNK         0.5000 
    108 O         -7.7460  -19.8839  -52.0839 O.2       19 UNK        -0.5000 
    109 N         -5.9889  -19.1866  -53.3192 N.am      20 UNK        -0.5000 
    110 CA        -6.6260  -18.0650  -54.0013 C.3       20 UNK         0.1400 
    111 CB        -6.0346  -17.9418  -55.4163 C.3       20 UNK        -0.1800 
    112 C         -6.3661  -16.8202  -53.1372 C.2       20 UNK         0.5000 
    113 O         -5.3699  -16.1255  -53.3461 O.2       20 UNK        -0.5000 
    114 N         -7.2078  -16.6464  -52.1075 N.am      21 UNK        -0.5000 
    115 CA        -6.9552  -15.8531  -50.9001 C.3       21 UNK         0.1400 
    116 CB        -6.7882  -14.3476  -51.2108 C.3       21 UNK        -0.1800 
    117 C         -5.7897  -16.4941  -50.1180 C.2       21 UNK         0.5000 
    118 O         -5.8814  -17.6818  -49.8021 O.2       21 UNK        -0.5000 
    119 N         -4.7227  -15.7360  -49.8347 N.am      22 UNK        -0.5000 
    120 CA        -3.4435  -16.1943  -49.2543 C.3       22 UNK         0.1400 
    121 C         -3.4989  -16.7022  -47.7798 C.2       22 UNK         0.5000 
    122 N         -4.6211  -17.2066  -47.2872 N.am      22 UNK        -0.7600 
    123 O         -2.5177  -16.5893  -47.0564 O.2       22 UNK        -0.5000 
    124 C124       -2.7359  -17.2105  -50.1913 C.3       23 UNK        -0.0398 
    125 S125       -0.9343  -17.3319  -49.9424 S.3       23 UNK        -0.2404 
    126 C126       -0.5694  -18.6319  -51.1575 C.3       23 UNK        -0.0205 
    127 H127        5.8314  -13.9223  -46.6566 H         1 UNK         0.0600 
    128 H128        4.5436  -14.9693  -46.0524 H         1 UNK         0.0600 
    129 H129        4.3710  -13.2157  -45.9567 H         1 UNK         0.0600 
    130 H130        3.4330  -15.8876  -47.7243 H         1 UNK         0.3000 
    131 H131        2.2579  -16.2648  -49.5284 H         1 UNK         0.0600 
    132 H132        3.1042  -15.4673  -51.7638 H         1 UNK         0.0800 
    133 H133        4.1861  -14.3734  -50.9599 H         1 UNK         0.0800 
    134 H134        5.2128  -18.4649  -52.2600 H         1 UNK         0.0800 
    135 H135        4.0537  -17.3242  -52.8774 H         1 UNK         0.0800 
    136 H136        1.6787  -17.3219  -51.9353 H         1 UNK         0.1150 
    137 H137        0.3588  -21.0138  -50.2199 H         1 UNK         0.1150 
    138 H138        4.5355  -20.3566  -50.9100 H         1 UNK         0.1150 
    139 H139        1.8702  -22.8599  -50.0477 H         1 UNK         0.0800 
    140 H140        3.4533  -22.7253  -50.7489 H         1 UNK         0.0800 
    141 H141        1.7614  -20.7714  -47.8021 H         1 UNK         0.0800 
    142 H142        2.8285  -21.1309  -46.4900 H         1 UNK         0.0800 
    143 H143        1.8079  -23.5750  -46.5640 H         1 UNK         0.0600 
    144 H144        1.0572  -21.3188  -45.0636 H         1 UNK         0.3000 
    145 H145       -1.4088  -22.8955  -42.9818 H         1 UNK         0.0600 
    146 H146        1.3980  -21.7702  -42.4804 H         1 UNK         0.0600 
    147 H147        0.1148  -21.9184  -41.2831 H         1 UNK         0.0600 
    148 H148        0.8267  -23.3602  -41.9931 H         1 UNK         0.0600 
    149 H149       -0.4782  -20.2050  -43.0844 H         1 UNK         0.3000 
    150 H150       -2.7966  -19.0088  -45.5406 H         1 UNK         0.0600 
    151 H151       -4.0003  -18.9022  -43.3730 H         1 UNK         0.0600 
    152 H152       -3.1962  -17.3749  -43.7089 H         1 UNK         0.0600 
    153 H153       -2.5110  -18.4946  -42.5324 H         1 UNK         0.0600 
    154 H154       -0.7249  -17.6719  -44.1476 H         1 UNK         0.3000 
    155 H155        1.9254  -18.4071  -46.4524 H         1 UNK         0.0600 
    156 H156        0.2174  -15.9486  -45.8513 H         1 UNK         0.0600 
    157 H157        1.9245  -15.8717  -46.2729 H         1 UNK         0.0600 
    158 H158        0.7476  -16.5075  -47.4256 H         1 UNK         0.0600 
    159 H159        1.7105  -16.9137  -43.9918 H         1 UNK         0.3000 
    160 H160        2.6742  -19.5613  -41.8146 H         1 UNK         0.0600 
    161 H161        4.8439  -18.8201  -42.8134 H         1 UNK         0.0600 
    162 H162        4.2905  -17.1497  -42.8106 H         1 UNK         0.0600 
    163 H163        4.5360  -18.0062  -41.2880 H         1 UNK         0.0600 
    164 H164        2.2906  -16.7689  -41.3899 H         1 UNK         0.3000 
    165 H165       -1.2234  -16.7288  -41.0471 H         1 UNK         0.0600 
    166 H166       -0.7189  -15.9429  -38.7473 H         1 UNK         0.0600 
    167 H167       -0.5313  -17.6861  -38.8476 H         1 UNK         0.0600 
    168 H168        0.8936  -16.6540  -38.8282 H         1 UNK         0.0600 
    169 H169        0.8277  -14.8092  -40.4796 H         1 UNK         0.3000 
    170 H170        1.3105  -13.1317  -41.7914 H         1 UNK         0.0600 
    171 H171        2.8751  -14.5340  -43.1568 H         1 UNK         0.0600 
    172 H172        1.9096  -14.2097  -44.5935 H         1 UNK         0.0600 
    173 H173        2.7484  -12.8958  -43.7791 H         1 UNK         0.0600 
    174 H174       -0.1342  -12.8738  -44.3901 H         1 UNK         0.3000 
    175 H175       -2.3920  -10.5020  -43.0865 H         1 UNK         0.0600 
    176 H176        0.0304   -9.7456  -44.8104 H         1 UNK         0.0600 
    177 H177       -1.4999   -8.8706  -44.7358 H         1 UNK         0.0600 
    178 H178       -0.4569   -8.9389  -43.3244 H         1 UNK         0.0600 
    179 H179       -1.6226  -11.2799  -45.7621 H         1 UNK         0.3000 
    180 H180       -3.0152  -14.3606  -45.9004 H         1 UNK         0.0600 
    181 H181       -4.7867  -12.0736  -46.9087 H         1 UNK         0.0600 
    182 H182       -5.3075  -13.3617  -45.8291 H         1 UNK         0.0600 
    183 H183       -4.8282  -13.7462  -47.4709 H         1 UNK         0.0600 
    184 H184       -2.6967  -12.6883  -48.1124 H         1 UNK         0.3000 
    185 H185       -0.9094  -13.2356  -49.4317 H         1 UNK         0.0600 
    186 H186        0.7082  -11.3391  -49.7473 H         1 UNK         0.0600 
    187 H187       -0.6280  -10.8295  -48.7280 H         1 UNK         0.0600 
    188 H188        0.9296  -11.2166  -48.0035 H         1 UNK         0.0600 
    189 H189        1.2650  -14.1666  -47.7801 H         1 UNK         0.3000 
    190 H190       -0.7164  -21.1140  -47.2389 H         1 UNK         0.3000 
    191 H191       -1.7307  -22.1740  -49.6241 H         1 UNK         0.0600 
    192 H192       -3.1934  -20.5774  -47.4552 H         1 UNK         0.0600 
    193 H193       -3.6962  -20.7450  -49.1291 H         1 UNK         0.0600 
    194 H194       -2.2091  -19.8910  -48.7386 H         1 UNK         0.0600 
    195 H195       -2.7567  -22.8525  -46.2443 H         1 UNK         0.3000 
    196 H196       -4.8480  -24.6634  -46.8795 H         1 UNK         0.0600 
    197 H197       -4.6239  -25.3331  -44.4783 H         1 UNK         0.0600 
    198 H198       -4.6240  -23.5857  -44.6648 H         1 UNK         0.0600 
    199 H199       -3.1122  -24.4391  -44.3634 H         1 UNK         0.0600 
    200 H200       -1.3548  -25.2255  -46.2768 H         1 UNK         0.3000 
    201 H201       -1.4681  -28.0797  -46.4242 H         1 UNK         0.0600 
    202 H202        0.3792  -26.8822  -45.3030 H         1 UNK         0.0600 
    203 H203        0.8741  -26.1445  -46.8240 H         1 UNK         0.0600 
    204 H204        1.0174  -27.8838  -46.5981 H         1 UNK         0.0600 
    205 H205       -0.6498  -25.5691  -48.8651 H         1 UNK         0.3000 
    206 H206       -0.1265  -27.4148  -51.0006 H         1 UNK         0.0600 
    207 H207        0.8395  -25.1452  -50.9504 H         1 UNK         0.0600 
    208 H208       -0.1594  -25.3129  -52.3872 H         1 UNK         0.0600 
    209 H209       -0.7645  -24.4214  -50.9926 H         1 UNK         0.0600 
    210 H210       -3.0258  -25.7074  -49.9329 H         1 UNK         0.3000 
    211 H211       -5.1595  -25.8534  -50.2650 H         1 UNK         0.0600 
    212 H212       -4.7248  -28.3681  -51.9591 H         1 UNK         0.0600 
    213 H213       -6.2546  -27.8024  -51.3075 H         1 UNK         0.0600 
    214 H214       -4.9814  -28.3261  -50.2154 H         1 UNK         0.0600 
    215 H215       -3.5188  -26.5278  -53.3667 H         1 UNK         0.3000 
    216 H216       -5.4559  -25.2027  -55.0300 H         1 UNK         0.0600 
    217 H217       -3.7064  -25.5137  -56.7917 H         1 UNK         0.0600 
    218 H218       -3.9490  -26.9885  -55.8689 H         1 UNK         0.0600 
    219 H219       -2.5361  -25.9788  -55.5617 H         1 UNK         0.0600 
    220 H220       -2.7479  -24.0199  -53.1715 H         1 UNK         0.3000 
    221 H221       -2.3925  -21.5317  -54.6452 H         1 UNK         0.0600 
    222 H222       -1.2933  -22.3659  -51.9146 H         1 UNK         0.0600 
    223 H223       -0.5165  -22.7307  -53.4558 H         1 UNK         0.0600 
    224 H224       -0.7035  -21.0658  -52.9385 H         1 UNK         0.0600 
    225 H225       -4.7811  -22.5312  -52.4556 H         1 UNK         0.3000 
    226 H226       -5.0437  -20.1306  -50.8694 H         1 UNK         0.0600 
    227 H227       -5.6383  -22.4141  -50.0343 H         1 UNK         0.0600 
    228 H228       -6.9828  -21.2919  -49.9155 H         1 UNK         0.0600 
    229 H229       -6.9561  -22.4909  -51.2034 H         1 UNK         0.0600 
    230 H230       -4.9786  -19.2436  -53.4078 H         1 UNK         0.3000 
    231 H231       -7.7026  -18.2259  -54.0891 H         1 UNK         0.0600 
    232 H232       -6.4593  -17.0860  -55.9421 H         1 UNK         0.0600 
    233 H233       -6.2518  -18.8302  -56.0095 H         1 UNK         0.0600 
    234 H234       -4.9515  -17.8129  -55.3960 H         1 UNK         0.0600 
    235 H235       -7.9519  -17.3250  -52.0111 H         1 UNK         0.3000 
    236 H236       -7.8398  -15.9611  -50.2709 H         1 UNK         0.0600 
    237 H237       -6.7340  -13.7643  -50.2909 H         1 UNK         0.0600 
    238 H238       -7.6416  -13.9724  -51.7757 H         1 UNK         0.0600 
    239 H239       -5.8909  -14.1321  -51.7908 H         1 UNK         0.0600 
    240 H240       -4.7484  -14.7677  -50.1186 H         1 UNK         0.3000 
    241 H241       -2.8258  -15.2958  -49.2270 H         1 UNK         0.0600 
    242 H242       -5.3927  -17.3853  -47.9187 H         1 UNK         0.3800 
    243 H243       -4.6626  -17.5042  -46.3276 H         1 UNK         0.3800 
    244 H244       -3.1862  -18.1994  -50.0949 H         1 UNK         0.0800 
    245 H245       -2.8900  -16.9196  -51.2319 H         1 UNK         0.0800 
    246 H246       -1.2511  -19.4684  -50.9995 H         1 UNK         0.0800 
    247 H247       -0.7692  -18.2580  -52.1628 H         1 UNK         0.0800 
@<TRIPOS>BOND
     1    1    2 1    
     2    1  127 1    
     3    1  128 1    
     4    1  129 1    
     5    2    3 2    
     6    2    4 am   BACKBONE|DICT|INTERRES
     7    4    5 1    
     8    4  130 1    
     9    5    6 1    
    10    5   65 1    
    11    5  131 1    
    12    6    7 1    
    13    6  132 1    
    14    6  133 1    
    15    7    8 1    
    16    8    9 1    
    17    8  134 1    
    18    8  135 1    
    19    9   10 ar   
    20    9   14 ar   
    21   10   11 ar   
    22   10  136 1    
    23   11   12 ar   
    24   11  126 1    
    25   12   13 ar   
    26   12  137 1    
    27   13   14 ar   
    28   13   15 1    
    29   14  138 1    
    30   15   16 1    
    31   15  139 1    
    32   15  140 1    
    33   16   17 1    
    34   17   18 1    
    35   17  141 1    
    36   17  142 1    
    37   18   19 1    
    38   18   67 1    
    39   18  143 1    
    40   19   20 am   BACKBONE|DICT|INTERRES
    41   19  144 1    
    42   20   21 2    
    43   20   22 1    
    44   22   23 1    
    45   22   24 1    
    46   22  145 1    
    47   23  146 1    
    48   23  147 1    
    49   23  148 1    
    50   24   25 am   BACKBONE|DICT|INTERRES
    51   24  149 1    
    52   25   26 2    
    53   25   27 1    
    54   27   28 1    
    55   27   29 1    
    56   27  150 1    
    57   28  151 1    
    58   28  152 1    
    59   28  153 1    
    60   29   30 am   BACKBONE|DICT|INTERRES
    61   29  154 1    
    62   30   31 2    
    63   30   32 1    
    64   32   33 1    
    65   32   34 1    
    66   32  155 1    
    67   33  156 1    
    68   33  157 1    
    69   33  158 1    
    70   34   35 am   BACKBONE|DICT|INTERRES
    71   34  159 1    
    72   35   36 2    
    73   35   37 1    
    74   37   38 1    
    75   37   39 1    
    76   37  160 1    
    77   38  161 1    
    78   38  162 1    
    79   38  163 1    
    80   39   40 am   BACKBONE|DICT|INTERRES
    81   39  164 1    
    82   40   41 2    
    83   40   42 1    
    84   42   43 1    
    85   42   44 1    
    86   42  165 1    
    87   43  166 1    
    88   43  167 1    
    89   43  168 1    
    90   44   45 am   BACKBONE|DICT|INTERRES
    91   44  169 1    
    92   45   46 2    
    93   45   47 1    
    94   47   48 1    
    95   47   49 1    
    96   47  170 1    
    97   48  171 1    
    98   48  172 1    
    99   48  173 1    
   100   49   50 am   BACKBONE|DICT|INTERRES
   101   49  174 1    
   102   50   51 2    
   103   50   52 1    
   104   52   53 1    
   105   52   54 1    
   106   52  175 1    
   107   53  176 1    
   108   53  177 1    
   109   53  178 1    
   110   54   55 am   BACKBONE|DICT|INTERRES
   111   54  179 1    
   112   55   56 2    
   113   55   57 1    
   114   57   58 1    
   115   57   59 1    
   116   57  180 1    
   117   58  181 1    
   118   58  182 1    
   119   58  183 1    
   120   59   60 am   BACKBONE|DICT|INTERRES
   121   59  184 1    
   122   60   61 2    
   123   60   62 1    
   124   62   63 1    
   125   62   64 1    
   126   62  185 1    
   127   63  186 1    
   128   63  187 1    
   129   63  188 1    
   130   64   65 am   BACKBONE|DICT|INTERRES
   131   64  189 1    
   132   65   66 2    
   133   67   68 2    
   134   67   69 am   BACKBONE|DICT|INTERRES
   135   69   70 1    
   136   69  190 1    
   137   70   71 1    
   138   70   72 1    
   139   70  191 1    
   140   71  192 1    
   141   71  193 1    
   142   71  194 1    
   143   72   73 2    
   144   72   74 am   BACKBONE|DICT|INTERRES
   145   74   75 1    
   146   74  195 1    
   147   75   76 1    
   148   75   77 1    
   149   75  196 1    
   150   76  197 1    
   151   76  198 1    
   152   76  199 1    
   153   77   78 2    
   154   77   79 am   BACKBONE|DICT|INTERRES
   155   79   80 1    
   156   79  200 1    
   157   80   81 1    
   158   80   82 1    
   159   80  201 1    
   160   81  202 1    
   161   81  203 1    
   162   81  204 1    
   163   82   83 2    
   164   82   84 am   BACKBONE|DICT|INTERRES
   165   84   85 1    
   166   84  205 1    
   167   85   86 1    
   168   85   87 1    
   169   85  206 1    
   170   86  207 1    
   171   86  208 1    
   172   86  209 1    
   173   87   88 2    
   174   87   89 am   BACKBONE|DICT|INTERRES
   175   89   90 1    
   176   89  210 1    
   177   90   91 1    
   178   90   92 1    
   179   90  211 1    
   180   91  212 1    
   181   91  213 1    
   182   91  214 1    
   183   92   93 2    
   184   92   94 am   BACKBONE|DICT|INTERRES
   185   94   95 1    
   186   94  215 1    
   187   95   96 1    
   188   95   97 1    
   189   95  216 1    
   190   96  217 1    
   191   96  218 1    
   192   96  219 1    
   193   97   98 2    
   194   97   99 am   BACKBONE|DICT|INTERRES
   195   99  100 1    
   196   99  220 1    
   197  100  101 1    
   198  100  102 1    
   199  100  221 1    
   200  101  222 1    
   201  101  223 1    
   202  101  224 1    
   203  102  103 2    
   204  102  104 am   BACKBONE|DICT|INTERRES
   205  104  105 1    
   206  104  225 1    
   207  105  106 1    
   208  105  107 1    
   209  105  226 1    
   210  106  227 1    
   211  106  228 1    
   212  106  229 1    
   213  107  108 2    
   214  107  109 am   BACKBONE|DICT|INTERRES
   215  109  110 1    
   216  109  230 1    
   217  110  111 1    
   218  110  112 1    
   219  110  231 1    
   220  111  232 1    
   221  111  233 1    
   222  111  234 1    
   223  112  113 2    
   224  112  114 am   BACKBONE|DICT|INTERRES
   225  114  115 1    
   226  114  235 1    
   227  115  116 1    
   228  115  117 1    
   229  115  236 1    
   230  116  237 1    
   231  116  238 1    
   232  116  239 1    
   233  117  118 2    
   234  117  119 am   BACKBONE|DICT|INTERRES
   235  119  120 1    
   236  119  240 1    
   237  120  121 1    
   238  120  124 1    
   239  120  241 1    
   240  121  122 am   BACKBONE|DICT|INTERRES
   241  121  123 2    
   242  122  242 1    
   243  122  243 1    
   244  124  125 1    
   245  124  244 1    
   246  124  245 1    
   247  125  126 1    
   248  126  246 1    
   249  126  247 1    
@<TRIPOS>SUBSTRUCTURE
     1 UNK         1 GROUP             0       ****    0 ROOT    
