@<TRIPOS>MOLECULE
3R540
247   249    1
SMALL
USER_CHARGES


@<TRIPOS>ATOM
      1 CA          2.8830  -12.9140  -49.2727 C.3       0 UNK        -0.1800 
      2 C           2.7462  -14.3518  -49.7510 C.2       0 UNK         0.5000 
      3 O           3.6884  -15.1331  -49.6221 O.2       0 UNK        -0.5000 
      4 N           1.5690  -14.7095  -50.2825 N.am      1 UNK        -0.5000 
      5 CA          1.2415  -16.0218  -50.8641 C.3       1 UNK         0.1400 
      6 C6         -0.1561  -16.0482  -51.5389 C.3       23 UNK        -0.0398 
      7 S7         -0.5611  -14.6044  -52.5885 S.3       23 UNK        -0.2404 
      8 C8         -1.3566  -13.4278  -51.4358 C.3       23 UNK        -0.0205 
      9 C9         -2.6122  -13.9805  -50.7755 C.ar      23 UNK        -0.0193 
     10 C10        -3.8633  -13.8256  -51.3808 C.ar      23 UNK        -0.1150 
     11 C11        -5.0185  -14.3147  -50.7604 C.ar      23 UNK        -0.0193 
     12 C12        -4.9085  -14.9894  -49.5394 C.ar      23 UNK        -0.1150 
     13 C13        -3.6614  -15.1618  -48.9337 C.ar      23 UNK        -0.0193 
     14 C14        -2.5240  -14.6269  -49.5397 C.ar      23 UNK        -0.1150 
     15 C15        -3.5276  -15.9466  -47.6406 C.3       23 UNK        -0.0205 
     16 S16        -3.0459  -17.6626  -47.9972 S.3       23 UNK        -0.2404 
     17 C17        -2.8318  -18.3156  -46.3110 C.3       23 UNK        -0.0398 
     18 CA         -2.0342  -19.6414  -46.3036 C.3       11 UNK         0.1400 
     19 N          -1.3207  -19.8730  -45.0428 N.am      11 UNK        -0.5000 
     20 C          -0.3546  -20.7953  -44.9069 C.2       10 UNK         0.5000 
     21 O           0.0203  -21.5202  -45.8271 O.2       10 UNK        -0.5000 
     22 CA          0.2733  -20.9870  -43.5174 C.3       10 UNK         0.1400 
     23 CB          1.5008  -20.0859  -43.3356 C.3       10 UNK        -0.1800 
     24 N          -0.6531  -20.7895  -42.4051 N.am      10 UNK        -0.5000 
     25 C          -1.7068  -21.5765  -42.1462 C.2       9 UNK         0.5000 
     26 O          -2.0947  -22.4651  -42.9058 O.2       9 UNK        -0.5000 
     27 CA         -2.4468  -21.3297  -40.8227 C.3       9 UNK         0.1400 
     28 CB         -1.6378  -21.8910  -39.6428 C.3       9 UNK        -0.1800 
     29 N          -2.6675  -19.9007  -40.6164 N.am      9 UNK        -0.5000 
     30 C          -3.8564  -19.2907  -40.7096 C.2       8 UNK         0.5000 
     31 O          -4.9237  -19.8846  -40.8686 O.2       8 UNK        -0.5000 
     32 CA         -3.8583  -17.7486  -40.6379 C.3       8 UNK         0.1400 
     33 CB         -4.1273  -17.2789  -39.2003 C.3       8 UNK        -0.1800 
     34 N          -2.6216  -17.1252  -41.1183 N.am      8 UNK        -0.5000 
     35 C          -2.1082  -17.2760  -42.3469 C.2       7 UNK         0.5000 
     36 O          -2.6342  -17.9505  -43.2309 O.2       7 UNK        -0.5000 
     37 CA         -0.7431  -16.6248  -42.6239 C.3       7 UNK         0.1400 
     38 CB         -0.9199  -15.2375  -43.2561 C.3       7 UNK        -0.1800 
     39 N           0.1478  -16.5217  -41.4650 N.am      7 UNK        -0.5000 
     40 C           0.5531  -17.5233  -40.6725 C.2       6 UNK         0.5000 
     41 O           0.0913  -18.6654  -40.7322 O.2       6 UNK        -0.5000 
     42 CA          1.6771  -17.1901  -39.6672 C.3       6 UNK         0.1400 
     43 CB          2.1599  -18.4325  -38.8970 C.3       6 UNK        -0.1800 
     44 N           2.8331  -16.5666  -40.3194 N.am      6 UNK        -0.5000 
     45 C           2.9193  -15.2887  -40.7150 C.2       5 UNK         0.5000 
     46 O           2.0108  -14.4711  -40.5607 O.2       5 UNK        -0.5000 
     47 CA          4.2191  -14.8510  -41.4184 C.3       5 UNK         0.1400 
     48 CB          5.1602  -14.1600  -40.4198 C.3       5 UNK        -0.1800 
     49 N           4.9400  -15.9477  -42.0720 N.am      5 UNK        -0.5000 
     50 C           4.5240  -16.5838  -43.1748 C.2       4 UNK         0.5000 
     51 O           3.4568  -16.3423  -43.7444 O.2       4 UNK        -0.5000 
     52 CA          5.4517  -17.6935  -43.7015 C.3       4 UNK         0.1400 
     53 CB          5.2230  -19.0016  -42.9298 C.3       4 UNK        -0.1800 
     54 N           5.2196  -17.9370  -45.1228 N.am      4 UNK        -0.5000 
     55 C           5.7583  -17.2309  -46.1221 C.2       3 UNK         0.5000 
     56 O           6.6028  -16.3496  -45.9550 O.2       3 UNK        -0.5000 
     57 CA          5.2655  -17.5457  -47.5489 C.3       3 UNK         0.1400 
     58 CB          5.8049  -18.8974  -48.0559 C.3       3 UNK        -0.1800 
     59 N           3.8098  -17.4447  -47.7076 N.am      3 UNK        -0.5000 
     60 C           2.8458  -18.2123  -47.1743 C.2       2 UNK         0.5000 
     61 O           3.0661  -19.1966  -46.4687 O.2       2 UNK        -0.5000 
     62 CA          1.3842  -17.7986  -47.4376 C.3       2 UNK         0.1400 
     63 CB          0.7944  -17.1433  -46.1815 C.3       2 UNK        -0.1800 
     64 N           1.2293  -16.8653  -48.5516 N.am      2 UNK        -0.5000 
     65 C           1.3411  -17.1843  -49.8480 C.2       1 UNK         0.5000 
     66 O           1.5128  -18.3334  -50.2493 O.2       1 UNK        -0.5000 
     67 C          -2.9257  -20.8397  -46.6799 C.2       11 UNK         0.5000 
     68 O          -2.9861  -21.2001  -47.8547 O.2       11 UNK        -0.5000 
     69 N          -3.5565  -21.4635  -45.6752 N.am      12 UNK        -0.5000 
     70 CA         -4.3509  -22.6788  -45.8379 C.3       12 UNK         0.1400 
     71 CB         -5.2159  -22.9016  -44.5880 C.3       12 UNK        -0.1800 
     72 C          -3.4670  -23.9044  -46.1269 C.2       12 UNK         0.5000 
     73 O          -3.8053  -24.6971  -47.0053 O.2       12 UNK        -0.5000 
     74 N          -2.3395  -24.0183  -45.4092 N.am      13 UNK        -0.5000 
     75 CA         -1.3620  -25.0987  -45.5563 C.3       13 UNK         0.1400 
     76 CB         -0.3318  -25.0178  -44.4201 C.3       13 UNK        -0.1800 
     77 C          -0.6624  -25.0988  -46.9285 C.2       13 UNK         0.5000 
     78 O          -0.5387  -26.1572  -47.5458 O.2       13 UNK        -0.5000 
     79 N          -0.2393  -23.9142  -47.3916 N.am      14 UNK        -0.5000 
     80 CA          0.3818  -23.7150  -48.7035 C.3       14 UNK         0.1400 
     81 CB          1.2111  -22.4197  -48.6717 C.3       14 UNK        -0.1800 
     82 C          -0.6416  -23.6487  -49.8526 C.2       14 UNK         0.5000 
     83 O          -0.2391  -23.6997  -51.0153 O.2       14 UNK        -0.5000 
     84 N          -1.9282  -23.4704  -49.5179 N.am      15 UNK        -0.5000 
     85 CA         -3.0548  -23.2037  -50.4178 C.3       15 UNK         0.1400 
     86 CB         -3.3918  -24.4509  -51.2597 C.3       15 UNK        -0.1800 
     87 C          -2.8172  -21.9439  -51.2755 C.2       15 UNK         0.5000 
     88 O          -3.0867  -21.9578  -52.4774 O.2       15 UNK        -0.5000 
     89 N          -2.2971  -20.8855  -50.6366 N.am      16 UNK        -0.5000 
     90 CA         -1.8218  -19.6297  -51.2321 C.3       16 UNK         0.1400 
     91 CB         -3.0045  -18.7782  -51.7395 C.3       16 UNK        -0.1800 
     92 C          -0.7336  -19.8584  -52.3060 C.2       16 UNK         0.5000 
     93 O          -0.7696  -19.2337  -53.3656 O.2       16 UNK        -0.5000 
     94 N           0.2023  -20.7702  -52.0030 N.am      17 UNK        -0.5000 
     95 CA          1.2790  -21.2639  -52.8672 C.3       17 UNK         0.1400 
     96 CB          2.2766  -20.1419  -53.2265 C.3       17 UNK        -0.1800 
     97 C           0.7221  -22.0132  -54.0943 C.2       17 UNK         0.5000 
     98 O           1.0761  -21.6991  -55.2324 O.2       17 UNK        -0.5000 
     99 N          -0.1489  -22.9951  -53.8161 N.am      18 UNK        -0.5000 
    100 CA        -0.8523  -23.8603  -54.7686 C.3       18 UNK         0.1400 
    101 CB         0.1373  -24.8195  -55.4622 C.3       18 UNK        -0.1800 
    102 C         -1.7347  -23.0728  -55.7616 C.2       18 UNK         0.5000 
    103 O         -1.7015  -23.3310  -56.9664 O.2       18 UNK        -0.5000 
    104 N         -2.5152  -22.1279  -55.2262 N.am      19 UNK        -0.5000 
    105 CA        -3.4379  -21.2612  -55.9593 C.3       19 UNK         0.1400 
    106 CB        -2.9124  -19.8158  -55.9211 C.3       19 UNK        -0.1800 
    107 C         -4.8627  -21.3792  -55.3865 C.2       19 UNK         0.5000 
    108 O         -5.6136  -20.4028  -55.4060 O.2       19 UNK        -0.5000 
    109 N         -5.2033  -22.5692  -54.8653 N.am      20 UNK        -0.5000 
    110 CA        -6.5052  -22.9599  -54.3069 C.3       20 UNK         0.1400 
    111 CB        -7.5516  -23.0801  -55.4341 C.3       20 UNK        -0.1800 
    112 C         -6.9791  -22.0535  -53.1497 C.2       20 UNK         0.5000 
    113 O         -8.1695  -21.7483  -53.0486 O.2       20 UNK        -0.5000 
    114 N         -6.0231  -21.6039  -52.3213 N.am      21 UNK        -0.5000 
    115 CA        -6.2002  -20.6714  -51.1987 C.3       21 UNK         0.1400 
    116 CB        -6.9862  -21.3408  -50.0526 C.3       21 UNK        -0.1800 
    117 C         -6.7879  -19.3111  -51.6355 C.2       21 UNK         0.5000 
    118 O         -7.5551  -18.7081  -50.8867 O.2       21 UNK        -0.5000 
    119 N         -6.4299  -18.8944  -52.8590 N.am      22 UNK        -0.5000 
    120 CA        -6.9066  -17.7182  -53.6026 C.3       22 UNK         0.1400 
    121 C         -8.4137  -17.7408  -54.0076 C.2       22 UNK         0.5000 
    122 N         -9.1236  -18.8564  -53.8736 N.am      22 UNK        -0.7600 
    123 O         -8.9401  -16.7476  -54.5025 O.2       22 UNK        -0.5000 
    124 C124       -6.3782  -16.3605  -53.0466 C.3       23 UNK        -0.0398 
    125 S125       -7.3209  -15.6158  -51.6708 S.3       23 UNK        -0.2404 
    126 C126       -6.3865  -14.0784  -51.3893 C.3       23 UNK        -0.0205 
    127 H127        3.6952  -12.4185  -49.8045 H         1 UNK         0.0600 
    128 H128        3.1097  -12.8936  -48.2067 H         1 UNK         0.0600 
    129 H129        1.9695  -12.3422  -49.4378 H         1 UNK         0.0600 
    130 H130        0.8483  -14.0109  -50.3809 H         1 UNK         0.3000 
    131 H131        1.9882  -16.2132  -51.6375 H         1 UNK         0.0600 
    132 H132       -0.9490  -16.2120  -50.8129 H         1 UNK         0.0800 
    133 H133       -0.2035  -16.9166  -52.1955 H         1 UNK         0.0800 
    134 H134       -1.6110  -12.5248  -51.9930 H         1 UNK         0.0800 
    135 H135       -0.6458  -13.1076  -50.6746 H         1 UNK         0.0800 
    136 H136       -3.9369  -13.3094  -52.3277 H         1 UNK         0.1150 
    137 H137       -5.7951  -15.3874  -49.0660 H         1 UNK         0.1150 
    138 H138       -1.5622  -14.7473  -49.0616 H         1 UNK         0.1150 
    139 H139       -2.7802  -15.4777  -46.9986 H         1 UNK         0.0800 
    140 H140       -4.4677  -15.9381  -47.0868 H         1 UNK         0.0800 
    141 H141       -3.8040  -18.4205  -45.8255 H         1 UNK         0.0800 
    142 H142       -2.2951  -17.5577  -45.7424 H         1 UNK         0.0800 
    143 H143       -1.2674  -19.5705  -47.0774 H         1 UNK         0.0600 
    144 H144       -1.6299  -19.3353  -44.2394 H         1 UNK         0.3000 
    145 H145        0.6214  -22.0196  -43.4633 H         1 UNK         0.0600 
    146 H146        1.9999  -20.2913  -42.3886 H         1 UNK         0.0600 
    147 H147        2.2266  -20.2581  -44.1307 H         1 UNK         0.0600 
    148 H148        1.2413  -19.0290  -43.3514 H         1 UNK         0.0600 
    149 H149       -0.3949  -20.0685  -41.7349 H         1 UNK         0.3000 
    150 H150       -3.3953  -21.8686  -40.8688 H         1 UNK         0.0600 
    151 H151       -1.4386  -22.9551  -39.7764 H         1 UNK         0.0600 
    152 H152       -2.1827  -21.7771  -38.7057 H         1 UNK         0.0600 
    153 H153       -0.6768  -21.3863  -39.5331 H         1 UNK         0.0600 
    154 H154       -1.8380  -19.3272  -40.5114 H         1 UNK         0.3000 
    155 H155       -4.6726  -17.3947  -41.2734 H         1 UNK         0.0600 
    156 H156       -3.3261  -17.5784  -38.5234 H         1 UNK         0.0600 
    157 H157       -5.0565  -17.7034  -38.8175 H         1 UNK         0.0600 
    158 H158       -4.2230  -16.1941  -39.1501 H         1 UNK         0.0600 
    159 H159       -2.1061  -16.5679  -40.4532 H         1 UNK         0.3000 
    160 H160       -0.2388  -17.2578  -43.3526 H         1 UNK         0.0600 
    161 H161       -1.3754  -14.5335  -42.5587 H         1 UNK         0.0600 
    162 H162       -1.5576  -15.2872  -44.1399 H         1 UNK         0.0600 
    163 H163        0.0387  -14.8254  -43.5725 H         1 UNK         0.0600 
    164 H164        0.5937  -15.6212  -41.3200 H         1 UNK         0.3000 
    165 H165        1.2612  -16.4885  -38.9413 H         1 UNK         0.0600 
    166 H166        2.9234  -18.1707  -38.1644 H         1 UNK         0.0600 
    167 H167        1.3385  -18.9010  -38.3531 H         1 UNK         0.0600 
    168 H168        2.5805  -19.1832  -39.5675 H         1 UNK         0.0600 
    169 H169        3.6148  -17.1730  -40.5170 H         1 UNK         0.3000 
    170 H170        3.9438  -14.1233  -42.1849 H         1 UNK         0.0600 
    171 H171        4.6651  -13.3180  -39.9341 H         1 UNK         0.0600 
    172 H172        5.4886  -14.8439  -39.6361 H         1 UNK         0.0600 
    173 H173        6.0471  -13.7687  -40.9187 H         1 UNK         0.0600 
    174 H174        5.8245  -16.2090  -41.6599 H         1 UNK         0.3000 
    175 H175        6.4884  -17.3825  -43.5555 H         1 UNK         0.0600 
    176 H176        4.1960  -19.3492  -43.0271 H         1 UNK         0.0600 
    177 H177        5.8793  -19.7929  -43.2927 H         1 UNK         0.0600 
    178 H178        5.4272  -18.8739  -41.8661 H         1 UNK         0.0600 
    179 H179        4.4713  -18.5813  -45.3637 H         1 UNK         0.3000 
    180 H180        5.6786  -16.7723  -48.1985 H         1 UNK         0.0600 
    181 H181        5.4602  -19.7342  -47.4482 H         1 UNK         0.0600 
    182 H182        6.8952  -18.9105  -48.0353 H         1 UNK         0.0600 
    183 H183        5.4966  -19.0819  -49.0851 H         1 UNK         0.0600 
    184 H184        3.5170  -16.6576  -48.2772 H         1 UNK         0.3000 
    185 H185        0.8195  -18.7051  -47.6619 H         1 UNK         0.0600 
    186 H186        0.7768  -17.8517  -45.3554 H         1 UNK         0.0600 
    187 H187        1.3824  -16.2823  -45.8603 H         1 UNK         0.0600 
    188 H188       -0.2261  -16.8042  -46.3505 H         1 UNK         0.0600 
    189 H189        1.0934  -15.8945  -48.3117 H         1 UNK         0.3000 
    190 H190       -3.4116  -21.1375  -44.7305 H         1 UNK         0.3000 
    191 H191       -5.0196  -22.5396  -46.6905 H         1 UNK         0.0600 
    192 H192       -4.6099  -23.0397  -43.6922 H         1 UNK         0.0600 
    193 H193       -5.8403  -23.7888  -44.7005 H         1 UNK         0.0600 
    194 H194       -5.8817  -22.0561  -44.4140 H         1 UNK         0.0600 
    195 H195       -2.1652  -23.3454  -44.6687 H         1 UNK         0.3000 
    196 H196       -1.8989  -26.0444  -45.4572 H         1 UNK         0.0600 
    197 H197        0.3661  -25.8547  -44.4670 H         1 UNK         0.0600 
    198 H198       -0.8153  -25.0507  -43.4435 H         1 UNK         0.0600 
    199 H199        0.2539  -24.1007  -44.4744 H         1 UNK         0.0600 
    200 H200       -0.3223  -23.0887  -46.8018 H         1 UNK         0.3000 
    201 H201        1.0572  -24.5482  -48.9081 H         1 UNK         0.0600 
    202 H202        1.9462  -22.4408  -47.8668 H         1 UNK         0.0600 
    203 H203        0.5822  -21.5406  -48.5234 H         1 UNK         0.0600 
    204 H204        1.7585  -22.2789  -49.6044 H         1 UNK         0.0600 
    205 H205       -2.1463  -23.4141  -48.5325 H         1 UNK         0.3000 
    206 H206       -3.9163  -22.9885  -49.7842 H         1 UNK         0.0600 
    207 H207       -4.2918  -24.2916  -51.8546 H         1 UNK         0.0600 
    208 H208       -3.5751  -25.3150  -50.6211 H         1 UNK         0.0600 
    209 H209       -2.5855  -24.7084  -51.9463 H         1 UNK         0.0600 
    210 H210       -2.2196  -20.9585  -49.6257 H         1 UNK         0.3000 
    211 H211       -1.3398  -19.0716  -50.4280 H         1 UNK         0.0600 
    212 H212       -2.6634  -17.8162  -52.1233 H         1 UNK         0.0600 
    213 H213       -3.7091  -18.5646  -50.9363 H         1 UNK         0.0600 
    214 H214       -3.5454  -19.2761  -52.5436 H         1 UNK         0.0600 
    215 H215        0.1135  -21.2474  -51.1187 H         1 UNK         0.3000 
    216 H216        1.8249  -22.0047  -52.2811 H         1 UNK         0.0600 
    217 H217        3.1243  -20.5409  -53.7846 H         1 UNK         0.0600 
    218 H218        2.6749  -19.6678  -52.3298 H         1 UNK         0.0600 
    219 H219        1.8194  -19.3664  -53.8411 H         1 UNK         0.0600 
    220 H220       -0.3403  -23.1831  -52.8345 H         1 UNK         0.3000 
    221 H221       -1.5355  -24.4701  -54.1764 H         1 UNK         0.0600 
    222 H222        0.8358  -24.2859  -56.1073 H         1 UNK         0.0600 
    223 H223        0.7185  -25.3813  -54.7309 H         1 UNK         0.0600 
    224 H224       -0.3909  -25.5452  -56.0817 H         1 UNK         0.0600 
    225 H225       -2.5183  -22.0083  -54.2142 H         1 UNK         0.3000 
    226 H226       -3.5014  -21.5703  -57.0041 H         1 UNK         0.0600 
    227 H227       -1.8818  -19.7601  -56.2723 H         1 UNK         0.0600 
    228 H228       -3.5098  -19.1629  -56.5582 H         1 UNK         0.0600 
    229 H229       -2.9431  -19.4067  -54.9115 H         1 UNK         0.0600 
    230 H230       -4.4953  -23.2894  -54.8674 H         1 UNK         0.3000 
    231 H231       -6.3696  -23.9523  -53.8749 H         1 UNK         0.0600 
    232 H232       -7.2035  -23.7428  -56.2264 H         1 UNK         0.0600 
    233 H233       -7.7755  -22.1111  -55.8817 H         1 UNK         0.0600 
    234 H234       -8.4890  -23.4917  -55.0581 H         1 UNK         0.0600 
    235 H235       -5.0632  -21.8589  -52.5322 H         1 UNK         0.3000 
    236 H236       -5.2069  -20.4503  -50.8124 H         1 UNK         0.0600 
    237 H237       -7.0008  -20.7056  -49.1661 H         1 UNK         0.0600 
    238 H238       -8.0217  -21.5371  -50.3318 H         1 UNK         0.0600 
    239 H239       -6.5306  -22.2876  -49.7627 H         1 UNK         0.0600 
    240 H240       -5.8662  -19.5238  -53.4166 H         1 UNK         0.3000 
    241 H241       -6.4071  -17.8359  -54.5648 H         1 UNK         0.0600 
    242 H242      -10.0907  -18.8627  -54.1559 H         1 UNK         0.3800 
    243 H243       -8.7068  -19.6992  -53.4976 H         1 UNK         0.3800 
    244 H244       -5.3389  -16.4718  -52.7341 H         1 UNK         0.0800 
    245 H245       -6.3622  -15.6302  -53.8569 H         1 UNK         0.0800 
    246 H246       -6.2972  -13.5371  -52.3324 H         1 UNK         0.0800 
    247 H247       -6.9658  -13.4374  -50.7236 H         1 UNK         0.0800 
@<TRIPOS>BOND
     1    1    2 1    
     2    1  127 1    
     3    1  128 1    
     4    1  129 1    
     5    2    3 2    
     6    2    4 am   BACKBONE|DICT|INTERRES
     7    4    5 1    
     8    4  130 1    
     9    5    6 1    
    10    5   65 1    
    11    5  131 1    
    12    6    7 1    
    13    6  132 1    
    14    6  133 1    
    15    7    8 1    
    16    8    9 1    
    17    8  134 1    
    18    8  135 1    
    19    9   10 ar   
    20    9   14 ar   
    21   10   11 ar   
    22   10  136 1    
    23   11   12 ar   
    24   11  126 1    
    25   12   13 ar   
    26   12  137 1    
    27   13   14 ar   
    28   13   15 1    
    29   14  138 1    
    30   15   16 1    
    31   15  139 1    
    32   15  140 1    
    33   16   17 1    
    34   17   18 1    
    35   17  141 1    
    36   17  142 1    
    37   18   19 1    
    38   18   67 1    
    39   18  143 1    
    40   19   20 am   BACKBONE|DICT|INTERRES
    41   19  144 1    
    42   20   21 2    
    43   20   22 1    
    44   22   23 1    
    45   22   24 1    
    46   22  145 1    
    47   23  146 1    
    48   23  147 1    
    49   23  148 1    
    50   24   25 am   BACKBONE|DICT|INTERRES
    51   24  149 1    
    52   25   26 2    
    53   25   27 1    
    54   27   28 1    
    55   27   29 1    
    56   27  150 1    
    57   28  151 1    
    58   28  152 1    
    59   28  153 1    
    60   29   30 am   BACKBONE|DICT|INTERRES
    61   29  154 1    
    62   30   31 2    
    63   30   32 1    
    64   32   33 1    
    65   32   34 1    
    66   32  155 1    
    67   33  156 1    
    68   33  157 1    
    69   33  158 1    
    70   34   35 am   BACKBONE|DICT|INTERRES
    71   34  159 1    
    72   35   36 2    
    73   35   37 1    
    74   37   38 1    
    75   37   39 1    
    76   37  160 1    
    77   38  161 1    
    78   38  162 1    
    79   38  163 1    
    80   39   40 am   BACKBONE|DICT|INTERRES
    81   39  164 1    
    82   40   41 2    
    83   40   42 1    
    84   42   43 1    
    85   42   44 1    
    86   42  165 1    
    87   43  166 1    
    88   43  167 1    
    89   43  168 1    
    90   44   45 am   BACKBONE|DICT|INTERRES
    91   44  169 1    
    92   45   46 2    
    93   45   47 1    
    94   47   48 1    
    95   47   49 1    
    96   47  170 1    
    97   48  171 1    
    98   48  172 1    
    99   48  173 1    
   100   49   50 am   BACKBONE|DICT|INTERRES
   101   49  174 1    
   102   50   51 2    
   103   50   52 1    
   104   52   53 1    
   105   52   54 1    
   106   52  175 1    
   107   53  176 1    
   108   53  177 1    
   109   53  178 1    
   110   54   55 am   BACKBONE|DICT|INTERRES
   111   54  179 1    
   112   55   56 2    
   113   55   57 1    
   114   57   58 1    
   115   57   59 1    
   116   57  180 1    
   117   58  181 1    
   118   58  182 1    
   119   58  183 1    
   120   59   60 am   BACKBONE|DICT|INTERRES
   121   59  184 1    
   122   60   61 2    
   123   60   62 1    
   124   62   63 1    
   125   62   64 1    
   126   62  185 1    
   127   63  186 1    
   128   63  187 1    
   129   63  188 1    
   130   64   65 am   BACKBONE|DICT|INTERRES
   131   64  189 1    
   132   65   66 2    
   133   67   68 2    
   134   67   69 am   BACKBONE|DICT|INTERRES
   135   69   70 1    
   136   69  190 1    
   137   70   71 1    
   138   70   72 1    
   139   70  191 1    
   140   71  192 1    
   141   71  193 1    
   142   71  194 1    
   143   72   73 2    
   144   72   74 am   BACKBONE|DICT|INTERRES
   145   74   75 1    
   146   74  195 1    
   147   75   76 1    
   148   75   77 1    
   149   75  196 1    
   150   76  197 1    
   151   76  198 1    
   152   76  199 1    
   153   77   78 2    
   154   77   79 am   BACKBONE|DICT|INTERRES
   155   79   80 1    
   156   79  200 1    
   157   80   81 1    
   158   80   82 1    
   159   80  201 1    
   160   81  202 1    
   161   81  203 1    
   162   81  204 1    
   163   82   83 2    
   164   82   84 am   BACKBONE|DICT|INTERRES
   165   84   85 1    
   166   84  205 1    
   167   85   86 1    
   168   85   87 1    
   169   85  206 1    
   170   86  207 1    
   171   86  208 1    
   172   86  209 1    
   173   87   88 2    
   174   87   89 am   BACKBONE|DICT|INTERRES
   175   89   90 1    
   176   89  210 1    
   177   90   91 1    
   178   90   92 1    
   179   90  211 1    
   180   91  212 1    
   181   91  213 1    
   182   91  214 1    
   183   92   93 2    
   184   92   94 am   BACKBONE|DICT|INTERRES
   185   94   95 1    
   186   94  215 1    
   187   95   96 1    
   188   95   97 1    
   189   95  216 1    
   190   96  217 1    
   191   96  218 1    
   192   96  219 1    
   193   97   98 2    
   194   97   99 am   BACKBONE|DICT|INTERRES
   195   99  100 1    
   196   99  220 1    
   197  100  101 1    
   198  100  102 1    
   199  100  221 1    
   200  101  222 1    
   201  101  223 1    
   202  101  224 1    
   203  102  103 2    
   204  102  104 am   BACKBONE|DICT|INTERRES
   205  104  105 1    
   206  104  225 1    
   207  105  106 1    
   208  105  107 1    
   209  105  226 1    
   210  106  227 1    
   211  106  228 1    
   212  106  229 1    
   213  107  108 2    
   214  107  109 am   BACKBONE|DICT|INTERRES
   215  109  110 1    
   216  109  230 1    
   217  110  111 1    
   218  110  112 1    
   219  110  231 1    
   220  111  232 1    
   221  111  233 1    
   222  111  234 1    
   223  112  113 2    
   224  112  114 am   BACKBONE|DICT|INTERRES
   225  114  115 1    
   226  114  235 1    
   227  115  116 1    
   228  115  117 1    
   229  115  236 1    
   230  116  237 1    
   231  116  238 1    
   232  116  239 1    
   233  117  118 2    
   234  117  119 am   BACKBONE|DICT|INTERRES
   235  119  120 1    
   236  119  240 1    
   237  120  121 1    
   238  120  124 1    
   239  120  241 1    
   240  121  122 am   BACKBONE|DICT|INTERRES
   241  121  123 2    
   242  122  242 1    
   243  122  243 1    
   244  124  125 1    
   245  124  244 1    
   246  124  245 1    
   247  125  126 1    
   248  126  246 1    
   249  126  247 1    
@<TRIPOS>SUBSTRUCTURE
     1 UNK         1 GROUP             0       ****    0 ROOT    
