@<TRIPOS>MOLECULE
3R540
247   249    1
SMALL
USER_CHARGES


@<TRIPOS>ATOM
      1 CA          0.8298  -11.3549  -48.9140 C.3       0 UNK        -0.1800 
      2 C           2.2804  -11.7491  -49.1547 C.2       0 UNK         0.5000 
      3 O           2.6287  -12.1642  -50.2594 O.2       0 UNK        -0.5000 
      4 N           3.1204  -11.6240  -48.1242 N.am      1 UNK        -0.5000 
      5 CA          4.5477  -11.9371  -48.1268 C.3       1 UNK         0.1400 
      6 C6          4.8429  -13.4646  -48.2454 C.3       23 UNK        -0.0398 
      7 S7          4.5560  -14.4569  -46.7355 S.3       23 UNK        -0.2404 
      8 C8          2.7983  -14.8979  -46.8908 C.3       23 UNK        -0.0205 
      9 C9          2.5202  -15.9058  -47.9965 C.ar      23 UNK        -0.0193 
     10 C10         1.5695  -15.6122  -48.9771 C.ar      23 UNK        -0.1150 
     11 C11         1.2560  -16.5473  -49.9653 C.ar      23 UNK        -0.0193 
     12 C12         1.9147  -17.7789  -49.9838 C.ar      23 UNK        -0.1150 
     13 C13         2.8759  -18.0825  -49.0159 C.ar      23 UNK        -0.0193 
     14 C14         3.1686  -17.1456  -48.0193 C.ar      23 UNK        -0.1150 
     15 C15         3.6097  -19.4149  -49.0611 C.3       23 UNK        -0.0205 
     16 S16         3.0000  -20.5895  -47.8132 S.3       23 UNK        -0.2404 
     17 C17         1.2923  -20.8919  -48.3820 C.3       23 UNK        -0.0398 
     18 CA          0.6380  -22.0676  -47.6189 C.3       11 UNK         0.1400 
     19 N           0.4468  -21.7778  -46.1947 N.am      11 UNK        -0.5000 
     20 C           0.0986  -22.6822  -45.2702 C.2       10 UNK         0.5000 
     21 O          -0.0628  -23.8769  -45.5141 O.2       10 UNK        -0.5000 
     22 CA         -0.1676  -22.1604  -43.8468 C.3       10 UNK         0.1400 
     23 CB          1.1434  -21.9514  -43.0739 C.3       10 UNK        -0.1800 
     24 N          -0.9519  -20.9247  -43.8488 N.am      10 UNK        -0.5000 
     25 C          -2.2311  -20.8479  -44.2436 C.2       9 UNK         0.5000 
     26 O          -2.8907  -21.8194  -44.6112 O.2       9 UNK        -0.5000 
     27 CA         -2.8712  -19.4482  -44.2707 C.3       9 UNK         0.1400 
     28 CB         -3.3902  -19.0643  -42.8775 C.3       9 UNK        -0.1800 
     29 N          -1.9535  -18.4154  -44.7500 N.am      9 UNK        -0.5000 
     30 C          -1.4321  -18.3764  -45.9852 C.2       8 UNK         0.5000 
     31 O          -1.7118  -19.1812  -46.8732 O.2       8 UNK        -0.5000 
     32 CA         -0.3654  -17.2988  -46.2459 C.3       8 UNK         0.1400 
     33 CB         -1.0165  -15.9353  -46.5189 C.3       8 UNK        -0.1800 
     34 N           0.5875  -17.1825  -45.1389 N.am      8 UNK        -0.5000 
     35 C           1.4063  -18.1692  -44.7451 C.2       7 UNK         0.5000 
     36 O           1.4268  -19.2796  -45.2677 O.2       7 UNK        -0.5000 
     37 CA          2.3198  -17.8999  -43.5398 C.3       7 UNK         0.1400 
     38 CB          3.7272  -17.4852  -43.9898 C.3       7 UNK        -0.1800 
     39 N           1.7570  -16.8939  -42.6398 N.am      7 UNK        -0.5000 
     40 C           0.7920  -17.1690  -41.7517 C.2       6 UNK         0.5000 
     41 O           0.3146  -18.2932  -41.5879 O.2       6 UNK        -0.5000 
     42 CA          0.2460  -15.9859  -40.9348 C.3       6 UNK         0.1400 
     43 CB          1.3275  -15.4011  -40.0118 C.3       6 UNK        -0.1800 
     44 N          -0.3086  -14.9176  -41.7653 N.am      6 UNK        -0.5000 
     45 C          -1.3186  -15.0316  -42.6368 C.2       5 UNK         0.5000 
     46 O          -1.8758  -16.0951  -42.9063 O.2       5 UNK        -0.5000 
     47 CA         -1.7667  -13.7459  -43.3600 C.3       5 UNK         0.1400 
     48 CB         -2.5708  -12.8187  -42.4278 C.3       5 UNK        -0.1800 
     49 N          -0.6636  -13.0434  -44.0291 N.am      5 UNK        -0.5000 
     50 C           0.3754  -12.4055  -43.4734 C.2       4 UNK         0.5000 
     51 O           0.5066  -12.2126  -42.2619 O.2       4 UNK        -0.5000 
     52 CA          1.4664  -11.9263  -44.4490 C.3       4 UNK         0.1400 
     53 CB          1.2436  -10.4496  -44.8087 C.3       4 UNK        -0.1800 
     54 N           2.8258  -12.0967  -43.9283 N.am      4 UNK        -0.5000 
     55 C           3.3470  -13.2248  -43.4208 C.2       3 UNK         0.5000 
     56 O           2.7408  -14.2976  -43.3614 O.2       3 UNK        -0.5000 
     57 CA          4.8075  -13.1290  -42.9466 C.3       3 UNK         0.1400 
     58 CB          5.3796  -14.4755  -42.4696 C.3       3 UNK        -0.1800 
     59 N           5.6264  -12.6260  -44.0458 N.am      3 UNK        -0.5000 
     60 C           6.4275  -11.5545  -44.0090 C.2       2 UNK         0.5000 
     61 O           6.6279  -10.8841  -42.9957 O.2       2 UNK        -0.5000 
     62 CA          7.1098  -11.1470  -45.3348 C.3       2 UNK         0.1400 
     63 CB          8.5580  -11.6590  -45.3701 C.3       2 UNK        -0.1800 
     64 N           6.4107  -11.6194  -46.5366 N.am      2 UNK        -0.5000 
     65 C           5.1778  -11.2393  -46.9004 C.2       1 UNK         0.5000 
     66 O           4.5275  -10.3909  -46.2818 O.2       1 UNK        -0.5000 
     67 C          -0.6754  -22.5161  -48.2928 C.2       11 UNK         0.5000 
     68 O          -0.6547  -23.4715  -49.0684 O.2       11 UNK        -0.5000 
     69 N          -1.7998  -21.8672  -47.9548 N.am      12 UNK        -0.5000 
     70 CA         -3.1386  -22.2503  -48.4094 C.3       12 UNK         0.1400 
     71 CB         -4.1554  -21.1734  -48.0047 C.3       12 UNK        -0.1800 
     72 C          -3.5704  -23.6351  -47.8910 C.2       12 UNK         0.5000 
     73 O          -4.1384  -24.4158  -48.6559 O.2       12 UNK        -0.5000 
     74 N          -3.2616  -23.9296  -46.6196 N.am      13 UNK        -0.5000 
     75 CA         -3.4909  -25.2300  -45.9892 C.3       13 UNK         0.1400 
     76 CB         -3.2684  -25.1241  -44.4734 C.3       13 UNK        -0.1800 
     77 C          -2.6200  -26.3439  -46.5975 C.2       13 UNK         0.5000 
     78 O          -3.1275  -27.4386  -46.8384 O.2       13 UNK        -0.5000 
     79 N          -1.3459  -26.0406  -46.8861 N.am      14 UNK        -0.5000 
     80 CA         -0.4106  -26.9342  -47.5777 C.3       14 UNK         0.1400 
     81 CB          1.0004  -26.3284  -47.5478 C.3       14 UNK        -0.1800 
     82 C          -0.8415  -27.2462  -49.0245 C.2       14 UNK         0.5000 
     83 O          -0.6602  -28.3733  -49.4856 O.2       14 UNK        -0.5000 
     84 N          -1.4533  -26.2586  -49.6916 N.am      15 UNK        -0.5000 
     85 CA         -2.0961  -26.3867  -51.0010 C.3       15 UNK         0.1400 
     86 CB         -2.1806  -24.9933  -51.6460 C.3       15 UNK        -0.1800 
     87 C          -3.4921  -27.0463  -50.9409 C.2       15 UNK         0.5000 
     88 O          -4.1275  -27.1898  -51.9857 O.2       15 UNK        -0.5000 
     89 N          -3.9628  -27.4069  -49.7360 N.am      16 UNK        -0.5000 
     90 CA         -5.2446  -28.0493  -49.4217 C.3       16 UNK         0.1400 
     91 CB         -5.2795  -29.4825  -49.9920 C.3       16 UNK        -0.1800 
     92 C          -6.4795  -27.2179  -49.8302 C.2       16 UNK         0.5000 
     93 O          -7.5474  -27.7884  -50.0608 O.2       16 UNK        -0.5000 
     94 N          -6.3086  -25.8890  -49.9225 N.am      17 UNK        -0.5000 
     95 CA         -7.2822  -24.8975  -50.3923 C.3       17 UNK         0.1400 
     96 CB         -8.3957  -24.7008  -49.3436 C.3       17 UNK        -0.1800 
     97 C          -7.8285  -25.1995  -51.8079 C.2       17 UNK         0.5000 
     98 O          -9.0064  -24.9599  -52.0802 O.2       17 UNK        -0.5000 
     99 N          -6.9629  -25.7344  -52.6844 N.am      18 UNK        -0.5000 
    100 CA        -7.2954  -26.1632  -54.0479 C.3       18 UNK         0.1400 
    101 CB        -6.1125  -26.9561  -54.6239 C.3       18 UNK        -0.1800 
    102 C         -7.6929  -25.0187  -55.0029 C.2       18 UNK         0.5000 
    103 O         -8.3365  -25.2793  -56.0206 O.2       18 UNK        -0.5000 
    104 N         -7.3176  -23.7827  -54.6607 N.am      19 UNK        -0.5000 
    105 CA        -7.7193  -22.5541  -55.3324 C.3       19 UNK         0.1400 
    106 CB        -6.5818  -22.0776  -56.2509 C.3       19 UNK        -0.1800 
    107 C         -8.0363  -21.5018  -54.2619 C.2       19 UNK         0.5000 
    108 O         -7.5012  -21.5753  -53.1518 O.2       19 UNK        -0.5000 
    109 N         -8.8876  -20.5328  -54.6203 N.am      20 UNK        -0.5000 
    110 CA        -9.2359  -19.3901  -53.7714 C.3       20 UNK         0.1400 
    111 CB       -10.5435  -18.7648  -54.2818 C.3       20 UNK        -0.1800 
    112 C         -8.1163  -18.3322  -53.7166 C.2       20 UNK         0.5000 
    113 O         -8.0077  -17.6127  -52.7227 O.2       20 UNK        -0.5000 
    114 N         -7.3079  -18.2569  -54.7824 N.am      21 UNK        -0.5000 
    115 CA        -6.1220  -17.4096  -54.8723 C.3       21 UNK         0.1400 
    116 CB        -5.7157  -17.2785  -56.3485 C.3       21 UNK        -0.1800 
    117 C         -4.9628  -17.9925  -54.0446 C.2       21 UNK         0.5000 
    118 O         -4.8048  -19.2143  -53.9851 O.2       21 UNK        -0.5000 
    119 N         -4.1632  -17.1052  -53.4443 N.am      22 UNK        -0.5000 
    120 CA        -2.9476  -17.4505  -52.6956 C.3       22 UNK         0.1400 
    121 C         -1.8168  -17.9726  -53.6279 C.2       22 UNK         0.5000 
    122 N         -1.1168  -19.0301  -53.2409 N.am      22 UNK        -0.7600 
    123 O         -1.5483  -17.4018  -54.6829 O.2       22 UNK        -0.5000 
    124 C124       -2.4764  -16.2445  -51.8441 C.3       23 UNK        -0.0398 
    125 S125       -1.4475  -16.7421  -50.4236 S.3       23 UNK        -0.2404 
    126 C126        0.1968  -16.2290  -51.0043 C.3       23 UNK        -0.0205 
    127 H127        0.6636  -11.0243  -47.8885 H         1 UNK         0.0600 
    128 H128        0.5457  -10.5430  -49.5834 H         1 UNK         0.0600 
    129 H129        0.1734  -12.2033  -49.1077 H         1 UNK         0.0600 
    130 H130        2.8175  -11.1920  -47.2606 H         1 UNK         0.3000 
    131 H131        4.9799  -11.4457  -49.0007 H         1 UNK         0.0600 
    132 H132        4.2772  -13.9014  -49.0688 H         1 UNK         0.0800 
    133 H133        5.8868  -13.6073  -48.5269 H         1 UNK         0.0800 
    134 H134        2.4565  -15.3133  -45.9451 H         1 UNK         0.0800 
    135 H135        2.2169  -13.9897  -47.0413 H         1 UNK         0.0800 
    136 H136        1.0529  -14.6633  -48.9619 H         1 UNK         0.1150 
    137 H137        1.6747  -18.5018  -50.7509 H         1 UNK         0.1150 
    138 H138        3.8994  -17.3829  -47.2591 H         1 UNK         0.1150 
    139 H139        3.5321  -19.8665  -50.0513 H         1 UNK         0.0800 
    140 H140        4.6732  -19.2431  -48.8894 H         1 UNK         0.0800 
    141 H141        1.3259  -21.0989  -49.4533 H         1 UNK         0.0800 
    142 H142        0.7077  -19.9786  -48.2567 H         1 UNK         0.0800 
    143 H143        1.3203  -22.9182  -47.6807 H         1 UNK         0.0600 
    144 H144        0.6346  -20.8215  -45.9001 H         1 UNK         0.3000 
    145 H145       -0.7475  -22.9201  -43.3186 H         1 UNK         0.0600 
    146 H146        0.9535  -21.5885  -42.0636 H         1 UNK         0.0600 
    147 H147        1.6927  -22.8894  -42.9856 H         1 UNK         0.0600 
    148 H148        1.8005  -21.2372  -43.5687 H         1 UNK         0.0600 
    149 H149       -0.4727  -20.0759  -43.5843 H         1 UNK         0.3000 
    150 H150       -3.7218  -19.4844  -44.9542 H         1 UNK         0.0600 
    151 H151       -4.0780  -19.8188  -42.4934 H         1 UNK         0.0600 
    152 H152       -3.9291  -18.1171  -42.9060 H         1 UNK         0.0600 
    153 H153       -2.5754  -18.9627  -42.1591 H         1 UNK         0.0600 
    154 H154       -1.6998  -17.6930  -44.0827 H         1 UNK         0.3000 
    155 H155        0.1943  -17.5946  -47.1357 H         1 UNK         0.0600 
    156 H156       -0.2693  -15.1584  -46.6764 H         1 UNK         0.0600 
    157 H157       -1.6604  -15.6264  -45.6977 H         1 UNK         0.0600 
    158 H158       -1.6346  -15.9778  -47.4162 H         1 UNK         0.0600 
    159 H159        0.6043  -16.3147  -44.6260 H         1 UNK         0.3000 
    160 H160        2.4209  -18.8412  -42.9953 H         1 UNK         0.0600 
    161 H161        3.7281  -16.5232  -44.4980 H         1 UNK         0.0600 
    162 H162        4.1488  -18.2188  -44.6784 H         1 UNK         0.0600 
    163 H163        4.4027  -17.4146  -43.1377 H         1 UNK         0.0600 
    164 H164        2.0885  -15.9375  -42.7524 H         1 UNK         0.3000 
    165 H165       -0.5633  -16.3662  -40.3083 H         1 UNK         0.0600 
    166 H166        2.1338  -14.9328  -40.5780 H         1 UNK         0.0600 
    167 H167        0.9085  -14.6472  -39.3451 H         1 UNK         0.0600 
    168 H168        1.7710  -16.1772  -39.3867 H         1 UNK         0.0600 
    169 H169        0.1102  -13.9971  -41.6662 H         1 UNK         0.3000 
    170 H170       -2.4467  -14.0527  -44.1556 H         1 UNK         0.0600 
    171 H171       -3.4573  -13.3288  -42.0492 H         1 UNK         0.0600 
    172 H172       -1.9921  -12.4959  -41.5624 H         1 UNK         0.0600 
    173 H173       -2.9097  -11.9275  -42.9559 H         1 UNK         0.0600 
    174 H174       -0.6719  -13.1274  -45.0354 H         1 UNK         0.3000 
    175 H175        1.3984  -12.5182  -45.3626 H         1 UNK         0.0600 
    176 H176        1.9575  -10.1063  -45.5562 H         1 UNK         0.0600 
    177 H177        0.2457  -10.2919  -45.2202 H         1 UNK         0.0600 
    178 H178        1.3420   -9.8063  -43.9333 H         1 UNK         0.0600 
    179 H179        3.4144  -11.2765  -43.9558 H         1 UNK         0.3000 
    180 H180        4.8174  -12.4353  -42.1037 H         1 UNK         0.0600 
    181 H181        5.4436  -15.1928  -43.2875 H         1 UNK         0.0600 
    182 H182        4.7602  -14.9151  -41.6866 H         1 UNK         0.0600 
    183 H183        6.3817  -14.3503  -42.0596 H         1 UNK         0.0600 
    184 H184        5.5009  -13.0986  -44.9316 H         1 UNK         0.3000 
    185 H185        7.1319  -10.0557  -45.3670 H         1 UNK         0.0600 
    186 H186        9.0795  -11.3088  -46.2611 H         1 UNK         0.0600 
    187 H187        9.1201  -11.3026  -44.5057 H         1 UNK         0.0600 
    188 H188        8.5992  -12.7489  -45.3615 H         1 UNK         0.0600 
    189 H189        6.8906  -12.3207  -47.0817 H         1 UNK         0.3000 
    190 H190       -1.7380  -21.0482  -47.3556 H         1 UNK         0.3000 
    191 H191       -3.1175  -22.2990  -49.5000 H         1 UNK         0.0600 
    192 H192       -3.8956  -20.2057  -48.4344 H         1 UNK         0.0600 
    193 H193       -5.1556  -21.4285  -48.3571 H         1 UNK         0.0600 
    194 H194       -4.2080  -21.0549  -46.9224 H         1 UNK         0.0600 
    195 H195       -2.8510  -23.2083  -46.0347 H         1 UNK         0.3000 
    196 H196       -4.5357  -25.5003  -46.1568 H         1 UNK         0.0600 
    197 H197       -3.4569  -26.0800  -43.9833 H         1 UNK         0.0600 
    198 H198       -3.9416  -24.3919  -44.0274 H         1 UNK         0.0600 
    199 H199       -2.2473  -24.8279  -44.2336 H         1 UNK         0.0600 
    200 H200       -0.9798  -25.1389  -46.5907 H         1 UNK         0.3000 
    201 H201       -0.3861  -27.8780  -47.0293 H         1 UNK         0.0600 
    202 H202        1.3362  -26.1609  -46.5242 H         1 UNK         0.0600 
    203 H203        1.0404  -25.3744  -48.0733 H         1 UNK         0.0600 
    204 H204        1.7215  -26.9949  -48.0222 H         1 UNK         0.0600 
    205 H205       -1.4935  -25.3405  -49.2613 H         1 UNK         0.3000 
    206 H206       -1.4703  -27.0162  -51.6366 H         1 UNK         0.0600 
    207 H207       -2.5938  -25.0489  -52.6539 H         1 UNK         0.0600 
    208 H208       -2.8147  -24.3208  -51.0681 H         1 UNK         0.0600 
    209 H209       -1.1945  -24.5356  -51.7259 H         1 UNK         0.0600 
    210 H210       -3.3804  -27.2196  -48.9290 H         1 UNK         0.3000 
    211 H211       -5.2867  -28.1275  -48.3349 H         1 UNK         0.0600 
    212 H212       -5.3137  -29.4831  -51.0819 H         1 UNK         0.0600 
    213 H213       -6.1558  -30.0259  -49.6370 H         1 UNK         0.0600 
    214 H214       -4.4017  -30.0503  -49.6832 H         1 UNK         0.0600 
    215 H215       -5.4045  -25.5107  -49.6501 H         1 UNK         0.3000 
    216 H216       -6.7387  -23.9551  -50.4747 H         1 UNK         0.0600 
    217 H217       -7.9767  -24.4656  -48.3652 H         1 UNK         0.0600 
    218 H218       -9.0142  -25.5927  -49.2385 H         1 UNK         0.0600 
    219 H219       -9.0534  -23.8759  -49.6201 H         1 UNK         0.0600 
    220 H220       -6.0242  -25.9461  -52.3685 H         1 UNK         0.3000 
    221 H221       -8.1528  -26.8359  -53.9819 H         1 UNK         0.0600 
    222 H222       -5.2049  -26.3523  -54.6615 H         1 UNK         0.0600 
    223 H223       -5.9021  -27.8406  -54.0223 H         1 UNK         0.0600 
    224 H224       -6.3233  -27.2985  -55.6379 H         1 UNK         0.0600 
    225 H225       -6.8488  -23.6430  -53.7754 H         1 UNK         0.3000 
    226 H226       -8.6207  -22.7246  -55.9252 H         1 UNK         0.0600 
    227 H227       -6.3394  -22.8309  -57.0006 H         1 UNK         0.0600 
    228 H228       -6.8611  -21.1677  -56.7830 H         1 UNK         0.0600 
    229 H229       -5.6734  -21.8620  -55.6862 H         1 UNK         0.0600 
    230 H230       -9.2984  -20.5515  -55.5429 H         1 UNK         0.3000 
    231 H231       -9.4050  -19.7477  -52.7533 H         1 UNK         0.0600 
    232 H232      -11.3589  -19.4881  -54.2663 H         1 UNK         0.0600 
    233 H233      -10.4421  -18.3932  -55.3022 H         1 UNK         0.0600 
    234 H234      -10.8444  -17.9243  -53.6549 H         1 UNK         0.0600 
    235 H235       -7.4482  -18.9141  -55.5339 H         1 UNK         0.3000 
    236 H236       -6.3715  -16.4171  -54.4906 H         1 UNK         0.0600 
    237 H237       -4.8420  -16.6346  -56.4572 H         1 UNK         0.0600 
    238 H238       -5.4653  -18.2466  -56.7847 H         1 UNK         0.0600 
    239 H239       -6.5182  -16.8397  -56.9417 H         1 UNK         0.0600 
    240 H240       -4.3389  -16.1201  -53.5767 H         1 UNK         0.3000 
    241 H241       -3.2252  -18.2567  -52.0127 H         1 UNK         0.0600 
    242 H242       -1.3164  -19.5034  -52.3740 H         1 UNK         0.3800 
    243 H243       -0.3774  -19.3717  -53.8343 H         1 UNK         0.3800 
    244 H244       -1.9610  -15.5007  -52.4546 H         1 UNK         0.0800 
    245 H245       -3.3411  -15.7299  -51.4223 H         1 UNK         0.0800 
    246 H246        0.4307  -16.7325  -51.9434 H         1 UNK         0.0800 
    247 H247        0.1933  -15.1587  -51.2174 H         1 UNK         0.0800 
@<TRIPOS>BOND
     1    1    2 1    
     2    1  127 1    
     3    1  128 1    
     4    1  129 1    
     5    2    3 2    
     6    2    4 am   BACKBONE|DICT|INTERRES
     7    4    5 1    
     8    4  130 1    
     9    5    6 1    
    10    5   65 1    
    11    5  131 1    
    12    6    7 1    
    13    6  132 1    
    14    6  133 1    
    15    7    8 1    
    16    8    9 1    
    17    8  134 1    
    18    8  135 1    
    19    9   10 ar   
    20    9   14 ar   
    21   10   11 ar   
    22   10  136 1    
    23   11   12 ar   
    24   11  126 1    
    25   12   13 ar   
    26   12  137 1    
    27   13   14 ar   
    28   13   15 1    
    29   14  138 1    
    30   15   16 1    
    31   15  139 1    
    32   15  140 1    
    33   16   17 1    
    34   17   18 1    
    35   17  141 1    
    36   17  142 1    
    37   18   19 1    
    38   18   67 1    
    39   18  143 1    
    40   19   20 am   BACKBONE|DICT|INTERRES
    41   19  144 1    
    42   20   21 2    
    43   20   22 1    
    44   22   23 1    
    45   22   24 1    
    46   22  145 1    
    47   23  146 1    
    48   23  147 1    
    49   23  148 1    
    50   24   25 am   BACKBONE|DICT|INTERRES
    51   24  149 1    
    52   25   26 2    
    53   25   27 1    
    54   27   28 1    
    55   27   29 1    
    56   27  150 1    
    57   28  151 1    
    58   28  152 1    
    59   28  153 1    
    60   29   30 am   BACKBONE|DICT|INTERRES
    61   29  154 1    
    62   30   31 2    
    63   30   32 1    
    64   32   33 1    
    65   32   34 1    
    66   32  155 1    
    67   33  156 1    
    68   33  157 1    
    69   33  158 1    
    70   34   35 am   BACKBONE|DICT|INTERRES
    71   34  159 1    
    72   35   36 2    
    73   35   37 1    
    74   37   38 1    
    75   37   39 1    
    76   37  160 1    
    77   38  161 1    
    78   38  162 1    
    79   38  163 1    
    80   39   40 am   BACKBONE|DICT|INTERRES
    81   39  164 1    
    82   40   41 2    
    83   40   42 1    
    84   42   43 1    
    85   42   44 1    
    86   42  165 1    
    87   43  166 1    
    88   43  167 1    
    89   43  168 1    
    90   44   45 am   BACKBONE|DICT|INTERRES
    91   44  169 1    
    92   45   46 2    
    93   45   47 1    
    94   47   48 1    
    95   47   49 1    
    96   47  170 1    
    97   48  171 1    
    98   48  172 1    
    99   48  173 1    
   100   49   50 am   BACKBONE|DICT|INTERRES
   101   49  174 1    
   102   50   51 2    
   103   50   52 1    
   104   52   53 1    
   105   52   54 1    
   106   52  175 1    
   107   53  176 1    
   108   53  177 1    
   109   53  178 1    
   110   54   55 am   BACKBONE|DICT|INTERRES
   111   54  179 1    
   112   55   56 2    
   113   55   57 1    
   114   57   58 1    
   115   57   59 1    
   116   57  180 1    
   117   58  181 1    
   118   58  182 1    
   119   58  183 1    
   120   59   60 am   BACKBONE|DICT|INTERRES
   121   59  184 1    
   122   60   61 2    
   123   60   62 1    
   124   62   63 1    
   125   62   64 1    
   126   62  185 1    
   127   63  186 1    
   128   63  187 1    
   129   63  188 1    
   130   64   65 am   BACKBONE|DICT|INTERRES
   131   64  189 1    
   132   65   66 2    
   133   67   68 2    
   134   67   69 am   BACKBONE|DICT|INTERRES
   135   69   70 1    
   136   69  190 1    
   137   70   71 1    
   138   70   72 1    
   139   70  191 1    
   140   71  192 1    
   141   71  193 1    
   142   71  194 1    
   143   72   73 2    
   144   72   74 am   BACKBONE|DICT|INTERRES
   145   74   75 1    
   146   74  195 1    
   147   75   76 1    
   148   75   77 1    
   149   75  196 1    
   150   76  197 1    
   151   76  198 1    
   152   76  199 1    
   153   77   78 2    
   154   77   79 am   BACKBONE|DICT|INTERRES
   155   79   80 1    
   156   79  200 1    
   157   80   81 1    
   158   80   82 1    
   159   80  201 1    
   160   81  202 1    
   161   81  203 1    
   162   81  204 1    
   163   82   83 2    
   164   82   84 am   BACKBONE|DICT|INTERRES
   165   84   85 1    
   166   84  205 1    
   167   85   86 1    
   168   85   87 1    
   169   85  206 1    
   170   86  207 1    
   171   86  208 1    
   172   86  209 1    
   173   87   88 2    
   174   87   89 am   BACKBONE|DICT|INTERRES
   175   89   90 1    
   176   89  210 1    
   177   90   91 1    
   178   90   92 1    
   179   90  211 1    
   180   91  212 1    
   181   91  213 1    
   182   91  214 1    
   183   92   93 2    
   184   92   94 am   BACKBONE|DICT|INTERRES
   185   94   95 1    
   186   94  215 1    
   187   95   96 1    
   188   95   97 1    
   189   95  216 1    
   190   96  217 1    
   191   96  218 1    
   192   96  219 1    
   193   97   98 2    
   194   97   99 am   BACKBONE|DICT|INTERRES
   195   99  100 1    
   196   99  220 1    
   197  100  101 1    
   198  100  102 1    
   199  100  221 1    
   200  101  222 1    
   201  101  223 1    
   202  101  224 1    
   203  102  103 2    
   204  102  104 am   BACKBONE|DICT|INTERRES
   205  104  105 1    
   206  104  225 1    
   207  105  106 1    
   208  105  107 1    
   209  105  226 1    
   210  106  227 1    
   211  106  228 1    
   212  106  229 1    
   213  107  108 2    
   214  107  109 am   BACKBONE|DICT|INTERRES
   215  109  110 1    
   216  109  230 1    
   217  110  111 1    
   218  110  112 1    
   219  110  231 1    
   220  111  232 1    
   221  111  233 1    
   222  111  234 1    
   223  112  113 2    
   224  112  114 am   BACKBONE|DICT|INTERRES
   225  114  115 1    
   226  114  235 1    
   227  115  116 1    
   228  115  117 1    
   229  115  236 1    
   230  116  237 1    
   231  116  238 1    
   232  116  239 1    
   233  117  118 2    
   234  117  119 am   BACKBONE|DICT|INTERRES
   235  119  120 1    
   236  119  240 1    
   237  120  121 1    
   238  120  124 1    
   239  120  241 1    
   240  121  122 am   BACKBONE|DICT|INTERRES
   241  121  123 2    
   242  122  242 1    
   243  122  243 1    
   244  124  125 1    
   245  124  244 1    
   246  124  245 1    
   247  125  126 1    
   248  126  246 1    
   249  126  247 1    
@<TRIPOS>SUBSTRUCTURE
     1 UNK         1 GROUP             0       ****    0 ROOT    
