@<TRIPOS>MOLECULE
3R540
247   249    1
SMALL
USER_CHARGES


@<TRIPOS>ATOM
      1 CA          9.7022  -14.3335  -47.5590 C.3       0 UNK        -0.1800 
      2 C           8.3213  -14.4724  -46.9337 C.2       0 UNK         0.5000 
      3 O           8.1288  -15.3146  -46.0569 O.2       0 UNK        -0.5000 
      4 N           7.3627  -13.6515  -47.3827 N.am      1 UNK        -0.5000 
      5 CA          5.9775  -13.6296  -46.8961 C.3       1 UNK         0.1400 
      6 C6          5.0485  -12.8352  -47.8499 C.3       23 UNK        -0.0398 
      7 S7          4.5348  -13.8369  -49.2843 S.3       23 UNK        -0.2404 
      8 C8          2.9677  -14.5107  -48.6468 C.3       23 UNK        -0.0205 
      9 C9          2.3705  -15.5518  -49.5777 C.ar      23 UNK        -0.0193 
     10 C10         1.3290  -15.2066  -50.4418 C.ar      23 UNK        -0.1150 
     11 C11         0.7603  -16.1627  -51.2888 C.ar      23 UNK        -0.0193 
     12 C12         1.2543  -17.4712  -51.2752 C.ar      23 UNK        -0.1150 
     13 C13         2.3054  -17.8266  -50.4251 C.ar      23 UNK        -0.0193 
     14 C14         2.8524  -16.8643  -49.5706 C.ar      23 UNK        -0.1150 
     15 C15         2.8920  -19.2309  -50.4722 C.3       23 UNK        -0.0205 
     16 S16         2.4621  -20.2207  -49.0086 S.3       23 UNK        -0.2404 
     17 C17         0.7199  -20.6488  -49.3362 C.3       23 UNK        -0.0398 
     18 CA          0.2441  -21.8095  -48.4296 C.3       11 UNK         0.1400 
     19 N           0.2064  -21.4411  -47.0100 N.am      11 UNK        -0.5000 
     20 C           0.0315  -22.3073  -46.0029 C.2       10 UNK         0.5000 
     21 O          -0.0628  -23.5234  -46.1630 O.2       10 UNK        -0.5000 
     22 CA         -0.1208  -21.7207  -44.5869 C.3       10 UNK         0.1400 
     23 CB          1.2480  -21.4261  -43.9557 C.3       10 UNK        -0.1800 
     24 N          -0.9552  -20.5180  -44.5663 N.am      10 UNK        -0.5000 
     25 C          -2.2622  -20.5064  -44.8655 C.2       9 UNK         0.5000 
     26 O          -2.9076  -21.5219  -45.1235 O.2       9 UNK        -0.5000 
     27 CA         -2.9575  -19.1338  -44.9394 C.3       9 UNK         0.1400 
     28 CB         -3.3726  -18.6521  -43.5418 C.3       9 UNK        -0.1800 
     29 N          -2.1363  -18.1153  -45.5963 N.am      9 UNK        -0.5000 
     30 C          -1.7379  -18.1781  -46.8764 C.2       8 UNK         0.5000 
     31 O          -2.0708  -19.0752  -47.6491 O.2       8 UNK        -0.5000 
     32 CA         -0.7512  -17.0986  -47.3561 C.3       8 UNK         0.1400 
     33 CB         -1.4973  -15.8157  -47.7472 C.3       8 UNK        -0.1800 
     34 N           0.2731  -16.7938  -46.3555 N.am      8 UNK        -0.5000 
     35 C           1.1641  -17.6814  -45.8921 C.2       7 UNK         0.5000 
     36 O           1.2344  -18.8413  -46.2901 O.2       7 UNK        -0.5000 
     37 CA          2.0784  -17.2302  -44.7406 C.3       7 UNK         0.1400 
     38 CB          3.2296  -16.3445  -45.2321 C.3       7 UNK        -0.1800 
     39 N           1.3399  -16.5319  -43.6921 N.am      7 UNK        -0.5000 
     40 C           0.4576  -17.1162  -42.8714 C.2       6 UNK         0.5000 
     41 O           0.1902  -18.3171  -42.8963 O.2       6 UNK        -0.5000 
     42 CA         -0.2648  -16.1930  -41.8743 C.3       6 UNK         0.1400 
     43 CB          0.5783  -16.0031  -40.6044 C.3       6 UNK        -0.1800 
     44 N          -0.5760  -14.8824  -42.4471 N.am      6 UNK        -0.5000 
     45 C          -1.4680  -14.6784  -43.4262 C.2       5 UNK         0.5000 
     46 O          -2.1292  -15.5744  -43.9515 O.2       5 UNK        -0.5000 
     47 CA         -1.5990  -13.2312  -43.9327 C.3       5 UNK         0.1400 
     48 CB         -2.3776  -12.3647  -42.9314 C.3       5 UNK        -0.1800 
     49 N          -0.3028  -12.6089  -44.2130 N.am      5 UNK        -0.5000 
     50 C           0.5619  -13.0382  -45.1391 C.2       4 UNK         0.5000 
     51 O           0.3857  -14.0461  -45.8191 O.2       4 UNK        -0.5000 
     52 CA          1.8559  -12.2400  -45.3385 C.3       4 UNK         0.1400 
     53 CB          1.6156  -10.9429  -46.1316 C.3       4 UNK        -0.1800 
     54 N           2.6247  -12.0023  -44.1162 N.am      4 UNK        -0.5000 
     55 C           2.3421  -11.2156  -43.0690 C.2       3 UNK         0.5000 
     56 O           1.2859  -10.5942  -42.9432 O.2       3 UNK        -0.5000 
     57 CA          3.4165  -11.1142  -41.9650 C.3       3 UNK         0.1400 
     58 CB          2.9991  -11.9492  -40.7440 C.3       3 UNK        -0.1800 
     59 N           4.7505  -11.5469  -42.3959 N.am      3 UNK        -0.5000 
     60 C           5.5328  -10.9071  -43.2779 C.2       2 UNK         0.5000 
     61 O           5.2431   -9.8242  -43.7882 O.2       2 UNK        -0.5000 
     62 CA          6.8480  -11.6058  -43.6909 C.3       2 UNK         0.1400 
     63 CB          7.3474  -12.6491  -42.6662 C.3       2 UNK        -0.1800 
     64 N           6.7595  -12.2103  -45.0269 N.am      2 UNK        -0.5000 
     65 C           5.8561  -13.1111  -45.4466 C.2       1 UNK         0.5000 
     66 O           4.9463  -13.5453  -44.7396 O.2       1 UNK        -0.5000 
     67 C          -1.1048  -22.3875  -48.9088 C.2       11 UNK         0.5000 
     68 O          -1.1095  -23.3867  -49.6267 O.2       11 UNK        -0.5000 
     69 N          -2.2241  -21.7942  -48.4704 N.am      12 UNK        -0.5000 
     70 CA         -3.5774  -22.2853  -48.7346 C.3       12 UNK         0.1400 
     71 CB         -4.6058  -21.2374  -48.2883 C.3       12 UNK        -0.1800 
     72 C          -3.8599  -23.6456  -48.0708 C.2       12 UNK         0.5000 
     73 O          -4.4970  -24.5000  -48.6884 O.2       12 UNK        -0.5000 
     74 N          -3.3560  -23.8380  -46.8439 N.am      13 UNK        -0.5000 
     75 CA         -3.4110  -25.1060  -46.1169 C.3       13 UNK         0.1400 
     76 CB         -2.9841  -24.8932  -44.6571 C.3       13 UNK        -0.1800 
     77 C          -2.5635  -26.2008  -46.7898 C.2       13 UNK         0.5000 
     78 O          -3.0332  -27.3310  -46.9164 O.2       13 UNK        -0.5000 
     79 N          -1.3601  -25.8414  -47.2605 N.am      14 UNK        -0.5000 
     80 CA         -0.4671  -26.7138  -48.0299 C.3       14 UNK         0.1400 
     81 CB          0.8969  -26.0301  -48.2061 C.3       14 UNK        -0.1800 
     82 C          -1.0551  -27.1237  -49.3949 C.2       14 UNK         0.5000 
     83 O          -0.8542  -28.2591  -49.8269 O.2       14 UNK        -0.5000 
     84 N          -1.8111  -26.2124  -50.0232 N.am      15 UNK        -0.5000 
     85 CA         -2.5986  -26.4550  -51.2352 C.3       15 UNK         0.1400 
     86 CB         -2.9762  -25.1027  -51.8639 C.3       15 UNK        -0.1800 
     87 C          -3.8621  -27.3111  -50.9925 C.2       15 UNK         0.5000 
     88 O          -4.4904  -27.7315  -51.9644 O.2       15 UNK        -0.5000 
     89 N          -4.2067  -27.5528  -49.7175 N.am      16 UNK        -0.5000 
     90 CA         -5.3802  -28.2773  -49.2221 C.3       16 UNK         0.1400 
     91 CB         -5.3451  -29.7589  -49.6530 C.3       16 UNK        -0.1800 
     92 C          -6.7014  -27.5643  -49.5714 C.2       16 UNK         0.5000 
     93 O          -7.6800  -28.2197  -49.9359 O.2       16 UNK        -0.5000 
     94 N          -6.6974  -26.2283  -49.4429 N.am      17 UNK        -0.5000 
     95 CA         -7.7808  -25.3062  -49.7865 C.3       17 UNK         0.1400 
     96 CB         -8.9899  -25.4931  -48.8426 C.3       17 UNK        -0.1800 
     97 C          -8.1159  -25.3764  -51.2911 C.2       17 UNK         0.5000 
     98 O          -7.1924  -25.2937  -52.1038 O.2       17 UNK        -0.5000 
     99 N          -9.4064  -25.4973  -51.6391 N.am      18 UNK        -0.5000 
    100 CA        -9.9628  -25.5168  -52.9968 C.3       18 UNK         0.1400 
    101 CB        -9.5330  -26.7943  -53.7529 C.3       18 UNK        -0.1800 
    102 C         -9.6422  -24.2080  -53.7460 C.2       18 UNK         0.5000 
    103 O        -10.3171  -23.2038  -53.5144 O.2       18 UNK        -0.5000 
    104 N         -8.6019  -24.2270  -54.5900 N.am      19 UNK        -0.5000 
    105 CA        -8.0345  -23.0458  -55.2441 C.3       19 UNK         0.1400 
    106 CB        -7.0736  -23.5033  -56.3521 C.3       19 UNK        -0.1800 
    107 C         -7.3131  -22.0988  -54.2614 C.2       19 UNK         0.5000 
    108 O         -7.2243  -20.9019  -54.5396 O.2       19 UNK        -0.5000 
    109 N         -6.8335  -22.6484  -53.1338 N.am      20 UNK        -0.5000 
    110 CA        -6.1355  -21.9772  -52.0357 C.3       20 UNK         0.1400 
    111 CB        -7.1103  -21.0441  -51.2812 C.3       20 UNK        -0.1800 
    112 C         -4.8297  -21.2943  -52.4986 C.2       20 UNK         0.5000 
    113 O         -4.1446  -21.8233  -53.3768 O.2       20 UNK        -0.5000 
    114 N         -4.4955  -20.1509  -51.8937 N.am      21 UNK        -0.5000 
    115 CA        -3.3522  -19.3200  -52.2415 C.3       21 UNK         0.1400 
    116 CB        -2.1137  -19.7672  -51.4465 C.3       21 UNK        -0.1800 
    117 C         -3.7339  -17.8684  -51.9336 C.2       21 UNK         0.5000 
    118 O         -3.9443  -17.5455  -50.7638 O.2       21 UNK        -0.5000 
    119 N         -3.8480  -17.0492  -52.9893 N.am      22 UNK        -0.5000 
    120 CA        -4.1365  -15.5983  -52.9852 C.3       22 UNK         0.1400 
    121 C         -5.3438  -15.1065  -52.1235 C.2       22 UNK         0.5000 
    122 N         -6.3571  -15.9319  -51.8924 N.am      22 UNK        -0.7600 
    123 O         -5.3948  -13.9553  -51.6981 O.2       22 UNK        -0.5000 
    124 C124       -2.8578  -14.7135  -52.8821 C.3       23 UNK        -0.0398 
    125 S125       -1.7826  -15.0185  -51.4366 S.3       23 UNK        -0.2404 
    126 C126       -0.3422  -15.7695  -52.2620 C.3       23 UNK        -0.0205 
    127 H127        9.9995  -15.2734  -48.0242 H         1 UNK         0.0600 
    128 H128       10.4369  -14.0832  -46.7937 H         1 UNK         0.0600 
    129 H129        9.7263  -13.5545  -48.3214 H         1 UNK         0.0600 
    130 H130        7.5809  -12.9975  -48.1211 H         1 UNK         0.3000 
    131 H131        5.6280  -14.6643  -46.8625 H         1 UNK         0.0600 
    132 H132        4.1505  -12.4787  -47.3480 H         1 UNK         0.0800 
    133 H133        5.5463  -11.9339  -48.2110 H         1 UNK         0.0800 
    134 H134        3.1456  -14.9672  -47.6768 H         1 UNK         0.0800 
    135 H135        2.2587  -13.6980  -48.4800 H         1 UNK         0.0800 
    136 H136        0.9586  -14.1911  -50.4578 H         1 UNK         0.1150 
    137 H137        0.8438  -18.2080  -51.9499 H         1 UNK         0.1150 
    138 H138        3.6652  -17.1342  -48.9110 H         1 UNK         0.1150 
    139 H139        2.5790  -19.7565  -51.3756 H         1 UNK         0.0800 
    140 H140        3.9787  -19.1552  -50.5309 H         1 UNK         0.0800 
    141 H141        0.6316  -20.9253  -50.3884 H         1 UNK         0.0800 
    142 H142        0.1024  -19.7612  -49.1934 H         1 UNK         0.0800 
    143 H143        0.9719  -22.6180  -48.5265 H         1 UNK         0.0600 
    144 H144        0.3553  -20.4591  -46.7905 H         1 UNK         0.3000 
    145 H145       -0.6144  -22.4745  -43.9703 H         1 UNK         0.0600 
    146 H146        1.1401  -21.0615  -42.9340 H         1 UNK         0.0600 
    147 H147        1.8596  -22.3282  -43.9171 H         1 UNK         0.0600 
    148 H148        1.8047  -20.6786  -44.5196 H         1 UNK         0.0600 
    149 H149       -0.4969  -19.6470  -44.3213 H         1 UNK         0.3000 
    150 H150       -3.8649  -19.2567  -45.5341 H         1 UNK         0.0600 
    151 H151       -4.0061  -19.3896  -43.0475 H         1 UNK         0.0600 
    152 H152       -3.9390  -17.7224  -43.5978 H         1 UNK         0.0600 
    153 H153       -2.5088  -18.4793  -42.9004 H         1 UNK         0.0600 
    154 H154       -1.8557  -17.3202  -45.0322 H         1 UNK         0.3000 
    155 H155       -0.2442  -17.4787  -48.2456 H         1 UNK         0.0600 
    156 H156       -1.9815  -15.3524  -46.8869 H         1 UNK         0.0600 
    157 H157       -0.8172  -15.0845  -48.1845 H         1 UNK         0.0600 
    158 H158       -2.2690  -16.0256  -48.4894 H         1 UNK         0.0600 
    159 H159        0.2873  -15.8380  -46.0052 H         1 UNK         0.3000 
    160 H160        2.5174  -18.1306  -44.3051 H         1 UNK         0.0600 
    161 H161        2.8780  -15.3505  -45.5034 H         1 UNK         0.0600 
    162 H162        3.7235  -16.7807  -46.1014 H         1 UNK         0.0600 
    163 H163        3.9861  -16.2227  -44.4568 H         1 UNK         0.0600 
    164 H164        1.4737  -15.5350  -43.6249 H         1 UNK         0.3000 
    165 H165       -1.2036  -16.6749  -41.5934 H         1 UNK         0.0600 
    166 H166        0.0439  -15.4107  -39.8614 H         1 UNK         0.0600 
    167 H167        0.8123  -16.9643  -40.1448 H         1 UNK         0.0600 
    168 H168        1.5235  -15.5020  -40.8172 H         1 UNK         0.0600 
    169 H169       -0.0725  -14.0888  -42.0796 H         1 UNK         0.3000 
    170 H170       -2.1629  -13.2602  -44.8674 H         1 UNK         0.0600 
    171 H171       -1.8401  -12.2523  -41.9890 H         1 UNK         0.0600 
    172 H172       -2.5589  -11.3676  -43.3330 H         1 UNK         0.0600 
    173 H173       -3.3496  -12.8054  -42.7062 H         1 UNK         0.0600 
    174 H174       -0.0479  -11.7830  -43.6788 H         1 UNK         0.3000 
    175 H175        2.4940  -12.8767  -45.9483 H         1 UNK         0.0600 
    176 H176        2.5552  -10.4321  -46.3425 H         1 UNK         0.0600 
    177 H177        0.9695  -10.2480  -45.5949 H         1 UNK         0.0600 
    178 H178        1.1391  -11.1567  -47.0892 H         1 UNK         0.0600 
    179 H179        3.5114  -12.5005  -44.0904 H         1 UNK         0.3000 
    180 H180        3.4779  -10.0667  -41.6634 H         1 UNK         0.0600 
    181 H181        2.9332  -13.0109  -40.9855 H         1 UNK         0.0600 
    182 H182        2.0232  -11.6365  -40.3700 H         1 UNK         0.0600 
    183 H183        3.7100  -11.8341  -39.9256 H         1 UNK         0.0600 
    184 H184        5.0623  -12.4446  -42.0544 H         1 UNK         0.3000 
    185 H185        7.6034  -10.8210  -43.7526 H         1 UNK         0.0600 
    186 H186        7.4356  -12.2122  -41.6706 H         1 UNK         0.0600 
    187 H187        6.6864  -13.5134  -42.5945 H         1 UNK         0.0600 
    188 H188        8.3353  -13.0182  -42.9421 H         1 UNK         0.0600 
    189 H189        7.4559  -11.9021  -45.6904 H         1 UNK         0.3000 
    190 H190       -2.1466  -20.9303  -47.9384 H         1 UNK         0.3000 
    191 H191       -3.6764  -22.4188  -49.8132 H         1 UNK         0.0600 
    192 H192       -4.4776  -20.3018  -48.8332 H         1 UNK         0.0600 
    193 H193       -5.6228  -21.5884  -48.4645 H         1 UNK         0.0600 
    194 H194       -4.5194  -21.0163  -47.2249 H         1 UNK         0.0600 
    195 H195       -2.9104  -23.0579  -46.3705 H         1 UNK         0.3000 
    196 H196       -4.4494  -25.4444  -46.1164 H         1 UNK         0.0600 
    197 H197       -3.0616  -25.8213  -44.0896 H         1 UNK         0.0600 
    198 H198       -3.6191  -24.1564  -44.1648 H         1 UNK         0.0600 
    199 H199       -1.9533  -24.5486  -44.5816 H         1 UNK         0.0600 
    200 H200       -1.0167  -24.9061  -47.0565 H         1 UNK         0.3000 
    201 H201       -0.3154  -27.6261  -47.4494 H         1 UNK         0.0600 
    202 H202        1.3458  -25.7908  -47.2420 H         1 UNK         0.0600 
    203 H203        0.8134  -25.1045  -48.7752 H         1 UNK         0.0600 
    204 H204        1.5933  -26.6800  -48.7374 H         1 UNK         0.0600 
    205 H205       -1.8494  -25.2727  -49.6415 H         1 UNK         0.3000 
    206 H206       -1.9717  -26.9962  -51.9466 H         1 UNK         0.0600 
    207 H207       -2.0913  -24.5037  -52.0792 H         1 UNK         0.0600 
    208 H208       -3.5100  -25.2419  -52.8048 H         1 UNK         0.0600 
    209 H209       -3.6232  -24.5197  -51.2093 H         1 UNK         0.0600 
    210 H210       -3.6154  -27.1648  -48.9933 H         1 UNK         0.3000 
    211 H211       -5.3103  -28.2564  -48.1340 H         1 UNK         0.0600 
    212 H212       -5.4835  -29.8748  -50.7281 H         1 UNK         0.0600 
    213 H213       -6.1358  -30.3260  -49.1605 H         1 UNK         0.0600 
    214 H214       -4.3970  -30.2245  -49.3837 H         1 UNK         0.0600 
    215 H215       -5.8255  -25.7760  -49.1773 H         1 UNK         0.3000 
    216 H216       -7.3854  -24.3038  -49.6156 H         1 UNK         0.0600 
    217 H217       -9.7385  -24.7158  -49.0009 H         1 UNK         0.0600 
    218 H218       -8.6805  -25.4262  -47.7994 H         1 UNK         0.0600 
    219 H219       -9.4765  -26.4593  -48.9794 H         1 UNK         0.0600 
    220 H220      -10.0885  -25.5371  -50.8951 H         1 UNK         0.3000 
    221 H221      -11.0480  -25.5519  -52.8892 H         1 UNK         0.0600 
    222 H222       -8.4506  -26.8856  -53.8457 H         1 UNK         0.0600 
    223 H223       -9.8908  -27.6858  -53.2377 H         1 UNK         0.0600 
    224 H224       -9.9544  -26.8135  -54.7587 H         1 UNK         0.0600 
    225 H225       -8.0854  -25.0894  -54.6868 H         1 UNK         0.3000 
    226 H226       -8.8497  -22.4852  -55.7065 H         1 UNK         0.0600 
    227 H227       -7.5863  -24.1209  -57.0898 H         1 UNK         0.0600 
    228 H228       -6.6529  -22.6474  -56.8815 H         1 UNK         0.0600 
    229 H229       -6.2409  -24.0809  -55.9485 H         1 UNK         0.0600 
    230 H230       -6.9451  -23.6517  -53.0119 H         1 UNK         0.3000 
    231 H231       -5.8318  -22.7659  -51.3457 H         1 UNK         0.0600 
    232 H232       -7.4157  -20.1949  -51.8935 H         1 UNK         0.0600 
    233 H233       -6.6695  -20.6490  -50.3668 H         1 UNK         0.0600 
    234 H234       -8.0133  -21.5809  -50.9895 H         1 UNK         0.0600 
    235 H235       -5.1078  -19.7583  -51.1916 H         1 UNK         0.3000 
    236 H236       -3.1367  -19.4129  -53.3083 H         1 UNK         0.0600 
    237 H237       -1.2509  -19.1527  -51.6987 H         1 UNK         0.0600 
    238 H238       -2.2747  -19.6788  -50.3719 H         1 UNK         0.0600 
    239 H239       -1.8546  -20.8037  -51.6632 H         1 UNK         0.0600 
    240 H240       -3.7008  -17.4435  -53.9073 H         1 UNK         0.3000 
    241 H241       -4.5082  -15.4188  -53.9948 H         1 UNK         0.0600 
    242 H242       -6.3348  -16.8790  -52.2332 H         1 UNK         0.3800 
    243 H243       -7.1418  -15.6119  -51.3472 H         1 UNK         0.3800 
    244 H244       -2.2680  -14.8544  -53.7884 H         1 UNK         0.0800 
    245 H245       -3.1182  -13.6541  -52.8908 H         1 UNK         0.0800 
    246 H246       -0.6786  -16.6377  -52.8308 H         1 UNK         0.0800 
    247 H247        0.0682  -15.0623  -52.9841 H         1 UNK         0.0800 
@<TRIPOS>BOND
     1    1    2 1    
     2    1  127 1    
     3    1  128 1    
     4    1  129 1    
     5    2    3 2    
     6    2    4 am   BACKBONE|DICT|INTERRES
     7    4    5 1    
     8    4  130 1    
     9    5    6 1    
    10    5   65 1    
    11    5  131 1    
    12    6    7 1    
    13    6  132 1    
    14    6  133 1    
    15    7    8 1    
    16    8    9 1    
    17    8  134 1    
    18    8  135 1    
    19    9   10 ar   
    20    9   14 ar   
    21   10   11 ar   
    22   10  136 1    
    23   11   12 ar   
    24   11  126 1    
    25   12   13 ar   
    26   12  137 1    
    27   13   14 ar   
    28   13   15 1    
    29   14  138 1    
    30   15   16 1    
    31   15  139 1    
    32   15  140 1    
    33   16   17 1    
    34   17   18 1    
    35   17  141 1    
    36   17  142 1    
    37   18   19 1    
    38   18   67 1    
    39   18  143 1    
    40   19   20 am   BACKBONE|DICT|INTERRES
    41   19  144 1    
    42   20   21 2    
    43   20   22 1    
    44   22   23 1    
    45   22   24 1    
    46   22  145 1    
    47   23  146 1    
    48   23  147 1    
    49   23  148 1    
    50   24   25 am   BACKBONE|DICT|INTERRES
    51   24  149 1    
    52   25   26 2    
    53   25   27 1    
    54   27   28 1    
    55   27   29 1    
    56   27  150 1    
    57   28  151 1    
    58   28  152 1    
    59   28  153 1    
    60   29   30 am   BACKBONE|DICT|INTERRES
    61   29  154 1    
    62   30   31 2    
    63   30   32 1    
    64   32   33 1    
    65   32   34 1    
    66   32  155 1    
    67   33  156 1    
    68   33  157 1    
    69   33  158 1    
    70   34   35 am   BACKBONE|DICT|INTERRES
    71   34  159 1    
    72   35   36 2    
    73   35   37 1    
    74   37   38 1    
    75   37   39 1    
    76   37  160 1    
    77   38  161 1    
    78   38  162 1    
    79   38  163 1    
    80   39   40 am   BACKBONE|DICT|INTERRES
    81   39  164 1    
    82   40   41 2    
    83   40   42 1    
    84   42   43 1    
    85   42   44 1    
    86   42  165 1    
    87   43  166 1    
    88   43  167 1    
    89   43  168 1    
    90   44   45 am   BACKBONE|DICT|INTERRES
    91   44  169 1    
    92   45   46 2    
    93   45   47 1    
    94   47   48 1    
    95   47   49 1    
    96   47  170 1    
    97   48  171 1    
    98   48  172 1    
    99   48  173 1    
   100   49   50 am   BACKBONE|DICT|INTERRES
   101   49  174 1    
   102   50   51 2    
   103   50   52 1    
   104   52   53 1    
   105   52   54 1    
   106   52  175 1    
   107   53  176 1    
   108   53  177 1    
   109   53  178 1    
   110   54   55 am   BACKBONE|DICT|INTERRES
   111   54  179 1    
   112   55   56 2    
   113   55   57 1    
   114   57   58 1    
   115   57   59 1    
   116   57  180 1    
   117   58  181 1    
   118   58  182 1    
   119   58  183 1    
   120   59   60 am   BACKBONE|DICT|INTERRES
   121   59  184 1    
   122   60   61 2    
   123   60   62 1    
   124   62   63 1    
   125   62   64 1    
   126   62  185 1    
   127   63  186 1    
   128   63  187 1    
   129   63  188 1    
   130   64   65 am   BACKBONE|DICT|INTERRES
   131   64  189 1    
   132   65   66 2    
   133   67   68 2    
   134   67   69 am   BACKBONE|DICT|INTERRES
   135   69   70 1    
   136   69  190 1    
   137   70   71 1    
   138   70   72 1    
   139   70  191 1    
   140   71  192 1    
   141   71  193 1    
   142   71  194 1    
   143   72   73 2    
   144   72   74 am   BACKBONE|DICT|INTERRES
   145   74   75 1    
   146   74  195 1    
   147   75   76 1    
   148   75   77 1    
   149   75  196 1    
   150   76  197 1    
   151   76  198 1    
   152   76  199 1    
   153   77   78 2    
   154   77   79 am   BACKBONE|DICT|INTERRES
   155   79   80 1    
   156   79  200 1    
   157   80   81 1    
   158   80   82 1    
   159   80  201 1    
   160   81  202 1    
   161   81  203 1    
   162   81  204 1    
   163   82   83 2    
   164   82   84 am   BACKBONE|DICT|INTERRES
   165   84   85 1    
   166   84  205 1    
   167   85   86 1    
   168   85   87 1    
   169   85  206 1    
   170   86  207 1    
   171   86  208 1    
   172   86  209 1    
   173   87   88 2    
   174   87   89 am   BACKBONE|DICT|INTERRES
   175   89   90 1    
   176   89  210 1    
   177   90   91 1    
   178   90   92 1    
   179   90  211 1    
   180   91  212 1    
   181   91  213 1    
   182   91  214 1    
   183   92   93 2    
   184   92   94 am   BACKBONE|DICT|INTERRES
   185   94   95 1    
   186   94  215 1    
   187   95   96 1    
   188   95   97 1    
   189   95  216 1    
   190   96  217 1    
   191   96  218 1    
   192   96  219 1    
   193   97   98 2    
   194   97   99 am   BACKBONE|DICT|INTERRES
   195   99  100 1    
   196   99  220 1    
   197  100  101 1    
   198  100  102 1    
   199  100  221 1    
   200  101  222 1    
   201  101  223 1    
   202  101  224 1    
   203  102  103 2    
   204  102  104 am   BACKBONE|DICT|INTERRES
   205  104  105 1    
   206  104  225 1    
   207  105  106 1    
   208  105  107 1    
   209  105  226 1    
   210  106  227 1    
   211  106  228 1    
   212  106  229 1    
   213  107  108 2    
   214  107  109 am   BACKBONE|DICT|INTERRES
   215  109  110 1    
   216  109  230 1    
   217  110  111 1    
   218  110  112 1    
   219  110  231 1    
   220  111  232 1    
   221  111  233 1    
   222  111  234 1    
   223  112  113 2    
   224  112  114 am   BACKBONE|DICT|INTERRES
   225  114  115 1    
   226  114  235 1    
   227  115  116 1    
   228  115  117 1    
   229  115  236 1    
   230  116  237 1    
   231  116  238 1    
   232  116  239 1    
   233  117  118 2    
   234  117  119 am   BACKBONE|DICT|INTERRES
   235  119  120 1    
   236  119  240 1    
   237  120  121 1    
   238  120  124 1    
   239  120  241 1    
   240  121  122 am   BACKBONE|DICT|INTERRES
   241  121  123 2    
   242  122  242 1    
   243  122  243 1    
   244  124  125 1    
   245  124  244 1    
   246  124  245 1    
   247  125  126 1    
   248  126  246 1    
   249  126  247 1    
@<TRIPOS>SUBSTRUCTURE
     1 UNK         1 GROUP             0       ****    0 ROOT    
