@<TRIPOS>MOLECULE
3R540
247   249    1
SMALL
USER_CHARGES


@<TRIPOS>ATOM
      1 CA          1.6570  -14.5690  -47.7652 C.3       0 UNK        -0.1800 
      2 C           3.1745  -14.5744  -47.8180 C.2       0 UNK         0.5000 
      3 O           3.8156  -13.8058  -47.1024 O.2       0 UNK        -0.5000 
      4 N           3.7576  -15.4641  -48.6303 N.am      1 UNK        -0.5000 
      5 CA          5.2103  -15.6734  -48.7053 C.3       1 UNK         0.1400 
      6 C6          5.6331  -16.4580  -49.9703 C.3       23 UNK        -0.0398 
      7 S7          5.2724  -15.5236  -51.4986 S.3       23 UNK        -0.2404 
      8 C8          4.0851  -16.6030  -52.3587 C.3       23 UNK        -0.0205 
      9 C9          2.7595  -16.7067  -51.6208 C.ar      23 UNK        -0.0193 
     10 C10         1.8488  -15.6471  -51.6511 C.ar      23 UNK        -0.1150 
     11 C11         0.6256  -15.7394  -50.9789 C.ar      23 UNK        -0.0193 
     12 C12         0.3163  -16.9071  -50.2746 C.ar      23 UNK        -0.1150 
     13 C13         1.2196  -17.9728  -50.2425 C.ar      23 UNK        -0.0193 
     14 C14         2.4382  -17.8676  -50.9153 C.ar      23 UNK        -0.1150 
     15 C15         0.8806  -19.2459  -49.4934 C.3       23 UNK        -0.0205 
     16 S16         1.3475  -19.1195  -47.7402 S.3       23 UNK        -0.2404 
     17 C17         1.7942  -20.8429  -47.3387 C.3       23 UNK        -0.0398 
     18 CA          0.6335  -21.7991  -46.9671 C.3       11 UNK         0.1400 
     19 N          -0.1994  -21.3462  -45.8471 N.am      11 UNK        -0.5000 
     20 C          -1.0033  -22.1754  -45.1623 C.2       10 UNK         0.5000 
     21 O          -1.0743  -23.3857  -45.3818 O.2       10 UNK        -0.5000 
     22 CA         -1.9171  -21.5564  -44.0934 C.3       10 UNK         0.1400 
     23 CB         -1.1348  -21.2352  -42.8105 C.3       10 UNK        -0.1800 
     24 N          -2.6083  -20.3614  -44.5757 N.am      10 UNK        -0.5000 
     25 C          -3.5846  -20.3656  -45.4948 C.2       9 UNK         0.5000 
     26 O          -3.9847  -21.3822  -46.0583 O.2       9 UNK        -0.5000 
     27 CA         -4.2086  -19.0059  -45.8579 C.3       9 UNK         0.1400 
     28 CB         -5.3744  -18.6796  -44.9136 C.3       9 UNK        -0.1800 
     29 N          -3.2341  -17.9174  -45.8133 N.am      9 UNK        -0.5000 
     30 C          -2.2438  -17.7607  -46.7021 C.2       8 UNK         0.5000 
     31 O          -2.0888  -18.4806  -47.6872 O.2       8 UNK        -0.5000 
     32 CA         -1.2300  -16.6422  -46.3989 C.3       8 UNK         0.1400 
     33 CB         -1.7622  -15.2866  -46.8890 C.3       8 UNK        -0.1800 
     34 N          -0.8820  -16.5599  -44.9747 N.am      8 UNK        -0.5000 
     35 C          -0.3008  -17.5521  -44.2800 C.2       7 UNK         0.5000 
     36 O          -0.0108  -18.6408  -44.7736 O.2       7 UNK        -0.5000 
     37 CA         -0.0076  -17.3301  -42.7868 C.3       7 UNK         0.1400 
     38 CB          1.4818  -17.5444  -42.4823 C.3       7 UNK        -0.1800 
     39 N          -0.4160  -16.0082  -42.3115 N.am      7 UNK        -0.5000 
     40 C          -1.6026  -15.7560  -41.7466 C.2       6 UNK         0.5000 
     41 O          -2.4951  -16.5966  -41.6275 O.2       6 UNK        -0.5000 
     42 CA         -1.8389  -14.3272  -41.2271 C.3       6 UNK         0.1400 
     43 CB         -1.1496  -14.1314  -39.8678 C.3       6 UNK        -0.1800 
     44 N          -1.4168  -13.2578  -42.1341 N.am      6 UNK        -0.5000 
     45 C          -1.8638  -13.0629  -43.3828 C.2       5 UNK         0.5000 
     46 O          -2.5613  -13.8715  -43.9931 O.2       5 UNK        -0.5000 
     47 CA         -1.4950  -11.7257  -44.0584 C.3       5 UNK         0.1400 
     48 CB         -2.7060  -10.7807  -44.0342 C.3       5 UNK        -0.1800 
     49 N          -0.3724  -11.0526  -43.3948 N.am      5 UNK        -0.5000 
     50 C           0.9375  -11.2398  -43.6088 C.2       4 UNK         0.5000 
     51 O           1.7818  -10.6677  -42.9181 O.2       4 UNK        -0.5000 
     52 CA          1.4110  -12.1335  -44.7792 C.3       4 UNK         0.1400 
     53 CB          1.6480  -11.2640  -46.0247 C.3       4 UNK        -0.1800 
     54 N           2.6369  -12.8636  -44.4561 N.am      4 UNK        -0.5000 
     55 C           2.7142  -13.8134  -43.5183 C.2       3 UNK         0.5000 
     56 O           1.7340  -14.2266  -42.8940 O.2       3 UNK        -0.5000 
     57 CA          4.0968  -14.4377  -43.2770 C.3       3 UNK         0.1400 
     58 CB          4.2621  -14.8461  -41.7949 C.3       3 UNK        -0.1800 
     59 N           4.2444  -15.5793  -44.1810 N.am      3 UNK        -0.5000 
     60 C           5.3056  -16.3917  -44.2845 C.2       2 UNK         0.5000 
     61 O           6.3406  -16.2676  -43.6290 O.2       2 UNK        -0.5000 
     62 CA          5.2002  -17.5279  -45.3209 C.3       2 UNK         0.1400 
     63 CB          4.1323  -18.5592  -44.9212 C.3       2 UNK        -0.1800 
     64 N           4.9046  -17.0163  -46.6573 N.am      2 UNK        -0.5000 
     65 C           5.7686  -16.3299  -47.4214 C.2       1 UNK         0.5000 
     66 O           6.9578  -16.1800  -47.1377 O.2       1 UNK        -0.5000 
     67 C          -0.2132  -22.2177  -48.1854 C.2       11 UNK         0.5000 
     68 O           0.1515  -23.1746  -48.8684 O.2       11 UNK        -0.5000 
     69 N          -1.3528  -21.5443  -48.4058 N.am      12 UNK        -0.5000 
     70 CA         -2.3247  -21.9143  -49.4321 C.3       12 UNK         0.1400 
     71 CB         -3.3658  -20.8025  -49.6037 C.3       12 UNK        -0.1800 
     72 C          -2.9982  -23.2624  -49.1271 C.2       12 UNK         0.5000 
     73 O          -3.1718  -24.0651  -50.0401 O.2       12 UNK        -0.5000 
     74 N          -3.3323  -23.5154  -47.8537 N.am      13 UNK        -0.5000 
     75 CA         -3.8883  -24.7855  -47.3835 C.3       13 UNK         0.1400 
     76 CB         -4.3632  -24.6492  -45.9294 C.3       13 UNK        -0.1800 
     77 C          -2.8910  -25.9464  -47.5294 C.2       13 UNK         0.5000 
     78 O          -3.2800  -27.0199  -47.9889 O.2       13 UNK        -0.5000 
     79 N          -1.6167  -25.6943  -47.1960 N.am      14 UNK        -0.5000 
     80 CA         -0.5072  -26.6347  -47.3764 C.3       14 UNK         0.1400 
     81 CB          0.7572  -26.0659  -46.7156 C.3       14 UNK        -0.1800 
     82 C          -0.2439  -26.9793  -48.8565 C.2       14 UNK         0.5000 
     83 O           0.0632  -28.1302  -49.1684 O.2       14 UNK        -0.5000 
     84 N          -0.4052  -25.9867  -49.7417 N.am      15 UNK        -0.5000 
     85 CA         -0.3130  -26.1306  -51.1963 C.3       15 UNK         0.1400 
     86 CB         -0.0393  -24.7459  -51.8064 C.3       15 UNK        -0.1800 
     87 C          -1.5680  -26.7583  -51.8409 C.2       15 UNK         0.5000 
     88 O          -1.5276  -27.0774  -53.0298 O.2       15 UNK        -0.5000 
     89 N          -2.6574  -26.8966  -51.0682 N.am      16 UNK        -0.5000 
     90 CA         -4.0042  -27.3133  -51.4799 C.3       16 UNK         0.1400 
     91 CB         -4.0108  -28.7736  -51.9768 C.3       16 UNK        -0.1800 
     92 C          -4.6591  -26.3290  -52.4758 C.2       16 UNK         0.5000 
     93 O          -5.4665  -26.7302  -53.3155 O.2       16 UNK        -0.5000 
     94 N          -4.3143  -25.0434  -52.3466 N.am      17 UNK        -0.5000 
     95 CA         -4.7548  -23.9283  -53.1779 C.3       17 UNK         0.1400 
     96 CB         -3.5627  -22.9716  -53.3525 C.3       17 UNK        -0.1800 
     97 C          -5.9871  -23.2549  -52.5431 C.2       17 UNK         0.5000 
     98 O          -5.9657  -22.0641  -52.2193 O.2       17 UNK        -0.5000 
     99 N          -7.0336  -24.0624  -52.3139 N.am      18 UNK        -0.5000 
    100 CA        -8.3506  -23.7036  -51.7628 C.3       18 UNK         0.1400 
    101 CB        -9.1012  -22.7907  -52.7548 C.3       18 UNK        -0.1800 
    102 C         -8.3296  -23.0928  -50.3416 C.2       18 UNK         0.5000 
    103 O         -9.3580  -22.5885  -49.8889 O.2       18 UNK        -0.5000 
    104 N         -7.1642  -23.1276  -49.6765 N.am      19 UNK        -0.5000 
    105 CA        -6.8388  -22.4511  -48.4166 C.3       19 UNK         0.1400 
    106 CB        -7.6176  -23.0714  -47.2384 C.3       19 UNK        -0.1800 
    107 C         -6.9750  -20.9144  -48.4941 C.2       19 UNK         0.5000 
    108 O         -7.2565  -20.2786  -47.4770 O.2       19 UNK        -0.5000 
    109 N         -6.7792  -20.3391  -49.6913 N.am      20 UNK        -0.5000 
    110 CA        -6.9661  -18.9079  -49.9324 C.3       20 UNK         0.1400 
    111 CB        -8.4660  -18.6025  -50.1082 C.3       20 UNK        -0.1800 
    112 C         -6.1697  -18.3556  -51.1252 C.2       20 UNK         0.5000 
    113 O         -5.8422  -17.1682  -51.1044 O.2       20 UNK        -0.5000 
    114 N         -5.8969  -19.1697  -52.1553 N.am      21 UNK        -0.5000 
    115 CA        -5.2289  -18.7089  -53.3722 C.3       21 UNK         0.1400 
    116 CB        -5.6282  -19.6032  -54.5557 C.3       21 UNK        -0.1800 
    117 C         -3.7031  -18.6587  -53.1835 C.2       21 UNK         0.5000 
    118 O         -3.0972  -19.6560  -52.7892 O.2       21 UNK        -0.5000 
    119 N         -3.1183  -17.4933  -53.4734 N.am      22 UNK        -0.5000 
    120 CA        -1.6722  -17.2371  -53.4271 C.3       22 UNK         0.1400 
    121 C         -0.9008  -17.9222  -54.5879 C.2       22 UNK         0.5000 
    122 N          0.3581  -18.2790  -54.3699 N.am      22 UNK        -0.7600 
    123 O         -1.4128  -18.0930  -55.6925 O.2       22 UNK        -0.5000 
    124 C124       -1.3863  -15.7145  -53.3986 C.3       23 UNK        -0.0398 
    125 S125       -1.9333  -14.9740  -51.8211 S.3       23 UNK        -0.2404 
    126 C126       -0.3511  -14.5701  -51.0099 C.3       23 UNK        -0.0205 
    127 H127        1.3231  -14.4723  -46.7333 H         1 UNK         0.0600 
    128 H128        1.2449  -15.4956  -48.1578 H         1 UNK         0.0600 
    129 H129        1.2581  -13.7350  -48.3415 H         1 UNK         0.0600 
    130 H130        3.1914  -16.0446  -49.2346 H         1 UNK         0.3000 
    131 H131        5.6785  -14.6881  -48.7648 H         1 UNK         0.0600 
    132 H132        6.7081  -16.6469  -49.9593 H         1 UNK         0.0800 
    133 H133        5.1562  -17.4383  -49.9978 H         1 UNK         0.0800 
    134 H134        3.9071  -16.2027  -53.3579 H         1 UNK         0.0800 
    135 H135        4.5300  -17.5889  -52.5026 H         1 UNK         0.0800 
    136 H136        2.0992  -14.7480  -52.1967 H         1 UNK         0.1150 
    137 H137       -0.6279  -16.9875  -49.7531 H         1 UNK         0.1150 
    138 H138        3.1355  -18.6936  -50.8904 H         1 UNK         0.1150 
    139 H139       -0.1905  -19.4325  -49.5715 H         1 UNK         0.0800 
    140 H140        1.3782  -20.0957  -49.9625 H         1 UNK         0.0800 
    141 H141        2.4766  -20.7957  -46.4903 H         1 UNK         0.0800 
    142 H142        2.3882  -21.2597  -48.1539 H         1 UNK         0.0800 
    143 H143        1.1198  -22.7169  -46.6287 H         1 UNK         0.0600 
    144 H144       -0.1670  -20.3566  -45.6101 H         1 UNK         0.3000 
    145 H145       -2.6777  -22.2981  -43.8400 H         1 UNK         0.0600 
    146 H146       -1.7830  -20.8005  -42.0494 H         1 UNK         0.0600 
    147 H147       -0.7007  -22.1419  -42.3875 H         1 UNK         0.0600 
    148 H148       -0.3154  -20.5406  -42.9921 H         1 UNK         0.0600 
    149 H149       -2.2924  -19.4762  -44.2110 H         1 UNK         0.3000 
    150 H150       -4.6032  -19.0775  -46.8737 H         1 UNK         0.0600 
    151 H151       -6.1249  -19.4713  -44.9357 H         1 UNK         0.0600 
    152 H152       -5.8721  -17.7553  -45.2075 H         1 UNK         0.0600 
    153 H153       -5.0410  -18.5701  -43.8809 H         1 UNK         0.0600 
    154 H154       -3.2889  -17.2804  -45.0318 H         1 UNK         0.3000 
    155 H155       -0.3149  -16.8650  -46.9478 H         1 UNK         0.0600 
    156 H156       -1.9070  -15.2965  -47.9701 H         1 UNK         0.0600 
    157 H157       -1.0720  -14.4758  -46.6595 H         1 UNK         0.0600 
    158 H158       -2.7225  -15.0424  -46.4338 H         1 UNK         0.0600 
    159 H159       -1.1349  -15.7106  -44.4878 H         1 UNK         0.3000 
    160 H160       -0.5579  -18.0993  -42.2412 H         1 UNK         0.0600 
    161 H161        2.1077  -16.8773  -43.0704 H         1 UNK         0.0600 
    162 H162        1.7862  -18.5658  -42.7139 H         1 UNK         0.0600 
    163 H163        1.6999  -17.3722  -41.4284 H         1 UNK         0.0600 
    164 H164        0.2703  -15.2609  -42.4051 H         1 UNK         0.3000 
    165 H165       -2.9145  -14.2135  -41.0774 H         1 UNK         0.0600 
    166 H166       -1.4115  -13.1695  -39.4267 H         1 UNK         0.0600 
    167 H167       -1.4515  -14.9045  -39.1599 H         1 UNK         0.0600 
    168 H168       -0.0633  -14.1749  -39.9587 H         1 UNK         0.0600 
    169 H169       -0.8091  -12.5559  -41.7384 H         1 UNK         0.3000 
    170 H170       -1.2682  -11.9189  -45.1074 H         1 UNK         0.0600 
    171 H171       -3.5625  -11.2287  -44.5401 H         1 UNK         0.0600 
    172 H172       -3.0145  -10.5436  -43.0152 H         1 UNK         0.0600 
    173 H173       -2.4845   -9.8430  -44.5444 H         1 UNK         0.0600 
    174 H174       -0.6361  -10.4140  -42.6587 H         1 UNK         0.3000 
    175 H175        0.6638  -12.8905  -45.0134 H         1 UNK         0.0600 
    176 H176        2.4223  -10.5160  -45.8493 H         1 UNK         0.0600 
    177 H177        1.9530  -11.8601  -46.8824 H         1 UNK         0.0600 
    178 H178        0.7390  -10.7331  -46.3100 H         1 UNK         0.0600 
    179 H179        3.4639  -12.6146  -44.9812 H         1 UNK         0.3000 
    180 H180        4.8595  -13.6964  -43.5228 H         1 UNK         0.0600 
    181 H181        3.6302  -15.6947  -41.5341 H         1 UNK         0.0600 
    182 H182        3.9924  -14.0228  -41.1321 H         1 UNK         0.0600 
    183 H183        5.2919  -15.1119  -41.5596 H         1 UNK         0.0600 
    184 H184        3.4575  -15.7365  -44.7936 H         1 UNK         0.3000 
    185 H185        6.1643  -18.0404  -45.3510 H         1 UNK         0.0600 
    186 H186        4.2715  -18.8919  -43.8918 H         1 UNK         0.0600 
    187 H187        3.1213  -18.1589  -45.0060 H         1 UNK         0.0600 
    188 H188        4.1936  -19.4420  -45.5565 H         1 UNK         0.0600 
    189 H189        3.9518  -17.1024  -46.9785 H         1 UNK         0.3000 
    190 H190       -1.5750  -20.7429  -47.8282 H         1 UNK         0.3000 
    191 H191       -1.7907  -22.0173  -50.3791 H         1 UNK         0.0600 
    192 H192       -2.8959  -19.8675  -49.9092 H         1 UNK         0.0600 
    193 H193       -4.0863  -21.0644  -50.3787 H         1 UNK         0.0600 
    194 H194       -3.9168  -20.6152  -48.6833 H         1 UNK         0.0600 
    195 H195       -3.2269  -22.7824  -47.1583 H         1 UNK         0.3000 
    196 H196       -4.7587  -25.0176  -48.0008 H         1 UNK         0.0600 
    197 H197       -4.8109  -25.5791  -45.5769 H         1 UNK         0.0600 
    198 H198       -5.1171  -23.8692  -45.8306 H         1 UNK         0.0600 
    199 H199       -3.5425  -24.4043  -45.2556 H         1 UNK         0.0600 
    200 H200       -1.3936  -24.7963  -46.7774 H         1 UNK         0.3000 
    201 H201       -0.7718  -27.5611  -46.8626 H         1 UNK         0.0600 
    202 H202        0.5910  -25.8577  -45.6584 H         1 UNK         0.0600 
    203 H203        1.0791  -25.1403  -47.1924 H         1 UNK         0.0600 
    204 H204        1.5841  -26.7738  -46.7828 H         1 UNK         0.0600 
    205 H205       -0.5895  -25.0519  -49.3939 H         1 UNK         0.3000 
    206 H206        0.5336  -26.7792  -51.4301 H         1 UNK         0.0600 
    207 H207        0.8735  -24.3091  -51.4009 H         1 UNK         0.0600 
    208 H208        0.0846  -24.8094  -52.8882 H         1 UNK         0.0600 
    209 H209       -0.8576  -24.0524  -51.6108 H         1 UNK         0.0600 
    210 H210       -2.5809  -26.5975  -50.1045 H         1 UNK         0.3000 
    211 H211       -4.6156  -27.2736  -50.5774 H         1 UNK         0.0600 
    212 H212       -3.4843  -28.8839  -52.9250 H         1 UNK         0.0600 
    213 H213       -5.0304  -29.1296  -52.1279 H         1 UNK         0.0600 
    214 H214       -3.5406  -29.4380  -51.2517 H         1 UNK         0.0600 
    215 H215       -3.7216  -24.7868  -51.5577 H         1 UNK         0.3000 
    216 H216       -5.0440  -24.2930  -54.1655 H         1 UNK         0.0600 
    217 H217       -3.7875  -22.1859  -54.0713 H         1 UNK         0.0600 
    218 H218       -2.6846  -23.5004  -53.7238 H         1 UNK         0.0600 
    219 H219       -3.2867  -22.4908  -52.4137 H         1 UNK         0.0600 
    220 H220       -6.9285  -25.0323  -52.5846 H         1 UNK         0.3000 
    221 H221       -8.9095  -24.6367  -51.6805 H         1 UNK         0.0600 
    222 H222       -8.6304  -21.8103  -52.8381 H         1 UNK         0.0600 
    223 H223       -9.1335  -23.2324  -53.7507 H         1 UNK         0.0600 
    224 H224      -10.1333  -22.6307  -52.4410 H         1 UNK         0.0600 
    225 H225       -6.3854  -23.5558  -50.1558 H         1 UNK         0.3000 
    226 H226       -5.7830  -22.6332  -48.2357 H         1 UNK         0.0600 
    227 H227       -7.4765  -24.1514  -47.1982 H         1 UNK         0.0600 
    228 H228       -7.2737  -22.6653  -46.2864 H         1 UNK         0.0600 
    229 H229       -8.6873  -22.8734  -47.3090 H         1 UNK         0.0600 
    230 H230       -6.5350  -20.9198  -50.4845 H         1 UNK         0.3000 
    231 H231       -6.6059  -18.3604  -49.0584 H         1 UNK         0.0600 
    232 H232       -8.8933  -19.1709  -50.9353 H         1 UNK         0.0600 
    233 H233       -8.6317  -17.5442  -50.3141 H         1 UNK         0.0600 
    234 H234       -9.0307  -18.8471  -49.2086 H         1 UNK         0.0600 
    235 H235       -6.1054  -20.1622  -52.1194 H         1 UNK         0.3000 
    236 H236       -5.5842  -17.7029  -53.6074 H         1 UNK         0.0600 
    237 H237       -6.7018  -19.5555  -54.7380 H         1 UNK         0.0600 
    238 H238       -5.1268  -19.2862  -55.4710 H         1 UNK         0.0600 
    239 H239       -5.3691  -20.6452  -54.3844 H         1 UNK         0.0600 
    240 H240       -3.6895  -16.7242  -53.7898 H         1 UNK         0.3000 
    241 H241       -1.2972  -17.6738  -52.4994 H         1 UNK         0.0600 
    242 H242        0.8792  -18.7111  -55.1168 H         1 UNK         0.3800 
    243 H243        0.8002  -18.1345  -53.4755 H         1 UNK         0.3800 
    244 H244       -0.3257  -15.5065  -53.5466 H         1 UNK         0.0800 
    245 H245       -1.9004  -15.2117  -54.2193 H         1 UNK         0.0800 
    246 H246       -0.5553  -14.2488  -49.9882 H         1 UNK         0.0800 
    247 H247        0.0916  -13.7113  -51.5169 H         1 UNK         0.0800 
@<TRIPOS>BOND
     1    1    2 1    
     2    1  127 1    
     3    1  128 1    
     4    1  129 1    
     5    2    3 2    
     6    2    4 am   BACKBONE|DICT|INTERRES
     7    4    5 1    
     8    4  130 1    
     9    5    6 1    
    10    5   65 1    
    11    5  131 1    
    12    6    7 1    
    13    6  132 1    
    14    6  133 1    
    15    7    8 1    
    16    8    9 1    
    17    8  134 1    
    18    8  135 1    
    19    9   10 ar   
    20    9   14 ar   
    21   10   11 ar   
    22   10  136 1    
    23   11   12 ar   
    24   11  126 1    
    25   12   13 ar   
    26   12  137 1    
    27   13   14 ar   
    28   13   15 1    
    29   14  138 1    
    30   15   16 1    
    31   15  139 1    
    32   15  140 1    
    33   16   17 1    
    34   17   18 1    
    35   17  141 1    
    36   17  142 1    
    37   18   19 1    
    38   18   67 1    
    39   18  143 1    
    40   19   20 am   BACKBONE|DICT|INTERRES
    41   19  144 1    
    42   20   21 2    
    43   20   22 1    
    44   22   23 1    
    45   22   24 1    
    46   22  145 1    
    47   23  146 1    
    48   23  147 1    
    49   23  148 1    
    50   24   25 am   BACKBONE|DICT|INTERRES
    51   24  149 1    
    52   25   26 2    
    53   25   27 1    
    54   27   28 1    
    55   27   29 1    
    56   27  150 1    
    57   28  151 1    
    58   28  152 1    
    59   28  153 1    
    60   29   30 am   BACKBONE|DICT|INTERRES
    61   29  154 1    
    62   30   31 2    
    63   30   32 1    
    64   32   33 1    
    65   32   34 1    
    66   32  155 1    
    67   33  156 1    
    68   33  157 1    
    69   33  158 1    
    70   34   35 am   BACKBONE|DICT|INTERRES
    71   34  159 1    
    72   35   36 2    
    73   35   37 1    
    74   37   38 1    
    75   37   39 1    
    76   37  160 1    
    77   38  161 1    
    78   38  162 1    
    79   38  163 1    
    80   39   40 am   BACKBONE|DICT|INTERRES
    81   39  164 1    
    82   40   41 2    
    83   40   42 1    
    84   42   43 1    
    85   42   44 1    
    86   42  165 1    
    87   43  166 1    
    88   43  167 1    
    89   43  168 1    
    90   44   45 am   BACKBONE|DICT|INTERRES
    91   44  169 1    
    92   45   46 2    
    93   45   47 1    
    94   47   48 1    
    95   47   49 1    
    96   47  170 1    
    97   48  171 1    
    98   48  172 1    
    99   48  173 1    
   100   49   50 am   BACKBONE|DICT|INTERRES
   101   49  174 1    
   102   50   51 2    
   103   50   52 1    
   104   52   53 1    
   105   52   54 1    
   106   52  175 1    
   107   53  176 1    
   108   53  177 1    
   109   53  178 1    
   110   54   55 am   BACKBONE|DICT|INTERRES
   111   54  179 1    
   112   55   56 2    
   113   55   57 1    
   114   57   58 1    
   115   57   59 1    
   116   57  180 1    
   117   58  181 1    
   118   58  182 1    
   119   58  183 1    
   120   59   60 am   BACKBONE|DICT|INTERRES
   121   59  184 1    
   122   60   61 2    
   123   60   62 1    
   124   62   63 1    
   125   62   64 1    
   126   62  185 1    
   127   63  186 1    
   128   63  187 1    
   129   63  188 1    
   130   64   65 am   BACKBONE|DICT|INTERRES
   131   64  189 1    
   132   65   66 2    
   133   67   68 2    
   134   67   69 am   BACKBONE|DICT|INTERRES
   135   69   70 1    
   136   69  190 1    
   137   70   71 1    
   138   70   72 1    
   139   70  191 1    
   140   71  192 1    
   141   71  193 1    
   142   71  194 1    
   143   72   73 2    
   144   72   74 am   BACKBONE|DICT|INTERRES
   145   74   75 1    
   146   74  195 1    
   147   75   76 1    
   148   75   77 1    
   149   75  196 1    
   150   76  197 1    
   151   76  198 1    
   152   76  199 1    
   153   77   78 2    
   154   77   79 am   BACKBONE|DICT|INTERRES
   155   79   80 1    
   156   79  200 1    
   157   80   81 1    
   158   80   82 1    
   159   80  201 1    
   160   81  202 1    
   161   81  203 1    
   162   81  204 1    
   163   82   83 2    
   164   82   84 am   BACKBONE|DICT|INTERRES
   165   84   85 1    
   166   84  205 1    
   167   85   86 1    
   168   85   87 1    
   169   85  206 1    
   170   86  207 1    
   171   86  208 1    
   172   86  209 1    
   173   87   88 2    
   174   87   89 am   BACKBONE|DICT|INTERRES
   175   89   90 1    
   176   89  210 1    
   177   90   91 1    
   178   90   92 1    
   179   90  211 1    
   180   91  212 1    
   181   91  213 1    
   182   91  214 1    
   183   92   93 2    
   184   92   94 am   BACKBONE|DICT|INTERRES
   185   94   95 1    
   186   94  215 1    
   187   95   96 1    
   188   95   97 1    
   189   95  216 1    
   190   96  217 1    
   191   96  218 1    
   192   96  219 1    
   193   97   98 2    
   194   97   99 am   BACKBONE|DICT|INTERRES
   195   99  100 1    
   196   99  220 1    
   197  100  101 1    
   198  100  102 1    
   199  100  221 1    
   200  101  222 1    
   201  101  223 1    
   202  101  224 1    
   203  102  103 2    
   204  102  104 am   BACKBONE|DICT|INTERRES
   205  104  105 1    
   206  104  225 1    
   207  105  106 1    
   208  105  107 1    
   209  105  226 1    
   210  106  227 1    
   211  106  228 1    
   212  106  229 1    
   213  107  108 2    
   214  107  109 am   BACKBONE|DICT|INTERRES
   215  109  110 1    
   216  109  230 1    
   217  110  111 1    
   218  110  112 1    
   219  110  231 1    
   220  111  232 1    
   221  111  233 1    
   222  111  234 1    
   223  112  113 2    
   224  112  114 am   BACKBONE|DICT|INTERRES
   225  114  115 1    
   226  114  235 1    
   227  115  116 1    
   228  115  117 1    
   229  115  236 1    
   230  116  237 1    
   231  116  238 1    
   232  116  239 1    
   233  117  118 2    
   234  117  119 am   BACKBONE|DICT|INTERRES
   235  119  120 1    
   236  119  240 1    
   237  120  121 1    
   238  120  124 1    
   239  120  241 1    
   240  121  122 am   BACKBONE|DICT|INTERRES
   241  121  123 2    
   242  122  242 1    
   243  122  243 1    
   244  124  125 1    
   245  124  244 1    
   246  124  245 1    
   247  125  126 1    
   248  126  246 1    
   249  126  247 1    
@<TRIPOS>SUBSTRUCTURE
     1 UNK         1 GROUP             0       ****    0 ROOT    
