@<TRIPOS>MOLECULE
3R540
247   249    1
SMALL
USER_CHARGES


@<TRIPOS>ATOM
      1 CA          4.2780  -10.6950  -49.4838 C.3       0 UNK        -0.1800 
      2 C           5.3113  -11.5874  -48.8114 C.2       0 UNK         0.5000 
      3 O           6.2362  -11.0847  -48.1730 O.2       0 UNK        -0.5000 
      4 N           5.1528  -12.9104  -48.9380 N.am      1 UNK        -0.5000 
      5 CA          6.0293  -13.9539  -48.3932 C.3       1 UNK         0.1400 
      6 C6          5.9583  -15.2484  -49.2469 C.3       23 UNK        -0.0398 
      7 S7          4.3290  -16.0767  -49.2735 S.3       23 UNK        -0.2404 
      8 C8          3.6356  -15.6155  -50.8982 C.3       23 UNK        -0.0205 
      9 C9          2.4335  -16.4738  -51.2914 C.ar      23 UNK        -0.0193 
     10 C10         2.2755  -16.8842  -52.6206 C.ar      23 UNK        -0.1150 
     11 C11         1.1968  -17.6936  -52.9943 C.ar      23 UNK        -0.0193 
     12 C12         0.2733  -18.1005  -52.0281 C.ar      23 UNK        -0.1150 
     13 C13         0.4216  -17.7036  -50.6992 C.ar      23 UNK        -0.0193 
     14 C14         1.4835  -16.8706  -50.3421 C.ar      23 UNK        -0.1150 
     15 C15        -0.5278  -18.2181  -49.6351 C.3       23 UNK        -0.0205 
     16 S16         0.1356  -19.7516  -48.9172 S.3       23 UNK        -0.2404 
     17 C17        -0.6778  -19.7980  -47.2929 C.3       23 UNK        -0.0398 
     18 CA          0.0746  -20.6969  -46.2839 C.3       11 UNK         0.1400 
     19 N          -0.1736  -20.2675  -44.9053 N.am      11 UNK        -0.5000 
     20 C           0.5172  -20.6717  -43.8300 C.2       10 UNK         0.5000 
     21 O           1.5271  -21.3728  -43.8882 O.2       10 UNK        -0.5000 
     22 CA         -0.0227  -20.2343  -42.4553 C.3       10 UNK         0.1400 
     23 CB          0.6767  -18.9557  -41.9719 C.3       10 UNK        -0.1800 
     24 N          -1.4704  -20.0147  -42.4846 N.am      10 UNK        -0.5000 
     25 C          -2.3798  -20.9956  -42.3803 C.2       9 UNK         0.5000 
     26 O          -2.0924  -22.1715  -42.1581 O.2       9 UNK        -0.5000 
     27 CA         -3.8590  -20.6091  -42.5812 C.3       9 UNK         0.1400 
     28 CB         -4.5069  -20.2420  -41.2380 C.3       9 UNK        -0.1800 
     29 N          -4.0482  -19.5025  -43.5205 N.am      9 UNK        -0.5000 
     30 C          -3.7441  -19.5398  -44.8253 C.2       8 UNK         0.5000 
     31 O          -3.3228  -20.5440  -45.3965 O.2       8 UNK        -0.5000 
     32 CA         -3.8819  -18.2241  -45.6154 C.3       8 UNK         0.1400 
     33 CB         -5.2288  -18.1830  -46.3517 C.3       8 UNK        -0.1800 
     34 N          -3.7375  -17.0225  -44.7855 N.am      8 UNK        -0.5000 
     35 C          -2.6284  -16.6896  -44.1095 C.2       7 UNK         0.5000 
     36 O          -1.6064  -17.3785  -44.0962 O.2       7 UNK        -0.5000 
     37 CA         -2.7105  -15.4287  -43.2410 C.3       7 UNK         0.1400 
     38 CB         -2.6396  -15.7928  -41.7481 C.3       7 UNK        -0.1800 
     39 N          -1.6215  -14.5161  -43.5725 N.am      7 UNK        -0.5000 
     40 C          -1.7265  -13.1804  -43.5772 C.2       6 UNK         0.5000 
     41 O          -2.7675  -12.5777  -43.3102 O.2       6 UNK        -0.5000 
     42 CA         -0.4693  -12.3672  -43.9420 C.3       6 UNK         0.1400 
     43 CB          0.4102  -12.1388  -42.7035 C.3       6 UNK        -0.1800 
     44 N           0.3276  -12.9823  -45.0021 N.am      6 UNK        -0.5000 
     45 C          -0.0477  -13.0612  -46.2865 C.2       5 UNK         0.5000 
     46 O          -1.0988  -12.5903  -46.7227 O.2       5 UNK        -0.5000 
     47 CA          0.9058  -13.7954  -47.2461 C.3       5 UNK         0.1400 
     48 CB          1.9048  -12.8257  -47.8867 C.3       5 UNK        -0.1800 
     49 N           1.6297  -14.8761  -46.5774 N.am      5 UNK        -0.5000 
     50 C           1.0719  -16.0618  -46.3029 C.2       4 UNK         0.5000 
     51 O          -0.0602  -16.3696  -46.6671 O.2       4 UNK        -0.5000 
     52 CA          1.8898  -17.0522  -45.4545 C.3       4 UNK         0.1400 
     53 CB          2.7631  -17.9531  -46.3380 C.3       4 UNK        -0.1800 
     54 N           2.7305  -16.3945  -44.4536 N.am      4 UNK        -0.5000 
     55 C           2.2521  -15.7279  -43.3947 C.2       3 UNK         0.5000 
     56 O           1.0536  -15.6018  -43.1512 O.2       3 UNK        -0.5000 
     57 CA          3.2794  -15.0522  -42.4700 C.3       3 UNK         0.1400 
     58 CB          3.7680  -16.0435  -41.4032 C.3       3 UNK        -0.1800 
     59 N           4.4354  -14.4766  -43.1623 N.am      3 UNK        -0.5000 
     60 C           4.3914  -13.5657  -44.1453 C.2       2 UNK         0.5000 
     61 O           3.3424  -13.1582  -44.6489 O.2       2 UNK        -0.5000 
     62 CA          5.7366  -12.9964  -44.6465 C.3       2 UNK         0.1400 
     63 CB          6.9828  -13.6035  -43.9617 C.3       2 UNK        -0.1800 
     64 N           5.8662  -13.0767  -46.1031 N.am      2 UNK        -0.5000 
     65 C           5.8321  -14.1756  -46.8691 C.2       1 UNK         0.5000 
     66 O           5.6660  -15.3089  -46.4140 O.2       1 UNK        -0.5000 
     67 C          -0.2784  -22.1885  -46.4740 C.2       11 UNK         0.5000 
     68 O           0.5039  -22.9360  -47.0641 O.2       11 UNK        -0.5000 
     69 N          -1.4350  -22.5906  -45.9240 N.am      12 UNK        -0.5000 
     70 CA         -1.9563  -23.9536  -45.8344 C.3       12 UNK         0.1400 
     71 CB         -1.1306  -24.7731  -44.8188 C.3       12 UNK        -0.1800 
     72 C          -2.0845  -24.6112  -47.2212 C.2       12 UNK         0.5000 
     73 O          -2.9137  -24.1676  -48.0183 O.2       12 UNK        -0.5000 
     74 N          -1.2747  -25.6428  -47.4954 N.am      13 UNK        -0.5000 
     75 CA         -1.2555  -26.4113  -48.7425 C.3       13 UNK         0.1400 
     76 CB         -0.2395  -27.5553  -48.6138 C.3       13 UNK        -0.1800 
     77 C          -0.9605  -25.5667  -49.9964 C.2       13 UNK         0.5000 
     78 O          -1.5270  -25.8438  -51.0538 O.2       13 UNK        -0.5000 
     79 N          -0.1370  -24.5182  -49.8516 N.am      14 UNK        -0.5000 
     80 CA          0.1640  -23.5546  -50.9164 C.3       14 UNK         0.1400 
     81 CB          1.4248  -22.7613  -50.5437 C.3       14 UNK        -0.1800 
     82 C          -1.0202  -22.6217  -51.2510 C.2       14 UNK         0.5000 
     83 O          -1.0296  -22.0189  -52.3233 O.2       14 UNK        -0.5000 
     84 N          -2.0156  -22.5602  -50.3571 N.am      15 UNK        -0.5000 
     85 CA         -3.3005  -21.8979  -50.5565 C.3       15 UNK         0.1400 
     86 CB         -3.5767  -20.9661  -49.3648 C.3       15 UNK        -0.1800 
     87 C          -4.4311  -22.9228  -50.7610 C.2       15 UNK         0.5000 
     88 O          -5.5881  -22.5960  -50.5016 O.2       15 UNK        -0.5000 
     89 N          -4.0982  -24.1468  -51.1995 N.am      16 UNK        -0.5000 
     90 CA         -5.0207  -25.2562  -51.4730 C.3       16 UNK         0.1400 
     91 CB         -5.9198  -24.9229  -52.6830 C.3       16 UNK        -0.1800 
     92 C          -5.8263  -25.6846  -50.2268 C.2       16 UNK         0.5000 
     93 O          -7.0334  -25.9098  -50.3175 O.2       16 UNK        -0.5000 
     94 N          -5.1288  -25.7625  -49.0842 N.am      17 UNK        -0.5000 
     95 CA         -5.6500  -25.9911  -47.7324 C.3       17 UNK         0.1400 
     96 CB         -6.4225  -27.3232  -47.6211 C.3       17 UNK        -0.1800 
     97 C          -6.4326  -24.7669  -47.2164 C.2       17 UNK         0.5000 
     98 O          -7.5308  -24.9122  -46.6770 O.2       17 UNK        -0.5000 
     99 N          -5.8253  -23.5819  -47.3916 N.am      18 UNK        -0.5000 
    100 CA        -6.3088  -22.2605  -46.9707 C.3       18 UNK         0.1400 
    101 CB        -6.2971  -22.1554  -45.4315 C.3       18 UNK        -0.1800 
    102 C         -7.6708  -21.8754  -47.5914 C.2       18 UNK         0.5000 
    103 O         -8.5265  -21.3166  -46.9021 O.2       18 UNK        -0.5000 
    104 N         -7.8490  -22.1945  -48.8788 N.am      19 UNK        -0.5000 
    105 CA        -9.0942  -22.0151  -49.6269 C.3       19 UNK         0.1400 
    106 CB        -9.6272  -23.4018  -50.0209 C.3       19 UNK        -0.1800 
    107 C         -8.9257  -21.1403  -50.8825 C.2       19 UNK         0.5000 
    108 O         -9.9183  -20.5802  -51.3511 O.2       19 UNK        -0.5000 
    109 N         -7.7046  -21.0415  -51.4211 N.am      20 UNK        -0.5000 
    110 CA        -7.3880  -20.3396  -52.6616 C.3       20 UNK         0.1400 
    111 CB        -7.6686  -21.2644  -53.8675 C.3       20 UNK        -0.1800 
    112 C         -5.9502  -19.7891  -52.6006 C.2       20 UNK         0.5000 
    113 O         -5.5850  -19.1583  -51.6078 O.2       20 UNK        -0.5000 
    114 N         -5.1664  -20.0142  -53.6594 N.am      21 UNK        -0.5000 
    115 CA        -3.7954  -19.5485  -53.8483 C.3       21 UNK         0.1400 
    116 CB        -3.8139  -18.1167  -54.4191 C.3       21 UNK        -0.1800 
    117 C         -3.0580  -20.5371  -54.7710 C.2       21 UNK         0.5000 
    118 O         -3.6223  -21.5747  -55.1308 O.2       21 UNK        -0.5000 
    119 N         -1.8149  -20.1956  -55.1302 N.am      22 UNK        -0.5000 
    120 CA        -0.9214  -20.9637  -56.0142 C.3       22 UNK         0.1400 
    121 C         -1.5362  -21.2633  -57.4115 C.2       22 UNK         0.5000 
    122 N         -1.3468  -22.4662  -57.9366 N.am      22 UNK        -0.7600 
    123 O         -2.1388  -20.3977  -58.0431 O.2       22 UNK        -0.5000 
    124 C124        0.4483  -20.2558  -56.1946 C.3       23 UNK        -0.0398 
    125 S125        1.3036  -19.9290  -54.6161 S.3       23 UNK        -0.2404 
    126 C126        1.0188  -18.1389  -54.4362 C.3       23 UNK        -0.0205 
    127 H127        3.7163  -10.1406  -48.7321 H         1 UNK         0.0600 
    128 H128        3.5714  -11.2715  -50.0814 H         1 UNK         0.0600 
    129 H129        4.7712   -9.9785  -50.1406 H         1 UNK         0.0600 
    130 H130        4.3543  -13.2582  -49.4463 H         1 UNK         0.3000 
    131 H131        7.0548  -13.5914  -48.4922 H         1 UNK         0.0600 
    132 H132        6.2631  -15.0269  -50.2703 H         1 UNK         0.0800 
    133 H133        6.6904  -15.9707  -48.8821 H         1 UNK         0.0800 
    134 H134        4.4185  -15.7100  -51.6522 H         1 UNK         0.0800 
    135 H135        3.3336  -14.5682  -50.8841 H         1 UNK         0.0800 
    136 H136        2.9977  -16.5797  -53.3651 H         1 UNK         0.1150 
    137 H137       -0.5430  -18.7533  -52.3050 H         1 UNK         0.1150 
    138 H138        1.5883  -16.5674  -49.3102 H         1 UNK         0.1150 
    139 H139       -0.6650  -17.4582  -48.8676 H         1 UNK         0.0800 
    140 H140       -1.5128  -18.4047  -50.0635 H         1 UNK         0.0800 
    141 H141       -1.7156  -20.1034  -47.4097 H         1 UNK         0.0800 
    142 H142       -0.7129  -18.7788  -46.9136 H         1 UNK         0.0800 
    143 H143        1.1478  -20.5897  -46.4557 H         1 UNK         0.0600 
    144 H144       -0.9768  -19.6742  -44.7538 H         1 UNK         0.3000 
    145 H145        0.2062  -21.0296  -41.7426 H         1 UNK         0.0600 
    146 H146        0.3632  -18.6922  -40.9619 H         1 UNK         0.0600 
    147 H147        1.7602  -19.0800  -41.9562 H         1 UNK         0.0600 
    148 H148        0.4532  -18.1101  -42.6197 H         1 UNK         0.0600 
    149 H149       -1.7766  -19.0753  -42.7048 H         1 UNK         0.3000 
    150 H150       -4.3754  -21.4834  -42.9819 H         1 UNK         0.0600 
    151 H151       -4.4038  -21.0562  -40.5193 H         1 UNK         0.0600 
    152 H152       -5.5730  -20.0468  -41.3546 H         1 UNK         0.0600 
    153 H153       -4.0480  -19.3555  -40.7983 H         1 UNK         0.0600 
    154 H154       -4.3963  -18.6370  -43.1364 H         1 UNK         0.3000 
    155 H155       -3.0864  -18.2049  -46.3624 H         1 UNK         0.0600 
    156 H156       -6.0696  -18.1923  -45.6569 H         1 UNK         0.0600 
    157 H157       -5.3389  -19.0440  -47.0122 H         1 UNK         0.0600 
    158 H158       -5.3131  -17.2901  -46.9713 H         1 UNK         0.0600 
    159 H159       -4.5422  -16.4142  -44.7362 H         1 UNK         0.3000 
    160 H160       -3.6707  -14.9456  -43.4338 H         1 UNK         0.0600 
    161 H161       -1.6845  -16.2556  -41.4944 H         1 UNK         0.0600 
    162 H162       -3.4292  -16.4941  -41.4758 H         1 UNK         0.0600 
    163 H163       -2.7585  -14.9090  -41.1213 H         1 UNK         0.0600 
    164 H164       -0.7219  -14.9537  -43.7574 H         1 UNK         0.3000 
    165 H165       -0.7991  -11.3897  -44.3003 H         1 UNK         0.0600 
    166 H166        1.3095  -11.5748  -42.9526 H         1 UNK         0.0600 
    167 H167       -0.1306  -11.5729  -41.9441 H         1 UNK         0.0600 
    168 H168        0.7172  -13.0796  -42.2486 H         1 UNK         0.0600 
    169 H169        1.2343  -13.3511  -44.7405 H         1 UNK         0.3000 
    170 H170        0.2994  -14.2186  -48.0503 H         1 UNK         0.0600 
    171 H171        1.3922  -11.9815  -48.3495 H         1 UNK         0.0600 
    172 H172        2.6098  -12.4252  -47.1578 H         1 UNK         0.0600 
    173 H173        2.4689  -13.3294  -48.6696 H         1 UNK         0.0600 
    174 H174        2.5420  -14.6576  -46.1995 H         1 UNK         0.3000 
    175 H175        1.1727  -17.6877  -44.9317 H         1 UNK         0.0600 
    176 H176        3.1606  -18.7929  -45.7680 H         1 UNK         0.0600 
    177 H177        2.1926  -18.3651  -47.1707 H         1 UNK         0.0600 
    178 H178        3.6061  -17.4052  -46.7579 H         1 UNK         0.0600 
    179 H179        3.7292  -16.4140  -44.6069 H         1 UNK         0.3000 
    180 H180        2.7705  -14.2329  -41.9599 H         1 UNK         0.0600 
    181 H181        2.9277  -16.4758  -40.8578 H         1 UNK         0.0600 
    182 H182        4.4100  -15.5527  -40.6716 H         1 UNK         0.0600 
    183 H183        4.3297  -16.8670  -41.8459 H         1 UNK         0.0600 
    184 H184        5.3432  -14.7638  -42.8267 H         1 UNK         0.3000 
    185 H185        5.7163  -11.9332  -44.4038 H         1 UNK         0.0600 
    186 H186        6.9634  -13.4391  -42.8836 H         1 UNK         0.0600 
    187 H187        7.0684  -14.6765  -44.1372 H         1 UNK         0.0600 
    188 H188        7.8948  -13.1374  -44.3349 H         1 UNK         0.0600 
    189 H189        5.9882  -12.1915  -46.5861 H         1 UNK         0.3000 
    190 H190       -2.0514  -21.8720  -45.5509 H         1 UNK         0.3000 
    191 H191       -2.9716  -23.8687  -45.4442 H         1 UNK         0.0600 
    192 H192       -0.0837  -24.8628  -45.1110 H         1 UNK         0.0600 
    193 H193       -1.5349  -25.7791  -44.6994 H         1 UNK         0.0600 
    194 H194       -1.1537  -24.3021  -43.8358 H         1 UNK         0.0600 
    195 H195       -0.6063  -25.9188  -46.7906 H         1 UNK         0.3000 
    196 H196       -2.2462  -26.8515  -48.8715 H         1 UNK         0.0600 
    197 H197       -0.2173  -28.1626  -49.5198 H         1 UNK         0.0600 
    198 H198       -0.4940  -28.2183  -47.7866 H         1 UNK         0.0600 
    199 H199        0.7705  -27.1794  -48.4453 H         1 UNK         0.0600 
    200 H200        0.2514  -24.3210  -48.9369 H         1 UNK         0.3000 
    201 H201        0.3856  -24.1135  -51.8281 H         1 UNK         0.0600 
    202 H202        2.3000  -23.4102  -50.5138 H         1 UNK         0.0600 
    203 H203        1.3301  -22.2906  -49.5666 H         1 UNK         0.0600 
    204 H204        1.6275  -21.9742  -51.2716 H         1 UNK         0.0600 
    205 H205       -1.9450  -23.1160  -49.5128 H         1 UNK         0.3000 
    206 H206       -3.2803  -21.2898  -51.4593 H         1 UNK         0.0600 
    207 H207       -2.8737  -20.1376  -49.3625 H         1 UNK         0.0600 
    208 H208       -4.5716  -20.5226  -49.4143 H         1 UNK         0.0600 
    209 H209       -3.4885  -21.4893  -48.4127 H         1 UNK         0.0600 
    210 H210       -3.1186  -24.3531  -51.3522 H         1 UNK         0.3000 
    211 H211       -4.4006  -26.1109  -51.7467 H         1 UNK         0.0600 
    212 H212       -6.6313  -24.1294  -52.4528 H         1 UNK         0.0600 
    213 H213       -6.4958  -25.7956  -52.9924 H         1 UNK         0.0600 
    214 H214       -5.3273  -24.6039  -53.5406 H         1 UNK         0.0600 
    215 H215       -4.1606  -25.4686  -49.1155 H         1 UNK         0.3000 
    216 H216       -4.7769  -26.0817  -47.0853 H         1 UNK         0.0600 
    217 H217       -6.6479  -27.5518  -46.5790 H         1 UNK         0.0600 
    218 H218       -5.8370  -28.1532  -48.0161 H         1 UNK         0.0600 
    219 H219       -7.3718  -27.2955  -48.1559 H         1 UNK         0.0600 
    220 H220       -4.9185  -23.5906  -47.8438 H         1 UNK         0.3000 
    221 H221       -5.5900  -21.5346  -47.3480 H         1 UNK         0.0600 
    222 H222       -7.0493  -22.7991  -44.9749 H         1 UNK         0.0600 
    223 H223       -5.3255  -22.4392  -45.0281 H         1 UNK         0.0600 
    224 H224       -6.4980  -21.1340  -45.1066 H         1 UNK         0.0600 
    225 H225       -7.0697  -22.6048  -49.3873 H         1 UNK         0.3000 
    226 H226       -9.8475  -21.5288  -49.0040 H         1 UNK         0.0600 
    227 H227       -9.7892  -24.0262  -49.1420 H         1 UNK         0.0600 
    228 H228      -10.5799  -23.3224  -50.5459 H         1 UNK         0.0600 
    229 H229       -8.9315  -23.9252  -50.6781 H         1 UNK         0.0600 
    230 H230       -6.9193  -21.5148  -50.9784 H         1 UNK         0.3000 
    231 H231       -8.0341  -19.4637  -52.7480 H         1 UNK         0.0600 
    232 H232       -7.0225  -22.1429  -53.8616 H         1 UNK         0.0600 
    233 H233       -7.5208  -20.7420  -54.8134 H         1 UNK         0.0600 
    234 H234       -8.7006  -21.6156  -53.8618 H         1 UNK         0.0600 
    235 H235       -5.4988  -20.6174  -54.4013 H         1 UNK         0.3000 
    236 H236       -3.2745  -19.5384  -52.8897 H         1 UNK         0.0600 
    237 H237       -2.8077  -17.7053  -54.5025 H         1 UNK         0.0600 
    238 H238       -4.2670  -18.0877  -55.4108 H         1 UNK         0.0600 
    239 H239       -4.3786  -17.4423  -53.7751 H         1 UNK         0.0600 
    240 H240       -1.4307  -19.3342  -54.7779 H         1 UNK         0.3000 
    241 H241       -0.7443  -21.9175  -55.5133 H         1 UNK         0.0600 
    242 H242       -1.7261  -22.6670  -58.8492 H         1 UNK         0.3800 
    243 H243       -0.8483  -23.1889  -57.4403 H         1 UNK         0.3800 
    244 H244        0.3311  -19.3218  -56.7475 H         1 UNK         0.0800 
    245 H245        1.1130  -20.8770  -56.7977 H         1 UNK         0.0800 
    246 H246        0.0092  -17.8821  -54.7582 H         1 UNK         0.0800 
    247 H247        1.6993  -17.6008  -55.0981 H         1 UNK         0.0800 
@<TRIPOS>BOND
     1    1    2 1    
     2    1  127 1    
     3    1  128 1    
     4    1  129 1    
     5    2    3 2    
     6    2    4 am   BACKBONE|DICT|INTERRES
     7    4    5 1    
     8    4  130 1    
     9    5    6 1    
    10    5   65 1    
    11    5  131 1    
    12    6    7 1    
    13    6  132 1    
    14    6  133 1    
    15    7    8 1    
    16    8    9 1    
    17    8  134 1    
    18    8  135 1    
    19    9   10 ar   
    20    9   14 ar   
    21   10   11 ar   
    22   10  136 1    
    23   11   12 ar   
    24   11  126 1    
    25   12   13 ar   
    26   12  137 1    
    27   13   14 ar   
    28   13   15 1    
    29   14  138 1    
    30   15   16 1    
    31   15  139 1    
    32   15  140 1    
    33   16   17 1    
    34   17   18 1    
    35   17  141 1    
    36   17  142 1    
    37   18   19 1    
    38   18   67 1    
    39   18  143 1    
    40   19   20 am   BACKBONE|DICT|INTERRES
    41   19  144 1    
    42   20   21 2    
    43   20   22 1    
    44   22   23 1    
    45   22   24 1    
    46   22  145 1    
    47   23  146 1    
    48   23  147 1    
    49   23  148 1    
    50   24   25 am   BACKBONE|DICT|INTERRES
    51   24  149 1    
    52   25   26 2    
    53   25   27 1    
    54   27   28 1    
    55   27   29 1    
    56   27  150 1    
    57   28  151 1    
    58   28  152 1    
    59   28  153 1    
    60   29   30 am   BACKBONE|DICT|INTERRES
    61   29  154 1    
    62   30   31 2    
    63   30   32 1    
    64   32   33 1    
    65   32   34 1    
    66   32  155 1    
    67   33  156 1    
    68   33  157 1    
    69   33  158 1    
    70   34   35 am   BACKBONE|DICT|INTERRES
    71   34  159 1    
    72   35   36 2    
    73   35   37 1    
    74   37   38 1    
    75   37   39 1    
    76   37  160 1    
    77   38  161 1    
    78   38  162 1    
    79   38  163 1    
    80   39   40 am   BACKBONE|DICT|INTERRES
    81   39  164 1    
    82   40   41 2    
    83   40   42 1    
    84   42   43 1    
    85   42   44 1    
    86   42  165 1    
    87   43  166 1    
    88   43  167 1    
    89   43  168 1    
    90   44   45 am   BACKBONE|DICT|INTERRES
    91   44  169 1    
    92   45   46 2    
    93   45   47 1    
    94   47   48 1    
    95   47   49 1    
    96   47  170 1    
    97   48  171 1    
    98   48  172 1    
    99   48  173 1    
   100   49   50 am   BACKBONE|DICT|INTERRES
   101   49  174 1    
   102   50   51 2    
   103   50   52 1    
   104   52   53 1    
   105   52   54 1    
   106   52  175 1    
   107   53  176 1    
   108   53  177 1    
   109   53  178 1    
   110   54   55 am   BACKBONE|DICT|INTERRES
   111   54  179 1    
   112   55   56 2    
   113   55   57 1    
   114   57   58 1    
   115   57   59 1    
   116   57  180 1    
   117   58  181 1    
   118   58  182 1    
   119   58  183 1    
   120   59   60 am   BACKBONE|DICT|INTERRES
   121   59  184 1    
   122   60   61 2    
   123   60   62 1    
   124   62   63 1    
   125   62   64 1    
   126   62  185 1    
   127   63  186 1    
   128   63  187 1    
   129   63  188 1    
   130   64   65 am   BACKBONE|DICT|INTERRES
   131   64  189 1    
   132   65   66 2    
   133   67   68 2    
   134   67   69 am   BACKBONE|DICT|INTERRES
   135   69   70 1    
   136   69  190 1    
   137   70   71 1    
   138   70   72 1    
   139   70  191 1    
   140   71  192 1    
   141   71  193 1    
   142   71  194 1    
   143   72   73 2    
   144   72   74 am   BACKBONE|DICT|INTERRES
   145   74   75 1    
   146   74  195 1    
   147   75   76 1    
   148   75   77 1    
   149   75  196 1    
   150   76  197 1    
   151   76  198 1    
   152   76  199 1    
   153   77   78 2    
   154   77   79 am   BACKBONE|DICT|INTERRES
   155   79   80 1    
   156   79  200 1    
   157   80   81 1    
   158   80   82 1    
   159   80  201 1    
   160   81  202 1    
   161   81  203 1    
   162   81  204 1    
   163   82   83 2    
   164   82   84 am   BACKBONE|DICT|INTERRES
   165   84   85 1    
   166   84  205 1    
   167   85   86 1    
   168   85   87 1    
   169   85  206 1    
   170   86  207 1    
   171   86  208 1    
   172   86  209 1    
   173   87   88 2    
   174   87   89 am   BACKBONE|DICT|INTERRES
   175   89   90 1    
   176   89  210 1    
   177   90   91 1    
   178   90   92 1    
   179   90  211 1    
   180   91  212 1    
   181   91  213 1    
   182   91  214 1    
   183   92   93 2    
   184   92   94 am   BACKBONE|DICT|INTERRES
   185   94   95 1    
   186   94  215 1    
   187   95   96 1    
   188   95   97 1    
   189   95  216 1    
   190   96  217 1    
   191   96  218 1    
   192   96  219 1    
   193   97   98 2    
   194   97   99 am   BACKBONE|DICT|INTERRES
   195   99  100 1    
   196   99  220 1    
   197  100  101 1    
   198  100  102 1    
   199  100  221 1    
   200  101  222 1    
   201  101  223 1    
   202  101  224 1    
   203  102  103 2    
   204  102  104 am   BACKBONE|DICT|INTERRES
   205  104  105 1    
   206  104  225 1    
   207  105  106 1    
   208  105  107 1    
   209  105  226 1    
   210  106  227 1    
   211  106  228 1    
   212  106  229 1    
   213  107  108 2    
   214  107  109 am   BACKBONE|DICT|INTERRES
   215  109  110 1    
   216  109  230 1    
   217  110  111 1    
   218  110  112 1    
   219  110  231 1    
   220  111  232 1    
   221  111  233 1    
   222  111  234 1    
   223  112  113 2    
   224  112  114 am   BACKBONE|DICT|INTERRES
   225  114  115 1    
   226  114  235 1    
   227  115  116 1    
   228  115  117 1    
   229  115  236 1    
   230  116  237 1    
   231  116  238 1    
   232  116  239 1    
   233  117  118 2    
   234  117  119 am   BACKBONE|DICT|INTERRES
   235  119  120 1    
   236  119  240 1    
   237  120  121 1    
   238  120  124 1    
   239  120  241 1    
   240  121  122 am   BACKBONE|DICT|INTERRES
   241  121  123 2    
   242  122  242 1    
   243  122  243 1    
   244  124  125 1    
   245  124  244 1    
   246  124  245 1    
   247  125  126 1    
   248  126  246 1    
   249  126  247 1    
@<TRIPOS>SUBSTRUCTURE
     1 UNK         1 GROUP             0       ****    0 ROOT    
