@<TRIPOS>MOLECULE
3R540
247   249    1
SMALL
USER_CHARGES


@<TRIPOS>ATOM
      1 CA         -4.1097  -10.2019  -49.1010 C.3       0 UNK        -0.1800 
      2 C          -2.8322  -10.4760  -48.3221 C.2       0 UNK         0.5000 
      3 O          -2.7053  -10.0433  -47.1768 O.2       0 UNK        -0.5000 
      4 N          -1.8866  -11.2095  -48.9236 N.am      1 UNK        -0.5000 
      5 CA         -0.5957  -11.5578  -48.3164 C.3       1 UNK         0.1400 
      6 C6          0.4120  -12.0951  -49.3622 C.3       23 UNK        -0.0398 
      7 S7         -0.0634  -13.6803  -50.1372 S.3       23 UNK        -0.2404 
      8 C8          1.0619  -14.8111  -49.2646 C.3       23 UNK        -0.0205 
      9 C9          0.7955  -16.2582  -49.6371 C.ar      23 UNK        -0.0193 
     10 C10         1.5438  -16.8800  -50.6416 C.ar      23 UNK        -0.1150 
     11 C11         1.3275  -18.2249  -50.9557 C.ar      23 UNK        -0.0193 
     12 C12         0.3579  -18.9438  -50.2525 C.ar      23 UNK        -0.1150 
     13 C13        -0.3940  -18.3353  -49.2442 C.ar      23 UNK        -0.0193 
     14 C14        -0.1795  -16.9867  -48.9498 C.ar      23 UNK        -0.1150 
     15 C15        -1.3942  -19.1528  -48.4422 C.3       23 UNK        -0.0205 
     16 S16        -0.5112  -20.3887  -47.4441 S.3       23 UNK        -0.2404 
     17 C17        -1.7832  -20.9849  -46.2769 C.3       23 UNK        -0.0398 
     18 CA         -2.0169  -22.5175  -46.3435 C.3       11 UNK         0.1400 
     19 N          -0.7585  -23.2693  -46.3729 N.am      11 UNK        -0.5000 
     20 C          -0.6284  -24.5418  -46.7706 C.2       10 UNK         0.5000 
     21 O          -1.5706  -25.2427  -47.1314 O.2       10 UNK        -0.5000 
     22 CA          0.7849  -25.1522  -46.7105 C.3       10 UNK         0.1400 
     23 CB          1.4981  -24.9587  -48.0571 C.3       10 UNK        -0.1800 
     24 N           1.6202  -24.5966  -45.6435 N.am      10 UNK        -0.5000 
     25 C           1.3196  -24.5846  -44.3359 C.2       9 UNK         0.5000 
     26 O           0.3094  -25.1085  -43.8649 O.2       9 UNK        -0.5000 
     27 CA          2.2681  -23.7872  -43.4169 C.3       9 UNK         0.1400 
     28 CB          3.3241  -24.7160  -42.8006 C.3       9 UNK        -0.1800 
     29 N           2.9388  -22.6734  -44.1016 N.am      9 UNK        -0.5000 
     30 C           2.3035  -21.6357  -44.6644 C.2       8 UNK         0.5000 
     31 O           1.0800  -21.4878  -44.6188 O.2       8 UNK        -0.5000 
     32 CA          3.1743  -20.6593  -45.4750 C.3       8 UNK         0.1400 
     33 CB          3.6442  -21.3257  -46.7795 C.3       8 UNK        -0.1800 
     34 N           2.4183  -19.4623  -45.8310 N.am      8 UNK        -0.5000 
     35 C           2.3352  -18.3516  -45.0938 C.2       7 UNK         0.5000 
     36 O           2.9434  -18.1740  -44.0352 O.2       7 UNK        -0.5000 
     37 CA          1.3740  -17.2737  -45.6298 C.3       7 UNK         0.1400 
     38 CB         -0.0404  -17.4877  -45.0662 C.3       7 UNK        -0.1800 
     39 N           1.8044  -15.9092  -45.3253 N.am      7 UNK        -0.5000 
     40 C           2.9306  -15.3274  -45.7627 C.2       6 UNK         0.5000 
     41 O           3.7146  -15.8686  -46.5434 O.2       6 UNK        -0.5000 
     42 CA          3.2276  -13.8945  -45.2684 C.3       6 UNK         0.1400 
     43 CB          3.4075  -12.9291  -46.4503 C.3       6 UNK        -0.1800 
     44 N           2.1780  -13.3727  -44.3873 N.am      6 UNK        -0.5000 
     45 C           2.1700  -13.5052  -43.0535 C.2       5 UNK         0.5000 
     46 O           3.0823  -14.0421  -42.4231 O.2       5 UNK        -0.5000 
     47 CA          0.9203  -12.9949  -42.3059 C.3       5 UNK         0.1400 
     48 CB          1.1902  -12.6701  -40.8213 C.3       5 UNK        -0.1800 
     49 N           0.2390  -11.8840  -42.9768 N.am      5 UNK        -0.5000 
     50 C           0.6810  -10.6291  -43.1570 C.2       4 UNK         0.5000 
     51 O           1.7864  -10.2348  -42.7837 O.2       4 UNK        -0.5000 
     52 CA         -0.2653   -9.6373  -43.8737 C.3       4 UNK         0.1400 
     53 CB          0.3896   -9.0742  -45.1457 C.3       4 UNK        -0.1800 
     54 N          -1.5608  -10.2239  -44.2278 N.am      4 UNK        -0.5000 
     55 C          -2.5773  -10.4320  -43.3788 C.2       3 UNK         0.5000 
     56 O          -2.5814  -10.0475  -42.2094 O.2       3 UNK        -0.5000 
     57 CA         -3.7607  -11.2637  -43.9113 C.3       3 UNK         0.1400 
     58 CB         -4.8697  -10.3555  -44.4637 C.3       3 UNK        -0.1800 
     59 N          -3.3471  -12.2221  -44.9418 N.am      3 UNK        -0.5000 
     60 C          -2.6283  -13.3290  -44.6999 C.2       2 UNK         0.5000 
     61 O          -2.2789  -13.6805  -43.5737 O.2       2 UNK        -0.5000 
     62 CA         -2.1639  -14.1447  -45.9204 C.3       2 UNK         0.1400 
     63 CB         -3.2361  -15.1567  -46.3498 C.3       2 UNK        -0.1800 
     64 N          -1.8071  -13.2963  -47.0561 N.am      2 UNK        -0.5000 
     65 C          -0.7383  -12.4872  -47.0879 C.2       1 UNK         0.5000 
     66 O           0.0903  -12.4306  -46.1787 O.2       1 UNK        -0.5000 
     67 C          -2.9431  -22.9662  -45.1899 C.2       11 UNK         0.5000 
     68 O          -4.1244  -22.6208  -45.2067 O.2       11 UNK        -0.5000 
     69 N          -2.3933  -23.6955  -44.2071 N.am      12 UNK        -0.5000 
     70 CA         -3.1240  -24.2959  -43.0933 C.3       12 UNK         0.1400 
     71 CB         -2.3875  -23.9814  -41.7815 C.3       12 UNK        -0.1800 
     72 C          -3.2711  -25.8164  -43.2785 C.2       12 UNK         0.5000 
     73 O          -4.3166  -26.3650  -42.9274 O.2       12 UNK        -0.5000 
     74 N          -2.2301  -26.4754  -43.8119 N.am      13 UNK        -0.5000 
     75 CA         -2.2083  -27.9151  -44.0849 C.3       13 UNK         0.1400 
     76 CB         -0.7688  -28.3533  -44.3928 C.3       13 UNK        -0.1800 
     77 C          -3.1595  -28.3250  -45.2257 C.2       13 UNK         0.5000 
     78 O          -3.8150  -29.3635  -45.1271 O.2       13 UNK        -0.5000 
     79 N          -3.2307  -27.4914  -46.2681 N.am      14 UNK        -0.5000 
     80 CA         -4.2117  -27.5501  -47.3474 C.3       14 UNK         0.1400 
     81 CB         -3.4640  -27.6368  -48.6915 C.3       14 UNK        -0.1800 
     82 C          -5.1010  -26.2951  -47.2688 C.2       14 UNK         0.5000 
     83 O          -5.0070  -25.5268  -46.3088 O.2       14 UNK        -0.5000 
     84 N          -5.9639  -26.1003  -48.2731 N.am      15 UNK        -0.5000 
     85 CA         -6.7605  -24.8834  -48.4243 C.3       15 UNK         0.1400 
     86 CB         -7.8304  -25.1069  -49.5040 C.3       15 UNK        -0.1800 
     87 C          -5.8646  -23.6880  -48.7934 C.2       15 UNK         0.5000 
     88 O          -4.9977  -23.8236  -49.6610 O.2       15 UNK        -0.5000 
     89 N          -6.1137  -22.5299  -48.1690 N.am      16 UNK        -0.5000 
     90 CA         -5.3633  -21.2932  -48.4012 C.3       16 UNK         0.1400 
     91 CB         -5.8246  -20.2092  -47.4168 C.3       16 UNK        -0.1800 
     92 C          -5.4633  -20.7934  -49.8517 C.2       16 UNK         0.5000 
     93 O          -4.4627  -20.3415  -50.4021 O.2       16 UNK        -0.5000 
     94 N          -6.6481  -20.9424  -50.4602 N.am      17 UNK        -0.5000 
     95 CA         -6.9109  -20.6059  -51.8603 C.3       17 UNK         0.1400 
     96 CB         -8.4242  -20.6690  -52.1160 C.3       17 UNK        -0.1800 
     97 C          -6.1579  -21.5087  -52.8571 C.2       17 UNK         0.5000 
     98 O          -5.7906  -21.0401  -53.9345 O.2       17 UNK        -0.5000 
     99 N          -5.9316  -22.7759  -52.4799 N.am      18 UNK        -0.5000 
    100 CA        -5.1544  -23.7366  -53.2625 C.3       18 UNK         0.1400 
    101 CB        -5.5001  -25.1698  -52.8293 C.3       18 UNK        -0.1800 
    102 C         -3.6464  -23.4696  -53.1353 C.2       18 UNK         0.5000 
    103 O         -2.9347  -23.5252  -54.1372 O.2       18 UNK        -0.5000 
    104 N         -3.1897  -23.1488  -51.9164 N.am      19 UNK        -0.5000 
    105 CA        -1.8077  -22.7622  -51.6292 C.3       19 UNK         0.1400 
    106 CB        -1.6036  -22.6987  -50.1094 C.3       19 UNK        -0.1800 
    107 C         -1.4119  -21.4346  -52.3056 C.2       19 UNK         0.5000 
    108 O         -0.3066  -21.3288  -52.8360 O.2       19 UNK        -0.5000 
    109 N         -2.3397  -20.4668  -52.3247 N.am      20 UNK        -0.5000 
    110 CA        -2.1994  -19.1462  -52.9475 C.3       20 UNK         0.1400 
    111 CB        -3.3068  -18.2203  -52.4191 C.3       20 UNK        -0.1800 
    112 C         -2.1662  -19.1498  -54.4924 C.2       20 UNK         0.5000 
    113 O         -2.0571  -18.0789  -55.0904 O.2       20 UNK        -0.5000 
    114 N         -2.2252  -20.3313  -55.1247 N.am      21 UNK        -0.5000 
    115 CA        -1.9986  -20.5297  -56.5603 C.3       21 UNK         0.1400 
    116 CB        -2.5523  -21.9042  -56.9664 C.3       21 UNK        -0.1800 
    117 C         -0.5137  -20.3912  -56.9736 C.2       21 UNK         0.5000 
    118 O         -0.2143  -20.4552  -58.1670 O.2       21 UNK        -0.5000 
    119 N          0.3805  -20.2184  -55.9905 N.am      22 UNK        -0.5000 
    120 CA         1.8113  -19.9051  -56.1208 C.3       22 UNK         0.1400 
    121 C          2.1437  -18.7121  -57.0682 C.2       22 UNK         0.5000 
    122 N          3.2992  -18.7404  -57.7197 N.am      22 UNK        -0.7600 
    123 O          1.3907  -17.7486  -57.1940 O.2       22 UNK        -0.5000 
    124 C124        2.4537  -19.7016  -54.7207 C.3       23 UNK        -0.0398 
    125 S125        1.6215  -18.4310  -53.6969 S.3       23 UNK        -0.2404 
    126 C126        2.1578  -18.9136  -52.0285 C.3       23 UNK        -0.0205 
    127 H127       -4.9705  -10.5915  -48.5576 H         1 UNK         0.0600 
    128 H128       -4.0903  -10.6656  -50.0875 H         1 UNK         0.0600 
    129 H129       -4.2450   -9.1283  -49.2313 H         1 UNK         0.0600 
    130 H130       -2.0388  -11.5553  -49.8609 H         1 UNK         0.3000 
    131 H131       -0.1752  -10.6246  -47.9366 H         1 UNK         0.0600 
    132 H132        0.5232  -11.3608  -50.1612 H         1 UNK         0.0800 
    133 H133        1.4057  -12.1808  -48.9232 H         1 UNK         0.0800 
    134 H134        2.0956  -14.5472  -49.4943 H         1 UNK         0.0800 
    135 H135        0.9462  -14.6884  -48.1869 H         1 UNK         0.0800 
    136 H136        2.2995  -16.3212  -51.1755 H         1 UNK         0.1150 
    137 H137        0.2049  -19.9904  -50.4686 H         1 UNK         0.1150 
    138 H138       -0.7489  -16.5072  -48.1667 H         1 UNK         0.1150 
    139 H139       -1.9828  -18.5067  -47.7891 H         1 UNK         0.0800 
    140 H140       -2.0948  -19.6450  -49.1172 H         1 UNK         0.0800 
    141 H141       -2.7191  -20.4529  -46.4545 H         1 UNK         0.0800 
    142 H142       -1.4582  -20.6960  -45.2758 H         1 UNK         0.0800 
    143 H143       -2.5458  -22.7372  -47.2724 H         1 UNK         0.0600 
    144 H144        0.0560  -22.7613  -46.0495 H         1 UNK         0.3000 
    145 H145        0.6793  -26.2223  -46.5285 H         1 UNK         0.0600 
    146 H146        2.4706  -25.4510  -48.0645 H         1 UNK         0.0600 
    147 H147        0.9129  -25.3851  -48.8732 H         1 UNK         0.0600 
    148 H148        1.6526  -23.9026  -48.2826 H         1 UNK         0.0600 
    149 H149        2.4721  -24.1411  -45.9337 H         1 UNK         0.3000 
    150 H150        1.6639  -23.3691  -42.6091 H         1 UNK         0.0600 
    151 H151        3.9761  -25.1465  -43.5617 H         1 UNK         0.0600 
    152 H152        2.8527  -25.5422  -42.2665 H         1 UNK         0.0600 
    153 H153        3.9490  -24.1826  -42.0842 H         1 UNK         0.0600 
    154 H154        3.9441  -22.7344  -44.1787 H         1 UNK         0.3000 
    155 H155        4.0470  -20.3865  -44.8780 H         1 UNK         0.0600 
    156 H156        2.8017  -21.6457  -47.3948 H         1 UNK         0.0600 
    157 H157        4.2593  -22.2038  -46.5801 H         1 UNK         0.0600 
    158 H158        4.2482  -20.6403  -47.3745 H         1 UNK         0.0600 
    159 H159        1.8089  -19.5558  -46.6321 H         1 UNK         0.3000 
    160 H160        1.3376  -17.3747  -46.7150 H         1 UNK         0.0600 
    161 H161       -0.1090  -17.1874  -44.0201 H         1 UNK         0.0600 
    162 H162       -0.3330  -18.5360  -45.1179 H         1 UNK         0.0600 
    163 H163       -0.7805  -16.9262  -45.6330 H         1 UNK         0.0600 
    164 H164        1.2411  -15.3947  -44.6672 H         1 UNK         0.3000 
    165 H165        4.1747  -13.9318  -44.7264 H         1 UNK         0.0600 
    166 H166        4.2541  -13.2226  -47.0719 H         1 UNK         0.0600 
    167 H167        2.5258  -12.9134  -47.0868 H         1 UNK         0.0600 
    168 H168        3.5932  -11.9114  -46.1064 H         1 UNK         0.0600 
    169 H169        1.3893  -12.9268  -44.8504 H         1 UNK         0.3000 
    170 H170        0.2130  -13.8249  -42.3255 H         1 UNK         0.0600 
    171 H171        1.5317  -13.5550  -40.2831 H         1 UNK         0.0600 
    172 H172        1.9566  -11.9035  -40.7051 H         1 UNK         0.0600 
    173 H173        0.2857  -12.3198  -40.3239 H         1 UNK         0.0600 
    174 H174       -0.6782  -12.1090  -43.3386 H         1 UNK         0.3000 
    175 H175       -0.4398   -8.8049  -43.1890 H         1 UNK         0.0600 
    176 H176       -0.2877   -8.4084  -45.6810 H         1 UNK         0.0600 
    177 H177        1.2835   -8.4994  -44.9008 H         1 UNK         0.0600 
    178 H178        0.6930   -9.8669  -45.8283 H         1 UNK         0.0600 
    179 H179       -1.6706  -10.5312  -45.1856 H         1 UNK         0.3000 
    180 H180       -4.1740  -11.8250  -43.0705 H         1 UNK         0.0600 
    181 H181       -4.5193   -9.7435  -45.2946 H         1 UNK         0.0600 
    182 H182       -5.2353   -9.6771  -43.6918 H         1 UNK         0.0600 
    183 H183       -5.7216  -10.9395  -44.8122 H         1 UNK         0.0600 
    184 H184       -3.5482  -11.9689  -45.8985 H         1 UNK         0.3000 
    185 H185       -1.2703  -14.6948  -45.6225 H         1 UNK         0.0600 
    186 H186       -3.4930  -15.8247  -45.5266 H         1 UNK         0.0600 
    187 H187       -4.1534  -14.6612  -46.6701 H         1 UNK         0.0600 
    188 H188       -2.8861  -15.7786  -47.1737 H         1 UNK         0.0600 
    189 H189       -2.4362  -13.2920  -47.8457 H         1 UNK         0.3000 
    190 H190       -1.4105  -23.9288  -44.2732 H         1 UNK         0.3000 
    191 H191       -4.1284  -23.8728  -43.0254 H         1 UNK         0.0600 
    192 H192       -2.3189  -22.9058  -41.6181 H         1 UNK         0.0600 
    193 H193       -2.9144  -24.4075  -40.9268 H         1 UNK         0.0600 
    194 H194       -1.3745  -24.3853  -41.7776 H         1 UNK         0.0600 
    195 H195       -1.3687  -25.9690  -43.9920 H         1 UNK         0.3000 
    196 H196       -2.5320  -28.4328  -43.1795 H         1 UNK         0.0600 
    197 H197       -0.7128  -29.4330  -44.5368 H         1 UNK         0.0600 
    198 H198       -0.0936  -28.0976  -43.5758 H         1 UNK         0.0600 
    199 H199       -0.3915  -27.8823  -45.2998 H         1 UNK         0.0600 
    200 H200       -2.6810  -26.6375  -46.2535 H         1 UNK         0.3000 
    201 H201       -4.8558  -28.4249  -47.2405 H         1 UNK         0.0600 
    202 H202       -4.1518  -27.8149  -49.5183 H         1 UNK         0.0600 
    203 H203       -2.9193  -26.7177  -48.9112 H         1 UNK         0.0600 
    204 H204       -2.7462  -28.4572  -48.6900 H         1 UNK         0.0600 
    205 H205       -5.9788  -26.7497  -49.0451 H         1 UNK         0.3000 
    206 H206       -7.2633  -24.6759  -47.4772 H         1 UNK         0.0600 
    207 H207       -8.4459  -24.2161  -49.6359 H         1 UNK         0.0600 
    208 H208       -7.3869  -25.3455  -50.4709 H         1 UNK         0.0600 
    209 H209       -8.4985  -25.9243  -49.2323 H         1 UNK         0.0600 
    210 H210       -6.8314  -22.4961  -47.4594 H         1 UNK         0.3000 
    211 H211       -4.3114  -21.5025  -48.2038 H         1 UNK         0.0600 
    212 H212       -6.8817  -19.9723  -47.5424 H         1 UNK         0.0600 
    213 H213       -5.2606  -19.2865  -47.5608 H         1 UNK         0.0600 
    214 H214       -5.6706  -20.5239  -46.3844 H         1 UNK         0.0600 
    215 H215       -7.4160  -21.3288  -49.9314 H         1 UNK         0.3000 
    216 H216       -6.5785  -19.5794  -52.0285 H         1 UNK         0.0600 
    217 H217       -8.6574  -20.3998  -53.1471 H         1 UNK         0.0600 
    218 H218       -8.9628  -19.9746  -51.4709 H         1 UNK         0.0600 
    219 H219       -8.8214  -21.6695  -51.9400 H         1 UNK         0.0600 
    220 H220       -6.2145  -23.0671  -51.5557 H         1 UNK         0.3000 
    221 H221       -5.4266  -23.6311  -54.3151 H         1 UNK         0.0600 
    222 H222       -5.2219  -25.3627  -51.7933 H         1 UNK         0.0600 
    223 H223       -6.5669  -25.3673  -52.9348 H         1 UNK         0.0600 
    224 H224       -4.9729  -25.8976  -53.4472 H         1 UNK         0.0600 
    225 H225       -3.8324  -23.1796  -51.1308 H         1 UNK         0.3000 
    226 H226       -1.1526  -23.5414  -52.0244 H         1 UNK         0.0600 
    227 H227       -0.5779  -22.4242  -49.8602 H         1 UNK         0.0600 
    228 H228       -2.2644  -21.9659  -49.6480 H         1 UNK         0.0600 
    229 H229       -1.8042  -23.6645  -49.6451 H         1 UNK         0.0600 
    230 H230       -3.2033  -20.6183  -51.8104 H         1 UNK         0.3000 
    231 H231       -1.2441  -18.7306  -52.6239 H         1 UNK         0.0600 
    232 H232       -4.2976  -18.5978  -52.6733 H         1 UNK         0.0600 
    233 H233       -3.2184  -17.2163  -52.8358 H         1 UNK         0.0600 
    234 H234       -3.2494  -18.1203  -51.3350 H         1 UNK         0.0600 
    235 H235       -2.3240  -21.1697  -54.5680 H         1 UNK         0.3000 
    236 H236       -2.5589  -19.7659  -57.1033 H         1 UNK         0.0600 
    237 H237       -2.5091  -22.0393  -58.0477 H         1 UNK         0.0600 
    238 H238       -1.9809  -22.7149  -56.5133 H         1 UNK         0.0600 
    239 H239       -3.5944  -22.0172  -56.6661 H         1 UNK         0.0600 
    240 H240        0.0299  -20.2002  -55.0427 H         1 UNK         0.3000 
    241 H241        2.2650  -20.7927  -56.5652 H         1 UNK         0.0600 
    242 H242        3.9403  -19.5142  -57.6322 H         1 UNK         0.3800 
    243 H243        3.5364  -17.9708  -58.3268 H         1 UNK         0.3800 
    244 H244        3.5116  -19.4481  -54.8078 H         1 UNK         0.0800 
    245 H245        2.4221  -20.6499  -54.1824 H         1 UNK         0.0800 
    246 H246        3.2115  -18.6630  -51.8992 H         1 UNK         0.0800 
    247 H247        2.0807  -19.9967  -51.9203 H         1 UNK         0.0800 
@<TRIPOS>BOND
     1    1    2 1    
     2    1  127 1    
     3    1  128 1    
     4    1  129 1    
     5    2    3 2    
     6    2    4 am   BACKBONE|DICT|INTERRES
     7    4    5 1    
     8    4  130 1    
     9    5    6 1    
    10    5   65 1    
    11    5  131 1    
    12    6    7 1    
    13    6  132 1    
    14    6  133 1    
    15    7    8 1    
    16    8    9 1    
    17    8  134 1    
    18    8  135 1    
    19    9   10 ar   
    20    9   14 ar   
    21   10   11 ar   
    22   10  136 1    
    23   11   12 ar   
    24   11  126 1    
    25   12   13 ar   
    26   12  137 1    
    27   13   14 ar   
    28   13   15 1    
    29   14  138 1    
    30   15   16 1    
    31   15  139 1    
    32   15  140 1    
    33   16   17 1    
    34   17   18 1    
    35   17  141 1    
    36   17  142 1    
    37   18   19 1    
    38   18   67 1    
    39   18  143 1    
    40   19   20 am   BACKBONE|DICT|INTERRES
    41   19  144 1    
    42   20   21 2    
    43   20   22 1    
    44   22   23 1    
    45   22   24 1    
    46   22  145 1    
    47   23  146 1    
    48   23  147 1    
    49   23  148 1    
    50   24   25 am   BACKBONE|DICT|INTERRES
    51   24  149 1    
    52   25   26 2    
    53   25   27 1    
    54   27   28 1    
    55   27   29 1    
    56   27  150 1    
    57   28  151 1    
    58   28  152 1    
    59   28  153 1    
    60   29   30 am   BACKBONE|DICT|INTERRES
    61   29  154 1    
    62   30   31 2    
    63   30   32 1    
    64   32   33 1    
    65   32   34 1    
    66   32  155 1    
    67   33  156 1    
    68   33  157 1    
    69   33  158 1    
    70   34   35 am   BACKBONE|DICT|INTERRES
    71   34  159 1    
    72   35   36 2    
    73   35   37 1    
    74   37   38 1    
    75   37   39 1    
    76   37  160 1    
    77   38  161 1    
    78   38  162 1    
    79   38  163 1    
    80   39   40 am   BACKBONE|DICT|INTERRES
    81   39  164 1    
    82   40   41 2    
    83   40   42 1    
    84   42   43 1    
    85   42   44 1    
    86   42  165 1    
    87   43  166 1    
    88   43  167 1    
    89   43  168 1    
    90   44   45 am   BACKBONE|DICT|INTERRES
    91   44  169 1    
    92   45   46 2    
    93   45   47 1    
    94   47   48 1    
    95   47   49 1    
    96   47  170 1    
    97   48  171 1    
    98   48  172 1    
    99   48  173 1    
   100   49   50 am   BACKBONE|DICT|INTERRES
   101   49  174 1    
   102   50   51 2    
   103   50   52 1    
   104   52   53 1    
   105   52   54 1    
   106   52  175 1    
   107   53  176 1    
   108   53  177 1    
   109   53  178 1    
   110   54   55 am   BACKBONE|DICT|INTERRES
   111   54  179 1    
   112   55   56 2    
   113   55   57 1    
   114   57   58 1    
   115   57   59 1    
   116   57  180 1    
   117   58  181 1    
   118   58  182 1    
   119   58  183 1    
   120   59   60 am   BACKBONE|DICT|INTERRES
   121   59  184 1    
   122   60   61 2    
   123   60   62 1    
   124   62   63 1    
   125   62   64 1    
   126   62  185 1    
   127   63  186 1    
   128   63  187 1    
   129   63  188 1    
   130   64   65 am   BACKBONE|DICT|INTERRES
   131   64  189 1    
   132   65   66 2    
   133   67   68 2    
   134   67   69 am   BACKBONE|DICT|INTERRES
   135   69   70 1    
   136   69  190 1    
   137   70   71 1    
   138   70   72 1    
   139   70  191 1    
   140   71  192 1    
   141   71  193 1    
   142   71  194 1    
   143   72   73 2    
   144   72   74 am   BACKBONE|DICT|INTERRES
   145   74   75 1    
   146   74  195 1    
   147   75   76 1    
   148   75   77 1    
   149   75  196 1    
   150   76  197 1    
   151   76  198 1    
   152   76  199 1    
   153   77   78 2    
   154   77   79 am   BACKBONE|DICT|INTERRES
   155   79   80 1    
   156   79  200 1    
   157   80   81 1    
   158   80   82 1    
   159   80  201 1    
   160   81  202 1    
   161   81  203 1    
   162   81  204 1    
   163   82   83 2    
   164   82   84 am   BACKBONE|DICT|INTERRES
   165   84   85 1    
   166   84  205 1    
   167   85   86 1    
   168   85   87 1    
   169   85  206 1    
   170   86  207 1    
   171   86  208 1    
   172   86  209 1    
   173   87   88 2    
   174   87   89 am   BACKBONE|DICT|INTERRES
   175   89   90 1    
   176   89  210 1    
   177   90   91 1    
   178   90   92 1    
   179   90  211 1    
   180   91  212 1    
   181   91  213 1    
   182   91  214 1    
   183   92   93 2    
   184   92   94 am   BACKBONE|DICT|INTERRES
   185   94   95 1    
   186   94  215 1    
   187   95   96 1    
   188   95   97 1    
   189   95  216 1    
   190   96  217 1    
   191   96  218 1    
   192   96  219 1    
   193   97   98 2    
   194   97   99 am   BACKBONE|DICT|INTERRES
   195   99  100 1    
   196   99  220 1    
   197  100  101 1    
   198  100  102 1    
   199  100  221 1    
   200  101  222 1    
   201  101  223 1    
   202  101  224 1    
   203  102  103 2    
   204  102  104 am   BACKBONE|DICT|INTERRES
   205  104  105 1    
   206  104  225 1    
   207  105  106 1    
   208  105  107 1    
   209  105  226 1    
   210  106  227 1    
   211  106  228 1    
   212  106  229 1    
   213  107  108 2    
   214  107  109 am   BACKBONE|DICT|INTERRES
   215  109  110 1    
   216  109  230 1    
   217  110  111 1    
   218  110  112 1    
   219  110  231 1    
   220  111  232 1    
   221  111  233 1    
   222  111  234 1    
   223  112  113 2    
   224  112  114 am   BACKBONE|DICT|INTERRES
   225  114  115 1    
   226  114  235 1    
   227  115  116 1    
   228  115  117 1    
   229  115  236 1    
   230  116  237 1    
   231  116  238 1    
   232  116  239 1    
   233  117  118 2    
   234  117  119 am   BACKBONE|DICT|INTERRES
   235  119  120 1    
   236  119  240 1    
   237  120  121 1    
   238  120  124 1    
   239  120  241 1    
   240  121  122 am   BACKBONE|DICT|INTERRES
   241  121  123 2    
   242  122  242 1    
   243  122  243 1    
   244  124  125 1    
   245  124  244 1    
   246  124  245 1    
   247  125  126 1    
   248  126  246 1    
   249  126  247 1    
@<TRIPOS>SUBSTRUCTURE
     1 UNK         1 GROUP             0       ****    0 ROOT    
