@<TRIPOS>MOLECULE
3R540
247   249    1
SMALL
USER_CHARGES


@<TRIPOS>ATOM
      1 CA         -0.0851   -9.4774  -47.1398 C.3       0 UNK        -0.1800 
      2 C          -0.5758  -10.7247  -47.8720 C.2       0 UNK         0.5000 
      3 O          -1.5881  -10.6582  -48.5652 O.2       0 UNK        -0.5000 
      4 N           0.0912  -11.8808  -47.7474 N.am      1 UNK        -0.5000 
      5 CA          1.3054  -12.1328  -46.9582 C.3       1 UNK         0.1400 
      6 C6          2.2741  -13.0891  -47.6943 C.3       23 UNK        -0.0398 
      7 S7          1.6105  -14.7667  -47.9705 S.3       23 UNK        -0.2404 
      8 C8          2.7643  -15.3718  -49.2374 C.3       23 UNK        -0.0205 
      9 C9          2.5475  -16.8450  -49.5535 C.ar      23 UNK        -0.0193 
     10 C10         1.9008  -17.2358  -50.7304 C.ar      23 UNK        -0.1150 
     11 C11         1.7669  -18.5910  -51.0489 C.ar      23 UNK        -0.0193 
     12 C12         2.2808  -19.5566  -50.1779 C.ar      23 UNK        -0.1150 
     13 C13         2.9143  -19.1821  -48.9869 C.ar      23 UNK        -0.0193 
     14 C14         3.0411  -17.8231  -48.6860 C.ar      23 UNK        -0.1150 
     15 C15         3.5179  -20.2162  -48.0363 C.3       23 UNK        -0.0205 
     16 S16         2.5388  -21.7450  -47.8504 S.3       23 UNK        -0.2404 
     17 C17         0.9915  -21.0648  -47.1740 C.3       23 UNK        -0.0398 
     18 CA          0.0135  -22.1392  -46.6429 C.3       11 UNK         0.1400 
     19 N          -1.0633  -21.5124  -45.8775 N.am      11 UNK        -0.5000 
     20 C          -2.0371  -22.1495  -45.2155 C.2       10 UNK         0.5000 
     21 O          -2.1146  -23.3736  -45.1094 O.2       10 UNK        -0.5000 
     22 CA         -3.1395  -21.2580  -44.6201 C.3       10 UNK         0.1400 
     23 CB         -2.6904  -20.6477  -43.2839 C.3       10 UNK        -0.1800 
     24 N          -3.5259  -20.1900  -45.5446 N.am      10 UNK        -0.5000 
     25 C          -4.2241  -20.3883  -46.6713 C.2       9 UNK         0.5000 
     26 O          -4.6448  -21.4878  -47.0284 O.2       9 UNK        -0.5000 
     27 CA         -4.4680  -19.1600  -47.5669 C.3       9 UNK         0.1400 
     28 CB         -5.6838  -18.3605  -47.0776 C.3       9 UNK        -0.1800 
     29 N          -3.3068  -18.2738  -47.6689 N.am      9 UNK        -0.5000 
     30 C          -2.1518  -18.6271  -48.2505 C.2       8 UNK         0.5000 
     31 O          -1.9361  -19.7431  -48.7116 O.2       8 UNK        -0.5000 
     32 CA         -1.0324  -17.5743  -48.2842 C.3       8 UNK         0.1400 
     33 CB         -1.3429  -16.5327  -49.3715 C.3       8 UNK        -0.1800 
     34 N          -0.7848  -16.8956  -47.0066 N.am      8 UNK        -0.5000 
     35 C          -0.6522  -17.4741  -45.8042 C.2       7 UNK         0.5000 
     36 O          -0.7971  -18.6804  -45.5983 O.2       7 UNK        -0.5000 
     37 CA         -0.3291  -16.5253  -44.6332 C.3       7 UNK         0.1400 
     38 CB         -0.7936  -17.0960  -43.2789 C.3       7 UNK        -0.1800 
     39 N           1.0822  -16.1327  -44.5414 N.am      7 UNK        -0.5000 
     40 C           2.1685  -16.9237  -44.5039 C.2       6 UNK         0.5000 
     41 O           2.1628  -18.1386  -44.6979 O.2       6 UNK        -0.5000 
     42 CA          3.4910  -16.2383  -44.1083 C.3       6 UNK         0.1400 
     43 CB          4.2363  -15.6860  -45.3285 C.3       6 UNK        -0.1800 
     44 N           3.2694  -15.1544  -43.1495 N.am      6 UNK        -0.5000 
     45 C           3.1426  -15.3368  -41.8272 C.2       5 UNK         0.5000 
     46 O           3.2387  -16.4402  -41.2873 O.2       5 UNK        -0.5000 
     47 CA          2.8315  -14.0975  -40.9603 C.3       5 UNK         0.1400 
     48 CB          3.5467  -14.1332  -39.5935 C.3       5 UNK        -0.1800 
     49 N           3.0497  -12.8159  -41.6401 N.am      5 UNK        -0.5000 
     50 C           4.2101  -12.2760  -42.0478 C.2       4 UNK         0.5000 
     51 O           5.3085  -12.8036  -41.8713 O.2       4 UNK        -0.5000 
     52 CA          4.1358  -10.9319  -42.8043 C.3       4 UNK         0.1400 
     53 CB          4.7888  -11.0480  -44.1929 C.3       4 UNK        -0.1800 
     54 N           2.7575  -10.4683  -42.9769 N.am      4 UNK        -0.5000 
     55 C           2.0997   -9.6572  -42.1366 C.2       3 UNK         0.5000 
     56 O           2.6142   -9.1323  -41.1491 O.2       3 UNK        -0.5000 
     57 CA          0.6047   -9.4134  -42.4346 C.3       3 UNK         0.1400 
     58 CB          0.4209   -8.1004  -43.2111 C.3       3 UNK        -0.1800 
     59 N          -0.0256  -10.5031  -43.1877 N.am      3 UNK        -0.5000 
     60 C          -0.2116  -11.7499  -42.7302 C.2       2 UNK         0.5000 
     61 O           0.0901  -12.1108  -41.5939 O.2       2 UNK        -0.5000 
     62 CA         -0.7469  -12.7864  -43.7366 C.3       2 UNK         0.1400 
     63 CB         -2.2809  -12.8330  -43.7123 C.3       2 UNK        -0.1800 
     64 N          -0.2882  -12.5415  -45.1086 N.am      2 UNK        -0.5000 
     65 C           0.9912  -12.5864  -45.5111 C.2       1 UNK         0.5000 
     66 O           1.9068  -12.9452  -44.7679 O.2       1 UNK        -0.5000 
     67 C          -0.5493  -23.0326  -47.7699 C.2       11 UNK         0.5000 
     68 O          -0.1814  -24.2037  -47.8683 O.2       11 UNK        -0.5000 
     69 N          -1.4801  -22.4821  -48.5593 N.am      12 UNK        -0.5000 
     70 CA         -2.1737  -23.1762  -49.6371 C.3       12 UNK         0.1400 
     71 CB         -3.0087  -22.1756  -50.4350 C.3       12 UNK        -0.1800 
     72 C          -3.0676  -24.3201  -49.1436 C.2       12 UNK         0.5000 
     73 O          -3.1434  -25.3430  -49.8215 O.2       12 UNK        -0.5000 
     74 N          -3.7299  -24.1460  -47.9920 N.am      13 UNK        -0.5000 
     75 CA         -4.5350  -25.1856  -47.3493 C.3       13 UNK         0.1400 
     76 CB         -5.3470  -24.5875  -46.1918 C.3       13 UNK        -0.1800 
     77 C          -3.6767  -26.3693  -46.8705 C.2       13 UNK         0.5000 
     78 O          -4.0554  -27.5181  -47.0979 O.2       13 UNK        -0.5000 
     79 N          -2.5137  -26.0719  -46.2724 N.am      14 UNK        -0.5000 
     80 CA         -1.5155  -27.0612  -45.8580 C.3       14 UNK         0.1400 
     81 CB         -0.4345  -26.3744  -45.0098 C.3       14 UNK        -0.1800 
     82 C          -0.8872  -27.8118  -47.0492 C.2       14 UNK         0.5000 
     83 O          -0.6540  -29.0172  -46.9545 O.2       14 UNK        -0.5000 
     84 N          -0.6612  -27.0955  -48.1589 N.am      15 UNK        -0.5000 
     85 CA         -0.1743  -27.6399  -49.4294 C.3       15 UNK         0.1400 
     86 CB          0.3812  -26.4840  -50.2767 C.3       15 UNK        -0.1800 
     87 C          -1.2441  -28.4171  -50.2274 C.2       15 UNK         0.5000 
     88 O          -0.8929  -29.0845  -51.2008 O.2       15 UNK        -0.5000 
     89 N          -2.5187  -28.2967  -49.8253 N.am      16 UNK        -0.5000 
     90 CA         -3.7248  -28.8327  -50.4687 C.3       16 UNK         0.1400 
     91 CB         -3.7065  -30.3752  -50.4976 C.3       16 UNK        -0.1800 
     92 C          -4.0205  -28.2038  -51.8500 C.2       16 UNK         0.5000 
     93 O          -4.6993  -28.8175  -52.6753 O.2       16 UNK        -0.5000 
     94 N          -3.5258  -26.9792  -52.0663 N.am      17 UNK        -0.5000 
     95 CA         -3.7930  -26.1490  -53.2399 C.3       17 UNK         0.1400 
     96 CB         -2.5731  -25.2501  -53.4991 C.3       17 UNK        -0.1800 
     97 C          -5.0602  -25.2962  -53.0429 C.2       17 UNK         0.5000 
     98 O          -5.8149  -25.1091  -53.9977 O.2       17 UNK        -0.5000 
     99 N          -5.2647  -24.8325  -51.7992 N.am      18 UNK        -0.5000 
    100 CA        -6.3482  -23.9826  -51.2906 C.3       18 UNK         0.1400 
    101 CB        -7.7136  -24.6762  -51.4700 C.3       18 UNK        -0.1800 
    102 C         -6.3676  -22.5435  -51.8558 C.2       18 UNK         0.5000 
    103 O         -5.7565  -22.2561  -52.8881 O.2       18 UNK        -0.5000 
    104 N         -7.0953  -21.6721  -51.1393 N.am      19 UNK        -0.5000 
    105 CA        -7.3355  -20.2434  -51.3870 C.3       19 UNK         0.1400 
    106 CB        -7.9928  -20.0242  -52.7651 C.3       19 UNK        -0.1800 
    107 C         -6.0895  -19.3491  -51.2283 C.2       19 UNK         0.5000 
    108 O         -4.9550  -19.8062  -51.3574 O.2       19 UNK        -0.5000 
    109 N         -6.3254  -18.0504  -50.9949 N.am      20 UNK        -0.5000 
    110 CA        -5.2848  -17.0175  -50.8891 C.3       20 UNK         0.1400 
    111 CB        -5.9235  -15.7130  -50.3886 C.3       20 UNK        -0.1800 
    112 C         -4.5143  -16.7716  -52.2043 C.2       20 UNK         0.5000 
    113 O         -3.4200  -16.2105  -52.1729 O.2       20 UNK        -0.5000 
    114 N         -5.0926  -17.2078  -53.3312 N.am      21 UNK        -0.5000 
    115 CA        -4.4619  -17.2315  -54.6497 C.3       21 UNK         0.1400 
    116 CB        -5.5638  -17.3745  -55.7120 C.3       21 UNK        -0.1800 
    117 C         -3.4135  -18.3543  -54.8075 C.2       21 UNK         0.5000 
    118 O         -2.6446  -18.3100  -55.7687 O.2       21 UNK        -0.5000 
    119 N         -3.4038  -19.3298  -53.8862 N.am      22 UNK        -0.5000 
    120 CA        -2.5464  -20.5235  -53.8795 C.3       22 UNK         0.1400 
    121 C         -2.8390  -21.4600  -55.0846 C.2       22 UNK         0.5000 
    122 N         -4.0042  -22.0932  -55.1125 N.am      22 UNK        -0.7600 
    123 O         -2.0256  -21.6216  -55.9911 O.2       22 UNK        -0.5000 
    124 C124       -1.0347  -20.2060  -53.6997 C.3       23 UNK        -0.0398 
    125 S125       -0.6657  -19.3601  -52.1250 S.3       23 UNK        -0.2404 
    126 C126        1.1053  -19.0193  -52.3503 C.3       23 UNK        -0.0205 
    127 H127        0.1033   -9.6798  -46.0870 H         1 UNK         0.0600 
    128 H128        0.8321   -9.1047  -47.5958 H         1 UNK         0.0600 
    129 H129       -0.8313   -8.6843  -47.1940 H         1 UNK         0.0600 
    130 H130       -0.2526  -12.6866  -48.2511 H         1 UNK         0.3000 
    131 H131        1.8530  -11.1960  -46.8484 H         1 UNK         0.0600 
    132 H132        3.2208  -13.1594  -47.1579 H         1 UNK         0.0800 
    133 H133        2.5265  -12.6576  -48.6641 H         1 UNK         0.0800 
    134 H134        2.6551  -14.7688  -50.1401 H         1 UNK         0.0800 
    135 H135        3.7885  -15.2258  -48.8908 H         1 UNK         0.0800 
    136 H136        1.5163  -16.4860  -51.4076 H         1 UNK         0.1150 
    137 H137        2.1899  -20.6026  -50.4343 H         1 UNK         0.1150 
    138 H138        3.5428  -17.5216  -47.7794 H         1 UNK         0.1150 
    139 H139        4.5103  -20.4816  -48.4025 H         1 UNK         0.0800 
    140 H140        3.6610  -19.7807  -47.0457 H         1 UNK         0.0800 
    141 H141        0.5147  -20.4479  -47.9363 H         1 UNK         0.0800 
    142 H142        1.2602  -20.3843  -46.3640 H         1 UNK         0.0800 
    143 H143        0.5578  -22.7854  -45.9512 H         1 UNK         0.0600 
    144 H144       -1.0718  -20.4944  -45.8747 H         1 UNK         0.3000 
    145 H145       -4.0141  -21.8839  -44.4306 H         1 UNK         0.0600 
    146 H146       -3.4802  -20.0403  -42.8417 H         1 UNK         0.0600 
    147 H147       -2.4396  -21.4290  -42.5654 H         1 UNK         0.0600 
    148 H148       -1.8086  -20.0178  -43.4025 H         1 UNK         0.0600 
    149 H149       -3.1488  -19.2713  -45.3619 H         1 UNK         0.3000 
    150 H150       -4.6891  -19.5319  -48.5689 H         1 UNK         0.0600 
    151 H151       -6.5683  -18.9958  -47.0152 H         1 UNK         0.0600 
    152 H152       -5.9201  -17.5450  -47.7600 H         1 UNK         0.0600 
    153 H153       -5.5150  -17.9334  -46.0884 H         1 UNK         0.0600 
    154 H154       -3.3966  -17.3451  -47.2848 H         1 UNK         0.3000 
    155 H155       -0.1091  -18.0878  -48.5581 H         1 UNK         0.0600 
    156 H156       -0.5039  -15.8611  -49.5400 H         1 UNK         0.0600 
    157 H157       -2.2134  -15.9264  -49.1190 H         1 UNK         0.0600 
    158 H158       -1.5491  -17.0193  -50.3254 H         1 UNK         0.0600 
    159 H159       -0.5979  -15.9063  -47.0766 H         1 UNK         0.3000 
    160 H160       -0.8979  -15.6123  -44.8106 H         1 UNK         0.0600 
    161 H161       -0.6607  -16.3680  -42.4786 H         1 UNK         0.0600 
    162 H162       -0.2378  -17.9943  -43.0071 H         1 UNK         0.0600 
    163 H163       -1.8516  -17.3597  -43.3060 H         1 UNK         0.0600 
    164 H164        1.2503  -15.1442  -44.4147 H         1 UNK         0.3000 
    165 H165        4.1318  -16.9938  -43.6484 H         1 UNK         0.0600 
    166 H166        5.1691  -15.2039  -45.0355 H         1 UNK         0.0600 
    167 H167        4.4902  -16.4837  -46.0252 H         1 UNK         0.0600 
    168 H168        3.6361  -14.9534  -45.8610 H         1 UNK         0.0600 
    169 H169        3.1396  -14.2244  -43.5296 H         1 UNK         0.3000 
    170 H170        1.7600  -14.1450  -40.7625 H         1 UNK         0.0600 
    171 H171        3.2398  -15.0044  -39.0138 H         1 UNK         0.0600 
    172 H172        4.6303  -14.1818  -39.7020 H         1 UNK         0.0600 
    173 H173        3.3068  -13.2510  -38.9999 H         1 UNK         0.0600 
    174 H174        2.2012  -12.2953  -41.8242 H         1 UNK         0.3000 
    175 H175        4.7014  -10.1999  -42.2243 H         1 UNK         0.0600 
    176 H176        4.3097  -11.8120  -44.8053 H         1 UNK         0.0600 
    177 H177        4.7368  -10.1028  -44.7335 H         1 UNK         0.0600 
    178 H178        5.8434  -11.3130  -44.1083 H         1 UNK         0.0600 
    179 H179        2.2493  -10.8854  -43.7432 H         1 UNK         0.3000 
    180 H180        0.0883   -9.3220  -41.4767 H         1 UNK         0.0600 
    181 H181        0.9163   -8.1328  -44.1823 H         1 UNK         0.0600 
    182 H182        0.8400   -7.2587  -42.6581 H         1 UNK         0.0600 
    183 H183       -0.6344   -7.8838  -43.3780 H         1 UNK         0.0600 
    184 H184       -0.3219  -10.2893  -44.1272 H         1 UNK         0.3000 
    185 H185       -0.3708  -13.7599  -43.4185 H         1 UNK         0.0600 
    186 H186       -2.6495  -13.0351  -42.7057 H         1 UNK         0.0600 
    187 H187       -2.7184  -11.8889  -44.0392 H         1 UNK         0.0600 
    188 H188       -2.6621  -13.6222  -44.3606 H         1 UNK         0.0600 
    189 H189       -0.9906  -12.2689  -45.7814 H         1 UNK         0.3000 
    190 H190       -1.7042  -21.4934  -48.4512 H         1 UNK         0.3000 
    191 H191       -1.4175  -23.5962  -50.3024 H         1 UNK         0.0600 
    192 H192       -3.8222  -21.7613  -49.8384 H         1 UNK         0.0600 
    193 H193       -3.4450  -22.6457  -51.3152 H         1 UNK         0.0600 
    194 H194       -2.3976  -21.3437  -50.7790 H         1 UNK         0.0600 
    195 H195       -3.6854  -23.2470  -47.5245 H         1 UNK         0.3000 
    196 H196       -5.2407  -25.5679  -48.0901 H         1 UNK         0.0600 
    197 H197       -5.9533  -25.3519  -45.7042 H         1 UNK         0.0600 
    198 H198       -6.0269  -23.8133  -46.5475 H         1 UNK         0.0600 
    199 H199       -4.7035  -24.1448  -45.4318 H         1 UNK         0.0600 
    200 H200       -2.2921  -25.0974  -46.0890 H         1 UNK         0.3000 
    201 H201       -2.0188  -27.7999  -45.2308 H         1 UNK         0.0600 
    202 H202       -0.8675  -25.9033  -44.1272 H         1 UNK         0.0600 
    203 H203        0.0927  -25.6041  -45.5730 H         1 UNK         0.0600 
    204 H204        0.3076  -27.0951  -44.6641 H         1 UNK         0.0600 
    205 H205       -0.8009  -26.0903  -48.1206 H         1 UNK         0.3000 
    206 H206        0.6434  -28.3317  -49.2180 H         1 UNK         0.0600 
    207 H207        1.1634  -25.9426  -49.7440 H         1 UNK         0.0600 
    208 H208        0.8168  -26.8522  -51.2063 H         1 UNK         0.0600 
    209 H209       -0.3994  -25.7709  -50.5415 H         1 UNK         0.0600 
    210 H210       -2.6927  -27.7076  -49.0214 H         1 UNK         0.3000 
    211 H211       -4.5542  -28.5318  -49.8273 H         1 UNK         0.0600 
    212 H212       -2.9574  -30.7608  -51.1894 H         1 UNK         0.0600 
    213 H213       -4.6728  -30.7715  -50.8115 H         1 UNK         0.0600 
    214 H214       -3.4952  -30.7849  -49.5098 H         1 UNK         0.0600 
    215 H215       -3.0475  -26.5280  -51.2924 H         1 UNK         0.3000 
    216 H216       -3.9405  -26.7867  -54.1140 H         1 UNK         0.0600 
    217 H217       -2.7229  -24.6382  -54.3892 H         1 UNK         0.0600 
    218 H218       -1.6739  -25.8446  -53.6611 H         1 UNK         0.0600 
    219 H219       -2.3813  -24.5750  -52.6644 H         1 UNK         0.0600 
    220 H220       -4.5581  -25.0708  -51.1119 H         1 UNK         0.3000 
    221 H221       -6.1591  -23.8944  -50.2194 H         1 UNK         0.0600 
    222 H222       -8.0017  -24.7403  -52.5196 H         1 UNK         0.0600 
    223 H223       -7.6982  -25.6878  -51.0641 H         1 UNK         0.0600 
    224 H224       -8.5041  -24.1332  -50.9513 H         1 UNK         0.0600 
    225 H225       -7.5293  -22.0207  -50.2965 H         1 UNK         0.3000 
    226 H226       -8.0496  -19.9324  -50.6229 H         1 UNK         0.0600 
    227 H227       -8.8685  -20.6612  -52.8898 H         1 UNK         0.0600 
    228 H228       -8.3262  -18.9927  -52.8828 H         1 UNK         0.0600 
    229 H229       -7.3054  -20.2367  -53.5846 H         1 UNK         0.0600 
    230 H230       -7.2800  -17.7318  -50.9073 H         1 UNK         0.3000 
    231 H231       -4.5553  -17.3490  -50.1478 H         1 UNK         0.0600 
    232 H232       -6.6612  -15.3306  -51.0952 H         1 UNK         0.0600 
    233 H233       -6.4202  -15.8544  -49.4291 H         1 UNK         0.0600 
    234 H234       -5.1688  -14.9374  -50.2503 H         1 UNK         0.0600 
    235 H235       -6.0012  -17.6397  -53.2600 H         1 UNK         0.3000 
    236 H236       -3.9515  -16.2794  -54.8094 H         1 UNK         0.0600 
    237 H237       -5.1422  -17.3590  -56.7179 H         1 UNK         0.0600 
    238 H238       -6.1104  -18.3119  -55.6001 H         1 UNK         0.0600 
    239 H239       -6.2815  -16.5563  -55.6499 H         1 UNK         0.0600 
    240 H240       -4.0628  -19.2869  -53.1170 H         1 UNK         0.3000 
    241 H241       -2.8548  -21.0904  -53.0041 H         1 UNK         0.0600 
    242 H242       -4.2182  -22.6995  -55.8871 H         1 UNK         0.3800 
    243 H243       -4.6650  -22.0253  -54.3380 H         1 UNK         0.3800 
    244 H244       -0.4554  -21.1306  -53.7183 H         1 UNK         0.0800 
    245 H245       -0.6655  -19.5982  -54.5267 H         1 UNK         0.0800 
    246 H246        1.6019  -19.9118  -52.7344 H         1 UNK         0.0800 
    247 H247        1.2289  -18.2471  -53.1111 H         1 UNK         0.0800 
@<TRIPOS>BOND
     1    1    2 1    
     2    1  127 1    
     3    1  128 1    
     4    1  129 1    
     5    2    3 2    
     6    2    4 am   BACKBONE|DICT|INTERRES
     7    4    5 1    
     8    4  130 1    
     9    5    6 1    
    10    5   65 1    
    11    5  131 1    
    12    6    7 1    
    13    6  132 1    
    14    6  133 1    
    15    7    8 1    
    16    8    9 1    
    17    8  134 1    
    18    8  135 1    
    19    9   10 ar   
    20    9   14 ar   
    21   10   11 ar   
    22   10  136 1    
    23   11   12 ar   
    24   11  126 1    
    25   12   13 ar   
    26   12  137 1    
    27   13   14 ar   
    28   13   15 1    
    29   14  138 1    
    30   15   16 1    
    31   15  139 1    
    32   15  140 1    
    33   16   17 1    
    34   17   18 1    
    35   17  141 1    
    36   17  142 1    
    37   18   19 1    
    38   18   67 1    
    39   18  143 1    
    40   19   20 am   BACKBONE|DICT|INTERRES
    41   19  144 1    
    42   20   21 2    
    43   20   22 1    
    44   22   23 1    
    45   22   24 1    
    46   22  145 1    
    47   23  146 1    
    48   23  147 1    
    49   23  148 1    
    50   24   25 am   BACKBONE|DICT|INTERRES
    51   24  149 1    
    52   25   26 2    
    53   25   27 1    
    54   27   28 1    
    55   27   29 1    
    56   27  150 1    
    57   28  151 1    
    58   28  152 1    
    59   28  153 1    
    60   29   30 am   BACKBONE|DICT|INTERRES
    61   29  154 1    
    62   30   31 2    
    63   30   32 1    
    64   32   33 1    
    65   32   34 1    
    66   32  155 1    
    67   33  156 1    
    68   33  157 1    
    69   33  158 1    
    70   34   35 am   BACKBONE|DICT|INTERRES
    71   34  159 1    
    72   35   36 2    
    73   35   37 1    
    74   37   38 1    
    75   37   39 1    
    76   37  160 1    
    77   38  161 1    
    78   38  162 1    
    79   38  163 1    
    80   39   40 am   BACKBONE|DICT|INTERRES
    81   39  164 1    
    82   40   41 2    
    83   40   42 1    
    84   42   43 1    
    85   42   44 1    
    86   42  165 1    
    87   43  166 1    
    88   43  167 1    
    89   43  168 1    
    90   44   45 am   BACKBONE|DICT|INTERRES
    91   44  169 1    
    92   45   46 2    
    93   45   47 1    
    94   47   48 1    
    95   47   49 1    
    96   47  170 1    
    97   48  171 1    
    98   48  172 1    
    99   48  173 1    
   100   49   50 am   BACKBONE|DICT|INTERRES
   101   49  174 1    
   102   50   51 2    
   103   50   52 1    
   104   52   53 1    
   105   52   54 1    
   106   52  175 1    
   107   53  176 1    
   108   53  177 1    
   109   53  178 1    
   110   54   55 am   BACKBONE|DICT|INTERRES
   111   54  179 1    
   112   55   56 2    
   113   55   57 1    
   114   57   58 1    
   115   57   59 1    
   116   57  180 1    
   117   58  181 1    
   118   58  182 1    
   119   58  183 1    
   120   59   60 am   BACKBONE|DICT|INTERRES
   121   59  184 1    
   122   60   61 2    
   123   60   62 1    
   124   62   63 1    
   125   62   64 1    
   126   62  185 1    
   127   63  186 1    
   128   63  187 1    
   129   63  188 1    
   130   64   65 am   BACKBONE|DICT|INTERRES
   131   64  189 1    
   132   65   66 2    
   133   67   68 2    
   134   67   69 am   BACKBONE|DICT|INTERRES
   135   69   70 1    
   136   69  190 1    
   137   70   71 1    
   138   70   72 1    
   139   70  191 1    
   140   71  192 1    
   141   71  193 1    
   142   71  194 1    
   143   72   73 2    
   144   72   74 am   BACKBONE|DICT|INTERRES
   145   74   75 1    
   146   74  195 1    
   147   75   76 1    
   148   75   77 1    
   149   75  196 1    
   150   76  197 1    
   151   76  198 1    
   152   76  199 1    
   153   77   78 2    
   154   77   79 am   BACKBONE|DICT|INTERRES
   155   79   80 1    
   156   79  200 1    
   157   80   81 1    
   158   80   82 1    
   159   80  201 1    
   160   81  202 1    
   161   81  203 1    
   162   81  204 1    
   163   82   83 2    
   164   82   84 am   BACKBONE|DICT|INTERRES
   165   84   85 1    
   166   84  205 1    
   167   85   86 1    
   168   85   87 1    
   169   85  206 1    
   170   86  207 1    
   171   86  208 1    
   172   86  209 1    
   173   87   88 2    
   174   87   89 am   BACKBONE|DICT|INTERRES
   175   89   90 1    
   176   89  210 1    
   177   90   91 1    
   178   90   92 1    
   179   90  211 1    
   180   91  212 1    
   181   91  213 1    
   182   91  214 1    
   183   92   93 2    
   184   92   94 am   BACKBONE|DICT|INTERRES
   185   94   95 1    
   186   94  215 1    
   187   95   96 1    
   188   95   97 1    
   189   95  216 1    
   190   96  217 1    
   191   96  218 1    
   192   96  219 1    
   193   97   98 2    
   194   97   99 am   BACKBONE|DICT|INTERRES
   195   99  100 1    
   196   99  220 1    
   197  100  101 1    
   198  100  102 1    
   199  100  221 1    
   200  101  222 1    
   201  101  223 1    
   202  101  224 1    
   203  102  103 2    
   204  102  104 am   BACKBONE|DICT|INTERRES
   205  104  105 1    
   206  104  225 1    
   207  105  106 1    
   208  105  107 1    
   209  105  226 1    
   210  106  227 1    
   211  106  228 1    
   212  106  229 1    
   213  107  108 2    
   214  107  109 am   BACKBONE|DICT|INTERRES
   215  109  110 1    
   216  109  230 1    
   217  110  111 1    
   218  110  112 1    
   219  110  231 1    
   220  111  232 1    
   221  111  233 1    
   222  111  234 1    
   223  112  113 2    
   224  112  114 am   BACKBONE|DICT|INTERRES
   225  114  115 1    
   226  114  235 1    
   227  115  116 1    
   228  115  117 1    
   229  115  236 1    
   230  116  237 1    
   231  116  238 1    
   232  116  239 1    
   233  117  118 2    
   234  117  119 am   BACKBONE|DICT|INTERRES
   235  119  120 1    
   236  119  240 1    
   237  120  121 1    
   238  120  124 1    
   239  120  241 1    
   240  121  122 am   BACKBONE|DICT|INTERRES
   241  121  123 2    
   242  122  242 1    
   243  122  243 1    
   244  124  125 1    
   245  124  244 1    
   246  124  245 1    
   247  125  126 1    
   248  126  246 1    
   249  126  247 1    
@<TRIPOS>SUBSTRUCTURE
     1 UNK         1 GROUP             0       ****    0 ROOT    
