@<TRIPOS>MOLECULE
3R540
247   249    1
SMALL
USER_CHARGES


@<TRIPOS>ATOM
      1 CA          4.5438   -9.5653  -48.5524 C.3       0 UNK        -0.1800 
      2 C           3.8732  -10.7754  -47.9201 C.2       0 UNK         0.5000 
      3 O           3.7456  -10.8368  -46.6973 O.2       0 UNK        -0.5000 
      4 N           3.4208  -11.7321  -48.7425 N.am      1 UNK        -0.5000 
      5 CA          2.7782  -12.9795  -48.3016 C.3       1 UNK         0.1400 
      6 C6          2.6357  -14.0034  -49.4629 C.3       23 UNK        -0.0398 
      7 S7          3.1794  -15.6750  -48.9751 S.3       23 UNK        -0.2404 
      8 C8          1.6112  -16.4581  -48.4973 C.3       23 UNK        -0.0205 
      9 C9          0.9625  -17.2094  -49.6461 C.ar      23 UNK        -0.0193 
     10 C10         0.0762  -16.5606  -50.5090 C.ar      23 UNK        -0.1150 
     11 C11        -0.5310  -17.2584  -51.5567 C.ar      23 UNK        -0.0193 
     12 C12        -0.2577  -18.6187  -51.7297 C.ar      23 UNK        -0.1150 
     13 C13         0.6183  -19.2806  -50.8640 C.ar      23 UNK        -0.0193 
     14 C14         1.2295  -18.5688  -49.8281 C.ar      23 UNK        -0.1150 
     15 C15         0.9073  -20.7630  -51.0493 C.3       23 UNK        -0.0205 
     16 S16        -0.4523  -21.8015  -50.4279 S.3       23 UNK        -0.2404 
     17 C17        -0.4097  -21.4622  -48.6354 C.3       23 UNK        -0.0398 
     18 CA         -0.5338  -22.7360  -47.7647 C.3       11 UNK         0.1400 
     19 N          -0.0886  -22.4974  -46.3896 N.am      11 UNK        -0.5000 
     20 C           0.0176  -23.4395  -45.4430 C.2       10 UNK         0.5000 
     21 O          -0.1872  -24.6360  -45.6472 O.2       10 UNK        -0.5000 
     22 CA          0.3524  -22.9625  -44.0174 C.3       10 UNK         0.1400 
     23 CB          1.8646  -22.7589  -43.8497 C.3       10 UNK        -0.1800 
     24 N          -0.3617  -21.7372  -43.6489 N.am      10 UNK        -0.5000 
     25 C          -1.6966  -21.6460  -43.5485 C.2       9 UNK         0.5000 
     26 O          -2.4566  -22.5998  -43.7043 O.2       9 UNK        -0.5000 
     27 CA         -2.2920  -20.2508  -43.2921 C.3       9 UNK         0.1400 
     28 CB         -2.1781  -19.8657  -41.8100 C.3       9 UNK        -0.1800 
     29 N          -1.6701  -19.2204  -44.1214 N.am      9 UNK        -0.5000 
     30 C          -1.7042  -19.1929  -45.4614 C.2       8 UNK         0.5000 
     31 O          -2.3278  -20.0019  -46.1484 O.2       8 UNK        -0.5000 
     32 CA         -0.8397  -18.1199  -46.1464 C.3       8 UNK         0.1400 
     33 CB         -1.5606  -16.7635  -46.1788 C.3       8 UNK        -0.1800 
     34 N           0.4628  -17.9803  -45.4916 N.am      8 UNK        -0.5000 
     35 C           1.4154  -18.9247  -45.5073 C.2       7 UNK         0.5000 
     36 O           1.3111  -19.9849  -46.1213 O.2       7 UNK        -0.5000 
     37 CA          2.6781  -18.6583  -44.6720 C.3       7 UNK         0.1400 
     38 CB          3.7123  -17.8592  -45.4793 C.3       7 UNK        -0.1800 
     39 N           2.3657  -17.9573  -43.4272 N.am      7 UNK        -0.5000 
     40 C           1.7596  -18.5353  -42.3790 C.2       6 UNK         0.5000 
     41 O           1.4491  -19.7262  -42.3476 O.2       6 UNK        -0.5000 
     42 CA          1.3950  -17.6275  -41.1866 C.3       6 UNK         0.1400 
     43 CB          2.5653  -17.5435  -40.1960 C.3       6 UNK        -0.1800 
     44 N           1.0090  -16.2751  -41.5927 N.am      6 UNK        -0.5000 
     45 C          -0.0410  -15.9853  -42.3730 C.2       5 UNK         0.5000 
     46 O          -0.8543  -16.8282  -42.7498 O.2       5 UNK        -0.5000 
     47 CA         -0.1868  -14.5307  -42.8610 C.3       5 UNK         0.1400 
     48 CB         -1.2447  -13.7877  -42.0329 C.3       5 UNK        -0.1800 
     49 N           1.0502  -13.7438  -42.8661 N.am      5 UNK        -0.5000 
     50 C           2.1785  -14.0351  -43.5277 C.2       4 UNK         0.5000 
     51 O           2.3634  -15.1029  -44.1135 O.2       4 UNK        -0.5000 
     52 CA          3.2710  -12.9437  -43.5261 C.3       4 UNK         0.1400 
     53 CB          4.5231  -13.3603  -44.3178 C.3       4 UNK        -0.1800 
     54 N           2.7671  -11.6816  -44.0707 N.am      4 UNK        -0.5000 
     55 C           1.9892  -10.8038  -43.4223 C.2       3 UNK         0.5000 
     56 O           1.6543  -10.9317  -42.2438 O.2       3 UNK        -0.5000 
     57 CA          1.4448   -9.6261  -44.2466 C.3       3 UNK         0.1400 
     58 CB          2.5037   -8.5244  -44.4093 C.3       3 UNK        -0.1800 
     59 N           0.9903  -10.0776  -45.5620 N.am      3 UNK        -0.5000 
     60 C          -0.1955  -10.6622  -45.7903 C.2       2 UNK         0.5000 
     61 O          -1.0627  -10.8064  -44.9281 O.2       2 UNK        -0.5000 
     62 CA         -0.4604  -11.1781  -47.2191 C.3       2 UNK         0.1400 
     63 CB         -1.1332  -10.0894  -48.0688 C.3       2 UNK        -0.1800 
     64 N           0.7556  -11.6305  -47.8964 N.am      2 UNK        -0.5000 
     65 C           1.4340  -12.7412  -47.5727 C.2       1 UNK         0.5000 
     66 O           1.0533  -13.5375  -46.7167 O.2       1 UNK        -0.5000 
     67 C          -1.9586  -23.3325  -47.8046 C.2       11 UNK         0.5000 
     68 O          -2.1860  -24.3312  -48.4871 O.2       11 UNK        -0.5000 
     69 N          -2.8798  -22.7372  -47.0375 N.am      12 UNK        -0.5000 
     70 CA         -4.2680  -23.1756  -46.9340 C.3       12 UNK         0.1400 
     71 CB         -5.0917  -22.0853  -46.2307 C.3       12 UNK        -0.1800 
     72 C          -4.4305  -24.5292  -46.2186 C.2       12 UNK         0.5000 
     73 O          -5.1464  -25.3939  -46.7230 O.2       12 UNK        -0.5000 
     74 N          -3.7989  -24.6798  -45.0476 N.am      13 UNK        -0.5000 
     75 CA         -4.0249  -25.8075  -44.1453 C.3       13 UNK         0.1400 
     76 CB         -3.8540  -25.3401  -42.6906 C.3       13 UNK        -0.1800 
     77 C          -3.1139  -27.0109  -44.4294 C.2       13 UNK         0.5000 
     78 O          -3.6135  -28.1327  -44.5226 O.2       13 UNK        -0.5000 
     79 N          -1.7982  -26.7754  -44.5153 N.am      14 UNK        -0.5000 
     80 CA         -0.7894  -27.8348  -44.5717 C.3       14 UNK         0.1400 
     81 CB          0.4948  -27.3772  -43.8599 C.3       14 UNK        -0.1800 
     82 C          -0.4992  -28.2729  -46.0130 C.2       14 UNK         0.5000 
     83 O          -0.4542  -29.4745  -46.2803 O.2       14 UNK        -0.5000 
     84 N          -0.3242  -27.3011  -46.9198 N.am      15 UNK        -0.5000 
     85 CA         -0.0839  -27.5620  -48.3434 C.3       15 UNK         0.1400 
     86 CB          0.6483  -26.3692  -48.9758 C.3       15 UNK        -0.1800 
     87 C          -1.3771  -27.8870  -49.1178 C.2       15 UNK         0.5000 
     88 O          -1.2917  -28.4305  -50.2197 O.2       15 UNK        -0.5000 
     89 N          -2.5378  -27.5575  -48.5285 N.am      16 UNK        -0.5000 
     90 CA         -3.8938  -27.7556  -49.0536 C.3       16 UNK         0.1400 
     91 CB         -4.2263  -29.2594  -49.1537 C.3       16 UNK        -0.1800 
     92 C          -4.1513  -26.9859  -50.3674 C.2       16 UNK         0.5000 
     93 O          -4.8395  -27.4910  -51.2571 O.2       16 UNK        -0.5000 
     94 N          -3.5803  -25.7808  -50.4641 N.am      17 UNK        -0.5000 
     95 CA         -3.6672  -24.8807  -51.6056 C.3       17 UNK         0.1400 
     96 CB         -2.2536  -24.6970  -52.1932 C.3       17 UNK        -0.1800 
     97 C          -4.3569  -23.5772  -51.1608 C.2       17 UNK         0.5000 
     98 O          -5.4672  -23.6438  -50.6290 O.2       17 UNK        -0.5000 
     99 N          -3.7132  -22.4251  -51.4026 N.am      18 UNK        -0.5000 
    100 CA        -4.2365  -21.0648  -51.2351 C.3       18 UNK         0.1400 
    101 CB        -4.4503  -20.7284  -49.7430 C.3       18 UNK        -0.1800 
    102 C         -5.4769  -20.8379  -52.1294 C.2       18 UNK         0.5000 
    103 O         -5.4556  -21.2607  -53.2880 O.2       18 UNK        -0.5000 
    104 N         -6.5221  -20.1909  -51.5923 N.am      19 UNK        -0.5000 
    105 CA        -7.8341  -19.9506  -52.2043 C.3       19 UNK         0.1400 
    106 CB        -8.6283  -21.2724  -52.3018 C.3       19 UNK        -0.1800 
    107 C         -7.7439  -19.1917  -53.5449 C.2       19 UNK         0.5000 
    108 O         -7.6781  -17.9623  -53.5388 O.2       19 UNK        -0.5000 
    109 N         -7.7431  -19.9334  -54.6605 N.am      20 UNK        -0.5000 
    110 CA        -7.6096  -19.4176  -56.0231 C.3       20 UNK         0.1400 
    111 CB        -8.0688  -20.5046  -57.0076 C.3       20 UNK        -0.1800 
    112 C         -6.1834  -18.9433  -56.3701 C.2       20 UNK         0.5000 
    113 O         -6.0230  -18.1911  -57.3339 O.2       20 UNK        -0.5000 
    114 N         -5.1742  -19.3839  -55.6026 N.am      21 UNK        -0.5000 
    115 CA        -3.7812  -18.9517  -55.7360 C.3       21 UNK         0.1400 
    116 CB        -2.8979  -19.7644  -54.7773 C.3       21 UNK        -0.1800 
    117 C         -3.6137  -17.4440  -55.4652 C.2       21 UNK         0.5000 
    118 O         -4.3434  -16.8799  -54.6470 O.2       21 UNK        -0.5000 
    119 N         -2.6404  -16.8336  -56.1502 N.am      22 UNK        -0.5000 
    120 CA        -2.3192  -15.3933  -56.1168 C.3       22 UNK         0.1400 
    121 C         -3.3671  -14.4743  -56.8205 C.2       22 UNK         0.5000 
    122 N         -4.3737  -15.0037  -57.5062 N.am      22 UNK        -0.7600 
    123 O         -3.2478  -13.2527  -56.7762 O.2       22 UNK        -0.5000 
    124 C124       -1.9406  -14.8600  -54.7035 C.3       23 UNK        -0.0398 
    125 S125       -0.5970  -15.7995  -53.8977 S.3       23 UNK        -0.2404 
    126 C126       -1.4863  -16.5395  -52.4932 C.3       23 UNK        -0.0205 
    127 H127        4.0079   -8.6559  -48.2806 H         1 UNK         0.0600 
    128 H128        4.5666   -9.6361  -49.6401 H         1 UNK         0.0600 
    129 H129        5.5695   -9.4775  -48.1946 H         1 UNK         0.0600 
    130 H130        3.5458  -11.6239  -49.7392 H         1 UNK         0.3000 
    131 H131        3.4524  -13.4003  -47.5533 H         1 UNK         0.0600 
    132 H132        1.6252  -14.0325  -49.8729 H         1 UNK         0.0800 
    133 H133        3.2718  -13.7190  -50.3022 H         1 UNK         0.0800 
    134 H134        1.8243  -17.1527  -47.6891 H         1 UNK         0.0800 
    135 H135        0.9202  -15.7227  -48.0888 H         1 UNK         0.0800 
    136 H136       -0.1414  -15.5115  -50.3691 H         1 UNK         0.1150 
    137 H137       -0.7281  -19.1644  -52.5354 H         1 UNK         0.1150 
    138 H138        1.9098  -19.0735  -49.1562 H         1 UNK         0.1150 
    139 H139        1.0540  -20.9724  -52.1098 H         1 UNK         0.0800 
    140 H140        1.8373  -21.0436  -50.5523 H         1 UNK         0.0800 
    141 H141       -1.1837  -20.7326  -48.3966 H         1 UNK         0.0800 
    142 H142        0.5382  -20.9746  -48.4116 H         1 UNK         0.0800 
    143 H143        0.1496  -23.4805  -48.1734 H         1 UNK         0.0600 
    144 H144        0.1620  -21.5417  -46.1542 H         1 UNK         0.3000 
    145 H145        0.0401  -23.7483  -43.3264 H         1 UNK         0.0600 
    146 H146        2.1139  -22.4837  -42.8248 H         1 UNK         0.0600 
    147 H147        2.4089  -23.6750  -44.0824 H         1 UNK         0.0600 
    148 H148        2.2428  -21.9766  -44.5075 H         1 UNK         0.0600 
    149 H149        0.2045  -20.9187  -43.4529 H         1 UNK         0.3000 
    150 H150       -3.3518  -20.2890  -43.5521 H         1 UNK         0.0600 
    151 H151       -2.6743  -20.6025  -41.1771 H         1 UNK         0.0600 
    152 H152       -2.6470  -18.9007  -41.6166 H         1 UNK         0.0600 
    153 H153       -1.1393  -19.8024  -41.4871 H         1 UNK         0.0600 
    154 H154       -1.1861  -18.4721  -43.6324 H         1 UNK         0.3000 
    155 H155       -0.6670  -18.4352  -47.1777 H         1 UNK         0.0600 
    156 H156       -1.8241  -16.4171  -45.1799 H         1 UNK         0.0600 
    157 H157       -2.4853  -16.8330  -46.7527 H         1 UNK         0.0600 
    158 H158       -0.9458  -15.9947  -46.6460 H         1 UNK         0.0600 
    159 H159        0.6198  -17.1435  -44.9484 H         1 UNK         0.3000 
    160 H160        3.1231  -19.6237  -44.4220 H         1 UNK         0.0600 
    161 H161        3.3328  -16.8808  -45.7742 H         1 UNK         0.0600 
    162 H162        3.9875  -18.3895  -46.3919 H         1 UNK         0.0600 
    163 H163        4.6255  -17.7032  -44.9051 H         1 UNK         0.0600 
    164 H164        2.5256  -16.9543  -43.4224 H         1 UNK         0.3000 
    165 H165        0.5434  -18.0792  -40.6740 H         1 UNK         0.0600 
    166 H166        2.2925  -16.9692  -39.3105 H         1 UNK         0.0600 
    167 H167        2.8626  -18.5374  -39.8586 H         1 UNK         0.0600 
    168 H168        3.4409  -17.0736  -40.6456 H         1 UNK         0.0600 
    169 H169        1.6304  -15.5239  -41.3324 H         1 UNK         0.3000 
    170 H170       -0.5360  -14.5769  -43.8945 H         1 UNK         0.0600 
    171 H171       -2.1928  -14.3274  -42.0322 H         1 UNK         0.0600 
    172 H172       -0.9315  -13.6697  -40.9948 H         1 UNK         0.0600 
    173 H173       -1.4379  -12.7951  -42.4413 H         1 UNK         0.0600 
    174 H174        1.0056  -12.8342  -42.4187 H         1 UNK         0.3000 
    175 H175        3.5716  -12.7859  -42.4885 H         1 UNK         0.0600 
    176 H176        4.2904  -13.5517  -45.3652 H         1 UNK         0.0600 
    177 H177        5.2887  -12.5851  -44.2822 H         1 UNK         0.0600 
    178 H178        4.9617  -14.2706  -43.9072 H         1 UNK         0.0600 
    179 H179        3.0060  -11.4857  -45.0388 H         1 UNK         0.3000 
    180 H180        0.5986   -9.1976  -43.7050 H         1 UNK         0.0600 
    181 H181        3.3920   -8.8832  -44.9294 H         1 UNK         0.0600 
    182 H182        2.8247   -8.1490  -43.4369 H         1 UNK         0.0600 
    183 H183        2.1073   -7.6775  -44.9695 H         1 UNK         0.0600 
    184 H184        1.6731  -10.0510  -46.3068 H         1 UNK         0.3000 
    185 H185       -1.1466  -12.0246  -47.1439 H         1 UNK         0.0600 
    186 H186       -2.0578   -9.7465  -47.6024 H         1 UNK         0.0600 
    187 H187       -0.4873   -9.2197  -48.1954 H         1 UNK         0.0600 
    188 H188       -1.3904  -10.4649  -49.0594 H         1 UNK         0.0600 
    189 H189        1.1329  -11.0261  -48.6116 H         1 UNK         0.3000 
    190 H190       -2.6245  -21.8998  -46.5219 H         1 UNK         0.3000 
    191 H191       -4.6586  -23.2913  -47.9468 H         1 UNK         0.0600 
    192 H192       -5.0379  -21.1396  -46.7700 H         1 UNK         0.0600 
    193 H193       -6.1434  -22.3676  -46.1709 H         1 UNK         0.0600 
    194 H194       -4.7397  -21.9062  -45.2142 H         1 UNK         0.0600 
    195 H195       -3.2408  -23.9099  -44.6818 H         1 UNK         0.3000 
    196 H196       -5.0584  -26.1449  -44.2527 H         1 UNK         0.0600 
    197 H197       -4.0706  -26.1496  -41.9924 H         1 UNK         0.0600 
    198 H198       -4.5331  -24.5196  -42.4585 H         1 UNK         0.0600 
    199 H199       -2.8379  -24.9983  -42.4901 H         1 UNK         0.0600 
    200 H200       -1.4562  -25.8223  -44.5392 H         1 UNK         0.3000 
    201 H201       -1.1594  -28.7081  -44.0296 H         1 UNK         0.0600 
    202 H202        0.2891  -27.0720  -42.8339 H         1 UNK         0.0600 
    203 H203        0.9753  -26.5417  -44.3677 H         1 UNK         0.0600 
    204 H204        1.2216  -28.1892  -43.8171 H         1 UNK         0.0600 
    205 H205       -0.3504  -26.3320  -46.6138 H         1 UNK         0.3000 
    206 H206        0.5744  -28.4293  -48.4284 H         1 UNK         0.0600 
    207 H207        1.4947  -26.0477  -48.3686 H         1 UNK         0.0600 
    208 H208        1.0344  -26.6349  -49.9604 H         1 UNK         0.0600 
    209 H209       -0.0142  -25.5188  -49.1158 H         1 UNK         0.0600 
    210 H210       -2.4796  -27.0827  -47.6393 H         1 UNK         0.3000 
    211 H211       -4.5725  -27.3280  -48.3171 H         1 UNK         0.0600 
    212 H212       -3.6332  -29.7568  -49.9215 H         1 UNK         0.0600 
    213 H213       -5.2770  -29.4112  -49.4034 H         1 UNK         0.0600 
    214 H214       -4.0429  -29.7664  -48.2063 H         1 UNK         0.0600 
    215 H215       -3.0675  -25.4115  -49.6646 H         1 UNK         0.3000 
    216 H216       -4.2996  -25.3074  -52.3862 H         1 UNK         0.0600 
    217 H217       -2.2568  -24.0249  -53.0522 H         1 UNK         0.0600 
    218 H218       -1.8549  -25.6511  -52.5385 H         1 UNK         0.0600 
    219 H219       -1.5566  -24.3058  -51.4524 H         1 UNK         0.0600 
    220 H220       -2.8032  -22.4828  -51.8368 H         1 UNK         0.3000 
    221 H221       -3.4604  -20.3954  -51.6061 H         1 UNK         0.0600 
    222 H222       -5.2660  -21.3044  -49.3058 H         1 UNK         0.0600 
    223 H223       -3.5503  -20.9366  -49.1659 H         1 UNK         0.0600 
    224 H224       -4.6748  -19.6706  -49.6027 H         1 UNK         0.0600 
    225 H225       -6.4255  -19.8571  -50.6441 H         1 UNK         0.3000 
    226 H226       -8.3782  -19.2969  -51.5207 H         1 UNK         0.0600 
    227 H227       -8.8026  -21.6923  -51.3111 H         1 UNK         0.0600 
    228 H228       -9.6054  -21.1110  -52.7589 H         1 UNK         0.0600 
    229 H229       -8.1077  -22.0298  -52.8886 H         1 UNK         0.0600 
    230 H230       -7.7508  -20.9382  -54.5589 H         1 UNK         0.3000 
    231 H231       -8.2737  -18.5575  -56.1304 H         1 UNK         0.0600 
    232 H232       -7.4470  -21.3980  -56.9383 H         1 UNK         0.0600 
    233 H233       -8.0170  -20.1475  -58.0371 H         1 UNK         0.0600 
    234 H234       -9.1018  -20.7976  -56.8188 H         1 UNK         0.0600 
    235 H235       -5.3871  -20.0006  -54.8248 H         1 UNK         0.3000 
    236 H236       -3.4678  -19.1633  -56.7604 H         1 UNK         0.0600 
    237 H237       -3.0254  -20.8367  -54.9279 H         1 UNK         0.0600 
    238 H238       -1.8424  -19.5359  -54.9303 H         1 UNK         0.0600 
    239 H239       -3.1313  -19.5388  -53.7378 H         1 UNK         0.0600 
    240 H240       -2.0865  -17.3790  -56.7952 H         1 UNK         0.3000 
    241 H241       -1.4260  -15.2971  -56.7349 H         1 UNK         0.0600 
    242 H242       -5.0331  -14.3948  -57.9650 H         1 UNK         0.3800 
    243 H243       -4.5079  -16.0030  -57.5435 H         1 UNK         0.3800 
    244 H244       -1.5992  -13.8260  -54.7742 H         1 UNK         0.0800 
    245 H245       -2.8177  -14.8330  -54.0560 H         1 UNK         0.0800 
    246 H246       -2.2425  -17.2338  -52.8594 H         1 UNK         0.0800 
    247 H247       -2.0213  -15.7609  -51.9472 H         1 UNK         0.0800 
@<TRIPOS>BOND
     1    1    2 1    
     2    1  127 1    
     3    1  128 1    
     4    1  129 1    
     5    2    3 2    
     6    2    4 am   BACKBONE|DICT|INTERRES
     7    4    5 1    
     8    4  130 1    
     9    5    6 1    
    10    5   65 1    
    11    5  131 1    
    12    6    7 1    
    13    6  132 1    
    14    6  133 1    
    15    7    8 1    
    16    8    9 1    
    17    8  134 1    
    18    8  135 1    
    19    9   10 ar   
    20    9   14 ar   
    21   10   11 ar   
    22   10  136 1    
    23   11   12 ar   
    24   11  126 1    
    25   12   13 ar   
    26   12  137 1    
    27   13   14 ar   
    28   13   15 1    
    29   14  138 1    
    30   15   16 1    
    31   15  139 1    
    32   15  140 1    
    33   16   17 1    
    34   17   18 1    
    35   17  141 1    
    36   17  142 1    
    37   18   19 1    
    38   18   67 1    
    39   18  143 1    
    40   19   20 am   BACKBONE|DICT|INTERRES
    41   19  144 1    
    42   20   21 2    
    43   20   22 1    
    44   22   23 1    
    45   22   24 1    
    46   22  145 1    
    47   23  146 1    
    48   23  147 1    
    49   23  148 1    
    50   24   25 am   BACKBONE|DICT|INTERRES
    51   24  149 1    
    52   25   26 2    
    53   25   27 1    
    54   27   28 1    
    55   27   29 1    
    56   27  150 1    
    57   28  151 1    
    58   28  152 1    
    59   28  153 1    
    60   29   30 am   BACKBONE|DICT|INTERRES
    61   29  154 1    
    62   30   31 2    
    63   30   32 1    
    64   32   33 1    
    65   32   34 1    
    66   32  155 1    
    67   33  156 1    
    68   33  157 1    
    69   33  158 1    
    70   34   35 am   BACKBONE|DICT|INTERRES
    71   34  159 1    
    72   35   36 2    
    73   35   37 1    
    74   37   38 1    
    75   37   39 1    
    76   37  160 1    
    77   38  161 1    
    78   38  162 1    
    79   38  163 1    
    80   39   40 am   BACKBONE|DICT|INTERRES
    81   39  164 1    
    82   40   41 2    
    83   40   42 1    
    84   42   43 1    
    85   42   44 1    
    86   42  165 1    
    87   43  166 1    
    88   43  167 1    
    89   43  168 1    
    90   44   45 am   BACKBONE|DICT|INTERRES
    91   44  169 1    
    92   45   46 2    
    93   45   47 1    
    94   47   48 1    
    95   47   49 1    
    96   47  170 1    
    97   48  171 1    
    98   48  172 1    
    99   48  173 1    
   100   49   50 am   BACKBONE|DICT|INTERRES
   101   49  174 1    
   102   50   51 2    
   103   50   52 1    
   104   52   53 1    
   105   52   54 1    
   106   52  175 1    
   107   53  176 1    
   108   53  177 1    
   109   53  178 1    
   110   54   55 am   BACKBONE|DICT|INTERRES
   111   54  179 1    
   112   55   56 2    
   113   55   57 1    
   114   57   58 1    
   115   57   59 1    
   116   57  180 1    
   117   58  181 1    
   118   58  182 1    
   119   58  183 1    
   120   59   60 am   BACKBONE|DICT|INTERRES
   121   59  184 1    
   122   60   61 2    
   123   60   62 1    
   124   62   63 1    
   125   62   64 1    
   126   62  185 1    
   127   63  186 1    
   128   63  187 1    
   129   63  188 1    
   130   64   65 am   BACKBONE|DICT|INTERRES
   131   64  189 1    
   132   65   66 2    
   133   67   68 2    
   134   67   69 am   BACKBONE|DICT|INTERRES
   135   69   70 1    
   136   69  190 1    
   137   70   71 1    
   138   70   72 1    
   139   70  191 1    
   140   71  192 1    
   141   71  193 1    
   142   71  194 1    
   143   72   73 2    
   144   72   74 am   BACKBONE|DICT|INTERRES
   145   74   75 1    
   146   74  195 1    
   147   75   76 1    
   148   75   77 1    
   149   75  196 1    
   150   76  197 1    
   151   76  198 1    
   152   76  199 1    
   153   77   78 2    
   154   77   79 am   BACKBONE|DICT|INTERRES
   155   79   80 1    
   156   79  200 1    
   157   80   81 1    
   158   80   82 1    
   159   80  201 1    
   160   81  202 1    
   161   81  203 1    
   162   81  204 1    
   163   82   83 2    
   164   82   84 am   BACKBONE|DICT|INTERRES
   165   84   85 1    
   166   84  205 1    
   167   85   86 1    
   168   85   87 1    
   169   85  206 1    
   170   86  207 1    
   171   86  208 1    
   172   86  209 1    
   173   87   88 2    
   174   87   89 am   BACKBONE|DICT|INTERRES
   175   89   90 1    
   176   89  210 1    
   177   90   91 1    
   178   90   92 1    
   179   90  211 1    
   180   91  212 1    
   181   91  213 1    
   182   91  214 1    
   183   92   93 2    
   184   92   94 am   BACKBONE|DICT|INTERRES
   185   94   95 1    
   186   94  215 1    
   187   95   96 1    
   188   95   97 1    
   189   95  216 1    
   190   96  217 1    
   191   96  218 1    
   192   96  219 1    
   193   97   98 2    
   194   97   99 am   BACKBONE|DICT|INTERRES
   195   99  100 1    
   196   99  220 1    
   197  100  101 1    
   198  100  102 1    
   199  100  221 1    
   200  101  222 1    
   201  101  223 1    
   202  101  224 1    
   203  102  103 2    
   204  102  104 am   BACKBONE|DICT|INTERRES
   205  104  105 1    
   206  104  225 1    
   207  105  106 1    
   208  105  107 1    
   209  105  226 1    
   210  106  227 1    
   211  106  228 1    
   212  106  229 1    
   213  107  108 2    
   214  107  109 am   BACKBONE|DICT|INTERRES
   215  109  110 1    
   216  109  230 1    
   217  110  111 1    
   218  110  112 1    
   219  110  231 1    
   220  111  232 1    
   221  111  233 1    
   222  111  234 1    
   223  112  113 2    
   224  112  114 am   BACKBONE|DICT|INTERRES
   225  114  115 1    
   226  114  235 1    
   227  115  116 1    
   228  115  117 1    
   229  115  236 1    
   230  116  237 1    
   231  116  238 1    
   232  116  239 1    
   233  117  118 2    
   234  117  119 am   BACKBONE|DICT|INTERRES
   235  119  120 1    
   236  119  240 1    
   237  120  121 1    
   238  120  124 1    
   239  120  241 1    
   240  121  122 am   BACKBONE|DICT|INTERRES
   241  121  123 2    
   242  122  242 1    
   243  122  243 1    
   244  124  125 1    
   245  124  244 1    
   246  124  245 1    
   247  125  126 1    
   248  126  246 1    
   249  126  247 1    
@<TRIPOS>SUBSTRUCTURE
     1 UNK         1 GROUP             0       ****    0 ROOT    
