@<TRIPOS>MOLECULE
3R540
247   249    1
SMALL
USER_CHARGES


@<TRIPOS>ATOM
      1 CA          8.2004   -9.2932  -47.6209 C.3       0 UNK        -0.1800 
      2 C           6.9790  -10.1345  -47.2791 C.2       0 UNK         0.5000 
      3 O           6.8488  -10.5925  -46.1456 O.2       0 UNK        -0.5000 
      4 N           6.0872  -10.3439  -48.2541 N.am      1 UNK        -0.5000 
      5 CA          4.8260  -11.0707  -48.1038 C.3       1 UNK         0.1400 
      6 C6          4.3139  -11.5599  -49.4846 C.3       23 UNK        -0.0398 
      7 S7          2.8455  -12.6396  -49.3798 S.3       23 UNK        -0.2404 
      8 C8          3.4822  -14.2283  -50.0107 C.3       23 UNK        -0.0205 
      9 C9          2.4386  -15.3457  -50.0304 C.ar      23 UNK        -0.0193 
     10 C10         1.1011  -15.0932  -50.3613 C.ar      23 UNK        -0.1150 
     11 C11         0.1672  -16.1308  -50.3991 C.ar      23 UNK        -0.0193 
     12 C12         0.5798  -17.4384  -50.1333 C.ar      23 UNK        -0.1150 
     13 C13         1.9112  -17.7138  -49.8104 C.ar      23 UNK        -0.0193 
     14 C14         2.8313  -16.6605  -49.7551 C.ar      23 UNK        -0.1150 
     15 C15         2.3690  -19.1477  -49.5645 C.3       23 UNK        -0.0205 
     16 S16         1.7082  -19.8503  -48.0167 S.3       23 UNK        -0.2404 
     17 C17         0.0819  -20.4867  -48.5475 C.3       23 UNK        -0.0398 
     18 CA         -0.3422  -21.7627  -47.7825 C.3       11 UNK         0.1400 
     19 N          -0.4939  -21.5385  -46.3415 N.am      11 UNK        -0.5000 
     20 C          -0.7685  -22.4918  -45.4386 C.2       10 UNK         0.5000 
     21 O          -0.8460  -23.6908  -45.7052 O.2       10 UNK        -0.5000 
     22 CA         -1.0764  -22.0172  -44.0101 C.3       10 UNK         0.1400 
     23 CB          0.2149  -21.8055  -43.2057 C.3       10 UNK        -0.1800 
     24 N          -1.8710  -20.7884  -44.0234 N.am      10 UNK        -0.5000 
     25 C          -3.1714  -20.7429  -44.3457 C.2       9 UNK         0.5000 
     26 O          -3.8411  -21.7426  -44.6059 O.2       9 UNK        -0.5000 
     27 CA         -3.8265  -19.3506  -44.4246 C.3       9 UNK         0.1400 
     28 CB         -4.3185  -18.9076  -43.0390 C.3       9 UNK        -0.1800 
     29 N          -2.9329  -18.3277  -44.9697 N.am      9 UNK        -0.5000 
     30 C          -2.5129  -18.2854  -46.2416 C.2       8 UNK         0.5000 
     31 O          -2.8636  -19.0899  -47.1060 O.2       8 UNK        -0.5000 
     32 CA         -1.4906  -17.1891  -46.6000 C.3       8 UNK         0.1400 
     33 CB         -2.2091  -15.9002  -47.0236 C.3       8 UNK        -0.1800 
     34 N          -0.5287  -16.8700  -45.5400 N.am      8 UNK        -0.5000 
     35 C           0.2724  -17.7427  -44.9100 C.2       7 UNK         0.5000 
     36 O           0.1953  -18.9629  -45.0545 O.2       7 UNK        -0.5000 
     37 CA          1.3244  -17.1375  -43.9554 C.3       7 UNK         0.1400 
     38 CB          2.4336  -18.1385  -43.5730 C.3       7 UNK        -0.1800 
     39 N           1.9011  -15.8903  -44.4700 N.am      7 UNK        -0.5000 
     40 C           2.5659  -15.7246  -45.6260 C.2       6 UNK         0.5000 
     41 O           2.8518  -16.6312  -46.4050 O.2       6 UNK        -0.5000 
     42 CA          2.9952  -14.2864  -45.9455 C.3       6 UNK         0.1400 
     43 CB          1.7618  -13.3957  -46.1827 C.3       6 UNK        -0.1800 
     44 N           3.8145  -13.7609  -44.8541 N.am      6 UNK        -0.5000 
     45 C           5.1134  -14.0576  -44.6890 C.2       5 UNK         0.5000 
     46 O           5.7942  -14.6231  -45.5449 O.2       5 UNK        -0.5000 
     47 CA          5.7621  -13.7006  -43.3368 C.3       5 UNK         0.1400 
     48 CB          6.6535  -12.4559  -43.4488 C.3       5 UNK        -0.1800 
     49 N           4.7689  -13.4982  -42.2809 N.am      5 UNK        -0.5000 
     50 C           4.2330  -14.4926  -41.5581 C.2       4 UNK         0.5000 
     51 O           4.5822  -15.6687  -41.6581 O.2       4 UNK        -0.5000 
     52 CA          3.1132  -14.1297  -40.5619 C.3       4 UNK         0.1400 
     53 CB          3.6758  -14.0273  -39.1360 C.3       4 UNK        -0.1800 
     54 N           2.4072  -12.8877  -40.8822 N.am      4 UNK        -0.5000 
     55 C           1.6333  -12.6945  -41.9578 C.2       3 UNK         0.5000 
     56 O           1.4340  -13.5635  -42.8089 O.2       3 UNK        -0.5000 
     57 CA          1.0025  -11.2943  -42.1392 C.3       3 UNK         0.1400 
     58 CB          1.2767  -10.3264  -40.9659 C.3       3 UNK        -0.1800 
     59 N           1.3852  -10.6511  -43.4031 N.am      3 UNK        -0.5000 
     60 C           2.6275  -10.4765  -43.8753 C.2       2 UNK         0.5000 
     61 O           3.6418  -10.9131  -43.3280 O.2       2 UNK        -0.5000 
     62 CA          2.7666   -9.6608  -45.1665 C.3       2 UNK         0.1400 
     63 CB          3.2068   -8.2192  -44.8572 C.3       2 UNK        -0.1800 
     64 N           3.7433  -10.3127  -46.0320 N.am      2 UNK        -0.5000 
     65 C           3.8050  -10.1784  -47.3613 C.2       1 UNK         0.5000 
     66 O           3.1108   -9.3829  -47.9979 O.2       1 UNK        -0.5000 
     67 C          -1.6281  -22.3556  -48.3944 C.2       11 UNK         0.5000 
     68 O          -1.5456  -23.3337  -49.1353 O.2       11 UNK        -0.5000 
     69 N          -2.7901  -21.7881  -48.0353 N.am      12 UNK        -0.5000 
     70 CA         -4.1140  -22.2777  -48.4198 C.3       12 UNK         0.1400 
     71 CB         -5.2021  -21.3134  -47.9227 C.3       12 UNK        -0.1800 
     72 C          -4.3915  -23.6984  -47.9065 C.2       12 UNK         0.5000 
     73 O          -4.8402  -24.5385  -48.6850 O.2       12 UNK        -0.5000 
     74 N          -4.1058  -23.9471  -46.6206 N.am      13 UNK        -0.5000 
     75 CA         -4.2623  -25.2525  -45.9770 C.3       13 UNK         0.1400 
     76 CB         -3.9721  -25.1292  -44.4740 C.3       13 UNK        -0.1800 
     77 C          -3.3871  -26.3440  -46.6192 C.2       13 UNK         0.5000 
     78 O          -3.8826  -27.4433  -46.8711 O.2       13 UNK        -0.5000 
     79 N          -2.1218  -26.0063  -46.9086 N.am      14 UNK        -0.5000 
     80 CA         -1.1710  -26.8627  -47.6184 C.3       14 UNK         0.1400 
     81 CB          0.2221  -26.2159  -47.5953 C.3       14 UNK        -0.1800 
     82 C          -1.6120  -27.1619  -49.0626 C.2       14 UNK         0.5000 
     83 O          -1.5415  -28.3125  -49.4958 O.2       14 UNK        -0.5000 
     84 N          -2.1133  -26.1380  -49.7646 N.am      15 UNK        -0.5000 
     85 CA         -2.6657  -26.2162  -51.1171 C.3       15 UNK         0.1400 
     86 CB         -2.5323  -24.8386  -51.7846 C.3       15 UNK        -0.1800 
     87 C          -4.1189  -26.7381  -51.1373 C.2       15 UNK         0.5000 
     88 O          -4.9768  -26.1383  -51.7865 O.2       15 UNK        -0.5000 
     89 N          -4.3630  -27.8498  -50.4286 N.am      16 UNK        -0.5000 
     90 CA         -5.5978  -28.6414  -50.3880 C.3       16 UNK         0.1400 
     91 CB         -5.7198  -29.4756  -51.6792 C.3       16 UNK        -0.1800 
     92 C          -6.8726  -27.8267  -50.0745 C.2       16 UNK         0.5000 
     93 O          -7.9096  -28.0390  -50.7055 O.2       16 UNK        -0.5000 
     94 N          -6.7616  -26.9135  -49.0991 N.am      17 UNK        -0.5000 
     95 CA         -7.7939  -25.9765  -48.6441 C.3       17 UNK         0.1400 
     96 CB         -8.9968  -26.7208  -48.0263 C.3       17 UNK        -0.1800 
     97 C          -8.1890  -24.9717  -49.7466 C.2       17 UNK         0.5000 
     98 O          -9.3582  -24.8835  -50.1266 O.2       17 UNK        -0.5000 
     99 N          -7.1810  -24.2269  -50.2199 N.am      18 UNK        -0.5000 
    100 CA        -7.2451  -23.1520  -51.2143 C.3       18 UNK         0.1400 
    101 CB        -8.0974  -21.9724  -50.6978 C.3       18 UNK        -0.1800 
    102 C         -7.6874  -23.6387  -52.6085 C.2       18 UNK         0.5000 
    103 O         -8.5018  -22.9841  -53.2644 O.2       18 UNK        -0.5000 
    104 N         -7.1301  -24.7701  -53.0590 N.am      19 UNK        -0.5000 
    105 CA        -7.3415  -25.3293  -54.3939 C.3       19 UNK         0.1400 
    106 CB        -6.9703  -26.8218  -54.3818 C.3       19 UNK        -0.1800 
    107 C         -6.5443  -24.5280  -55.4426 C.2       19 UNK         0.5000 
    108 O         -5.4673  -24.9551  -55.8624 O.2       19 UNK        -0.5000 
    109 N         -7.0846  -23.3558  -55.8059 N.am      20 UNK        -0.5000 
    110 CA        -6.5040  -22.3391  -56.6902 C.3       20 UNK         0.1400 
    111 CB        -6.3495  -22.8737  -58.1301 C.3       20 UNK        -0.1800 
    112 C         -5.2028  -21.7425  -56.1123 C.2       20 UNK         0.5000 
    113 O         -4.2027  -21.6164  -56.8220 O.2       20 UNK        -0.5000 
    114 N         -5.2467  -21.3900  -54.8224 N.am      21 UNK        -0.5000 
    115 CA        -4.1536  -20.7835  -54.0704 C.3       21 UNK         0.1400 
    116 CB        -3.3862  -21.8799  -53.3179 C.3       21 UNK        -0.1800 
    117 C         -4.7350  -19.7589  -53.0888 C.2       21 UNK         0.5000 
    118 O         -5.8598  -19.9395  -52.6161 O.2       21 UNK        -0.5000 
    119 N         -3.9565  -18.7117  -52.8001 N.am      22 UNK        -0.5000 
    120 CA        -4.3259  -17.6145  -51.8915 C.3       22 UNK         0.1400 
    121 C         -4.1849  -17.9370  -50.3760 C.2       22 UNK         0.5000 
    122 N         -3.4323  -18.9555  -49.9786 N.am      22 UNK        -0.7600 
    123 O         -4.7622  -17.2391  -49.5478 O.2       22 UNK        -0.5000 
    124 C124       -3.5892  -16.2985  -52.2622 C.3       23 UNK        -0.0398 
    125 S125       -1.7686  -16.4604  -52.3505 S.3       23 UNK        -0.2404 
    126 C126       -1.2927  -15.8444  -50.7069 C.3       23 UNK        -0.0205 
    127 H127        8.2370   -8.4101  -46.9830 H         1 UNK         0.0600 
    128 H128        8.1881   -8.9626  -48.6597 H         1 UNK         0.0600 
    129 H129        9.1104   -9.8705  -47.4583 H         1 UNK         0.0600 
    130 H130        6.2395   -9.9161  -49.1565 H         1 UNK         0.3000 
    131 H131        5.0123  -11.9577  -47.4931 H         1 UNK         0.0600 
    132 H132        4.0707  -10.7141  -50.1300 H         1 UNK         0.0800 
    133 H133        5.1098  -12.1019  -49.9971 H         1 UNK         0.0800 
    134 H134        3.8551  -14.0861  -51.0258 H         1 UNK         0.0800 
    135 H135        4.3361  -14.5241  -49.3988 H         1 UNK         0.0800 
    136 H136        0.7815  -14.0863  -50.5883 H         1 UNK         0.1150 
    137 H137       -0.1415  -18.2397  -50.1886 H         1 UNK         0.1150 
    138 H138        3.8630  -16.8678  -49.5082 H         1 UNK         0.1150 
    139 H139        2.0955  -19.7731  -50.4150 H         1 UNK         0.0800 
    140 H140        3.4579  -19.1850  -49.5085 H         1 UNK         0.0800 
    141 H141        0.1216  -20.6946  -49.6181 H         1 UNK         0.0800 
    142 H142       -0.6566  -19.6973  -48.4170 H         1 UNK         0.0800 
    143 H143        0.4451  -22.5088  -47.9098 H         1 UNK         0.0600 
    144 H144       -0.3819  -20.5830  -46.0148 H         1 UNK         0.3000 
    145 H145       -1.6562  -22.7970  -43.5119 H         1 UNK         0.0600 
    146 H146        0.0002  -21.4486  -42.1984 H         1 UNK         0.0600 
    147 H147        0.7662  -22.7415  -43.1092 H         1 UNK         0.0600 
    148 H148        0.8801  -21.0867  -43.6834 H         1 UNK         0.0600 
    149 H149       -1.3579  -19.9216  -43.9292 H         1 UNK         0.3000 
    150 H150       -4.6936  -19.4281  -45.0837 H         1 UNK         0.0600 
    151 H151       -5.0048  -19.6424  -42.6158 H         1 UNK         0.0600 
    152 H152       -4.8538  -17.9595  -43.0952 H         1 UNK         0.0600 
    153 H153       -3.4927  -18.7868  -42.3368 H         1 UNK         0.0600 
    154 H154       -2.5874  -17.6307  -44.3269 H         1 UNK         0.3000 
    155 H155       -0.9154  -17.5499  -47.4541 H         1 UNK         0.0600 
    156 H156       -2.9603  -16.1017  -47.7879 H         1 UNK         0.0600 
    157 H157       -1.5077  -15.1771  -47.4408 H         1 UNK         0.0600 
    158 H158       -2.7197  -15.4293  -46.1829 H         1 UNK         0.0600 
    159 H159       -0.3929  -15.8893  -45.3454 H         1 UNK         0.3000 
    160 H160        0.7915  -16.8717  -43.0416 H         1 UNK         0.0600 
    161 H161        3.1727  -17.6780  -42.9180 H         1 UNK         0.0600 
    162 H162        2.9549  -18.5201  -44.4515 H         1 UNK         0.0600 
    163 H163        2.0195  -18.9950  -43.0408 H         1 UNK         0.0600 
    164 H164        1.7275  -15.0656  -43.8994 H         1 UNK         0.3000 
    165 H165        3.5828  -14.3001  -46.8657 H         1 UNK         0.0600 
    166 H166        2.0474  -12.3862  -46.4656 H         1 UNK         0.0600 
    167 H167        1.1542  -13.7941  -46.9966 H         1 UNK         0.0600 
    168 H168        1.1175  -13.3215  -45.3088 H         1 UNK         0.0600 
    169 H169        3.3225  -13.3281  -44.0839 H         1 UNK         0.3000 
    170 H170        6.4087  -14.5366  -43.0615 H         1 UNK         0.0600 
    171 H171        7.4292  -12.6000  -44.2019 H         1 UNK         0.0600 
    172 H172        6.0865  -11.5708  -43.7330 H         1 UNK         0.0600 
    173 H173        7.1540  -12.2432  -42.5042 H         1 UNK         0.0600 
    174 H174        4.4076  -12.5562  -42.1804 H         1 UNK         0.3000 
    175 H175        2.3850  -14.9433  -40.5839 H         1 UNK         0.0600 
    176 H176        4.3966  -13.2136  -39.0459 H         1 UNK         0.0600 
    177 H177        2.8816  -13.8560  -38.4091 H         1 UNK         0.0600 
    178 H178        4.1837  -14.9490  -38.8485 H         1 UNK         0.0600 
    179 H179        2.5405  -12.1171  -40.2436 H         1 UNK         0.3000 
    180 H180       -0.0749  -11.4574  -42.1879 H         1 UNK         0.0600 
    181 H181        2.3380  -10.0964  -40.8629 H         1 UNK         0.0600 
    182 H182        0.9256  -10.7381  -40.0187 H         1 UNK         0.0600 
    183 H183        0.7518   -9.3824  -41.1129 H         1 UNK         0.0600 
    184 H184        0.6146  -10.2850  -43.9442 H         1 UNK         0.3000 
    185 H185        1.7992   -9.6410  -45.6731 H         1 UNK         0.0600 
    186 H186        2.5003   -7.7304  -44.1851 H         1 UNK         0.0600 
    187 H187        4.1872   -8.1949  -44.3796 H         1 UNK         0.0600 
    188 H188        3.2617   -7.6166  -45.7638 H         1 UNK         0.0600 
    189 H189        4.3848  -10.9356  -45.5566 H         1 UNK         0.3000 
    190 H190       -2.7695  -20.9592  -47.4485 H         1 UNK         0.3000 
    191 H191       -4.1576  -22.3067  -49.5106 H         1 UNK         0.0600 
    192 H192       -5.1063  -21.1093  -46.8575 H         1 UNK         0.0600 
    193 H193       -6.1964  -21.7302  -48.0791 H         1 UNK         0.0600 
    194 H194       -5.1658  -20.3608  -48.4482 H         1 UNK         0.0600 
    195 H195       -3.7836  -23.1856  -46.0321 H         1 UNK         0.3000 
    196 H196       -5.3051  -25.5539  -46.0951 H         1 UNK         0.0600 
    197 H197       -4.1111  -26.0862  -43.9697 H         1 UNK         0.0600 
    198 H198       -4.6427  -24.4117  -44.0008 H         1 UNK         0.0600 
    199 H199       -2.9487  -24.8046  -44.2860 H         1 UNK         0.0600 
    200 H200       -1.7834  -25.0894  -46.6277 H         1 UNK         0.3000 
    201 H201       -1.1137  -27.8130  -47.0839 H         1 UNK         0.0600 
    202 H202        0.5734  -26.0751  -46.5730 H         1 UNK         0.0600 
    203 H203        0.2221  -25.2411  -48.0844 H         1 UNK         0.0600 
    204 H204        0.9532  -26.8421  -48.1080 H         1 UNK         0.0600 
    205 H205       -2.1222  -25.2156  -49.3392 H         1 UNK         0.3000 
    206 H206       -2.0688  -26.9211  -51.6991 H         1 UNK         0.0600 
    207 H207       -1.4956  -24.5022  -51.7976 H         1 UNK         0.0600 
    208 H208       -2.8784  -24.8663  -52.8186 H         1 UNK         0.0600 
    209 H209       -3.1209  -24.0892  -51.2550 H         1 UNK         0.0600 
    210 H210       -3.5793  -28.2374  -49.9151 H         1 UNK         0.3000 
    211 H211       -5.4817  -29.3398  -49.5581 H         1 UNK         0.0600 
    212 H212       -5.8375  -28.8416  -52.5572 H         1 UNK         0.0600 
    213 H213       -6.5795  -30.1453  -51.6381 H         1 UNK         0.0600 
    214 H214       -4.8363  -30.0954  -51.8318 H         1 UNK         0.0600 
    215 H215       -5.8433  -26.7733  -48.6973 H         1 UNK         0.3000 
    216 H216       -7.3401  -25.3894  -47.8444 H         1 UNK         0.0600 
    217 H217       -9.7020  -26.0158  -47.5849 H         1 UNK         0.0600 
    218 H218       -8.6763  -27.3978  -47.2345 H         1 UNK         0.0600 
    219 H219       -9.5441  -27.3050  -48.7663 H         1 UNK         0.0600 
    220 H220       -6.2552  -24.4198  -49.8420 H         1 UNK         0.3000 
    221 H221       -6.2233  -22.7884  -51.3312 H         1 UNK         0.0600 
    222 H222       -9.1516  -22.2377  -50.6157 H         1 UNK         0.0600 
    223 H223       -7.7625  -21.6328  -49.7200 H         1 UNK         0.0600 
    224 H224       -8.0302  -21.1188  -51.3730 H         1 UNK         0.0600 
    225 H225       -6.4318  -25.2419  -52.4859 H         1 UNK         0.3000 
    226 H226       -8.4021  -25.2582  -54.6446 H         1 UNK         0.0600 
    227 H227       -7.5563  -27.3658  -53.6407 H         1 UNK         0.0600 
    228 H228       -7.1646  -27.2789  -55.3526 H         1 UNK         0.0600 
    229 H229       -5.9154  -26.9751  -54.1531 H         1 UNK         0.0600 
    230 H230       -7.9337  -23.0810  -55.3242 H         1 UNK         0.3000 
    231 H231       -7.2228  -21.5192  -56.7247 H         1 UNK         0.0600 
    232 H232       -7.2916  -23.2737  -58.5051 H         1 UNK         0.0600 
    233 H233       -5.6001  -23.6629  -58.1953 H         1 UNK         0.0600 
    234 H234       -6.0426  -22.0776  -58.8093 H         1 UNK         0.0600 
    235 H235       -6.1185  -21.4621  -54.3141 H         1 UNK         0.3000 
    236 H236       -3.4741  -20.2641  -54.7498 H         1 UNK         0.0600 
    237 H237       -2.5659  -21.4616  -52.7335 H         1 UNK         0.0600 
    238 H238       -4.0416  -22.4177  -52.6327 H         1 UNK         0.0600 
    239 H239       -2.9574  -22.6048  -54.0100 H         1 UNK         0.0600 
    240 H240       -3.0389  -18.6385  -53.2159 H         1 UNK         0.3000 
    241 H241       -5.3902  -17.4208  -52.0402 H         1 UNK         0.0600 
    242 H242       -3.3340  -19.1195  -48.9825 H         1 UNK         0.3800 
    243 H243       -2.9601  -19.5389  -50.6472 H         1 UNK         0.3800 
    244 H244       -3.9307  -15.9674  -53.2437 H         1 UNK         0.0800 
    245 H245       -3.8586  -15.4914  -51.5784 H         1 UNK         0.0800 
    246 H246       -1.9046  -16.3205  -49.9424 H         1 UNK         0.0800 
    247 H247       -1.5009  -14.7751  -50.6476 H         1 UNK         0.0800 
@<TRIPOS>BOND
     1    1    2 1    
     2    1  127 1    
     3    1  128 1    
     4    1  129 1    
     5    2    3 2    
     6    2    4 am   BACKBONE|DICT|INTERRES
     7    4    5 1    
     8    4  130 1    
     9    5    6 1    
    10    5   65 1    
    11    5  131 1    
    12    6    7 1    
    13    6  132 1    
    14    6  133 1    
    15    7    8 1    
    16    8    9 1    
    17    8  134 1    
    18    8  135 1    
    19    9   10 ar   
    20    9   14 ar   
    21   10   11 ar   
    22   10  136 1    
    23   11   12 ar   
    24   11  126 1    
    25   12   13 ar   
    26   12  137 1    
    27   13   14 ar   
    28   13   15 1    
    29   14  138 1    
    30   15   16 1    
    31   15  139 1    
    32   15  140 1    
    33   16   17 1    
    34   17   18 1    
    35   17  141 1    
    36   17  142 1    
    37   18   19 1    
    38   18   67 1    
    39   18  143 1    
    40   19   20 am   BACKBONE|DICT|INTERRES
    41   19  144 1    
    42   20   21 2    
    43   20   22 1    
    44   22   23 1    
    45   22   24 1    
    46   22  145 1    
    47   23  146 1    
    48   23  147 1    
    49   23  148 1    
    50   24   25 am   BACKBONE|DICT|INTERRES
    51   24  149 1    
    52   25   26 2    
    53   25   27 1    
    54   27   28 1    
    55   27   29 1    
    56   27  150 1    
    57   28  151 1    
    58   28  152 1    
    59   28  153 1    
    60   29   30 am   BACKBONE|DICT|INTERRES
    61   29  154 1    
    62   30   31 2    
    63   30   32 1    
    64   32   33 1    
    65   32   34 1    
    66   32  155 1    
    67   33  156 1    
    68   33  157 1    
    69   33  158 1    
    70   34   35 am   BACKBONE|DICT|INTERRES
    71   34  159 1    
    72   35   36 2    
    73   35   37 1    
    74   37   38 1    
    75   37   39 1    
    76   37  160 1    
    77   38  161 1    
    78   38  162 1    
    79   38  163 1    
    80   39   40 am   BACKBONE|DICT|INTERRES
    81   39  164 1    
    82   40   41 2    
    83   40   42 1    
    84   42   43 1    
    85   42   44 1    
    86   42  165 1    
    87   43  166 1    
    88   43  167 1    
    89   43  168 1    
    90   44   45 am   BACKBONE|DICT|INTERRES
    91   44  169 1    
    92   45   46 2    
    93   45   47 1    
    94   47   48 1    
    95   47   49 1    
    96   47  170 1    
    97   48  171 1    
    98   48  172 1    
    99   48  173 1    
   100   49   50 am   BACKBONE|DICT|INTERRES
   101   49  174 1    
   102   50   51 2    
   103   50   52 1    
   104   52   53 1    
   105   52   54 1    
   106   52  175 1    
   107   53  176 1    
   108   53  177 1    
   109   53  178 1    
   110   54   55 am   BACKBONE|DICT|INTERRES
   111   54  179 1    
   112   55   56 2    
   113   55   57 1    
   114   57   58 1    
   115   57   59 1    
   116   57  180 1    
   117   58  181 1    
   118   58  182 1    
   119   58  183 1    
   120   59   60 am   BACKBONE|DICT|INTERRES
   121   59  184 1    
   122   60   61 2    
   123   60   62 1    
   124   62   63 1    
   125   62   64 1    
   126   62  185 1    
   127   63  186 1    
   128   63  187 1    
   129   63  188 1    
   130   64   65 am   BACKBONE|DICT|INTERRES
   131   64  189 1    
   132   65   66 2    
   133   67   68 2    
   134   67   69 am   BACKBONE|DICT|INTERRES
   135   69   70 1    
   136   69  190 1    
   137   70   71 1    
   138   70   72 1    
   139   70  191 1    
   140   71  192 1    
   141   71  193 1    
   142   71  194 1    
   143   72   73 2    
   144   72   74 am   BACKBONE|DICT|INTERRES
   145   74   75 1    
   146   74  195 1    
   147   75   76 1    
   148   75   77 1    
   149   75  196 1    
   150   76  197 1    
   151   76  198 1    
   152   76  199 1    
   153   77   78 2    
   154   77   79 am   BACKBONE|DICT|INTERRES
   155   79   80 1    
   156   79  200 1    
   157   80   81 1    
   158   80   82 1    
   159   80  201 1    
   160   81  202 1    
   161   81  203 1    
   162   81  204 1    
   163   82   83 2    
   164   82   84 am   BACKBONE|DICT|INTERRES
   165   84   85 1    
   166   84  205 1    
   167   85   86 1    
   168   85   87 1    
   169   85  206 1    
   170   86  207 1    
   171   86  208 1    
   172   86  209 1    
   173   87   88 2    
   174   87   89 am   BACKBONE|DICT|INTERRES
   175   89   90 1    
   176   89  210 1    
   177   90   91 1    
   178   90   92 1    
   179   90  211 1    
   180   91  212 1    
   181   91  213 1    
   182   91  214 1    
   183   92   93 2    
   184   92   94 am   BACKBONE|DICT|INTERRES
   185   94   95 1    
   186   94  215 1    
   187   95   96 1    
   188   95   97 1    
   189   95  216 1    
   190   96  217 1    
   191   96  218 1    
   192   96  219 1    
   193   97   98 2    
   194   97   99 am   BACKBONE|DICT|INTERRES
   195   99  100 1    
   196   99  220 1    
   197  100  101 1    
   198  100  102 1    
   199  100  221 1    
   200  101  222 1    
   201  101  223 1    
   202  101  224 1    
   203  102  103 2    
   204  102  104 am   BACKBONE|DICT|INTERRES
   205  104  105 1    
   206  104  225 1    
   207  105  106 1    
   208  105  107 1    
   209  105  226 1    
   210  106  227 1    
   211  106  228 1    
   212  106  229 1    
   213  107  108 2    
   214  107  109 am   BACKBONE|DICT|INTERRES
   215  109  110 1    
   216  109  230 1    
   217  110  111 1    
   218  110  112 1    
   219  110  231 1    
   220  111  232 1    
   221  111  233 1    
   222  111  234 1    
   223  112  113 2    
   224  112  114 am   BACKBONE|DICT|INTERRES
   225  114  115 1    
   226  114  235 1    
   227  115  116 1    
   228  115  117 1    
   229  115  236 1    
   230  116  237 1    
   231  116  238 1    
   232  116  239 1    
   233  117  118 2    
   234  117  119 am   BACKBONE|DICT|INTERRES
   235  119  120 1    
   236  119  240 1    
   237  120  121 1    
   238  120  124 1    
   239  120  241 1    
   240  121  122 am   BACKBONE|DICT|INTERRES
   241  121  123 2    
   242  122  242 1    
   243  122  243 1    
   244  124  125 1    
   245  124  244 1    
   246  124  245 1    
   247  125  126 1    
   248  126  246 1    
   249  126  247 1    
@<TRIPOS>SUBSTRUCTURE
     1 UNK         1 GROUP             0       ****    0 ROOT    
