@<TRIPOS>MOLECULE
3R540
247   249    1
SMALL
USER_CHARGES


@<TRIPOS>ATOM
      1 CA         -3.3343  -14.1746  -51.6805 C.3       0 UNK        -0.1800 
      2 C          -3.4418  -14.2479  -50.1643 C.2       0 UNK         0.5000 
      3 O          -2.6690  -14.9678  -49.5313 O.2       0 UNK        -0.5000 
      4 N          -4.3932  -13.5080  -49.5801 N.am      1 UNK        -0.5000 
      5 CA         -4.6972  -13.4839  -48.1437 C.3       1 UNK         0.1400 
      6 C6         -6.1592  -13.0394  -47.8493 C.3       23 UNK        -0.0398 
      7 S7         -7.4376  -13.8960  -48.8367 S.3       23 UNK        -0.2404 
      8 C8         -7.7745  -15.3902  -47.8444 C.3       23 UNK        -0.0205 
      9 C9         -6.6010  -16.3602  -47.8448 C.ar      23 UNK        -0.0193 
     10 C10        -6.0550  -16.8012  -49.0536 C.ar      23 UNK        -0.1150 
     11 C11        -4.9335  -17.6311  -49.0657 C.ar      23 UNK        -0.0193 
     12 C12        -4.3776  -18.0549  -47.8547 C.ar      23 UNK        -0.1150 
     13 C13        -4.9376  -17.6547  -46.6366 C.ar      23 UNK        -0.0193 
     14 C14        -6.0455  -16.8011  -46.6397 C.ar      23 UNK        -0.1150 
     15 C15        -4.3541  -18.1382  -45.3160 C.3       23 UNK        -0.0205 
     16 S16        -5.1345  -19.7051  -44.8092 S.3       23 UNK        -0.2404 
     17 C17        -3.7216  -20.8490  -44.5933 C.3       23 UNK        -0.0398 
     18 CA         -2.8449  -21.0967  -45.8559 C.3       11 UNK         0.1400 
     19 N          -1.4884  -21.5188  -45.4987 N.am      11 UNK        -0.5000 
     20 C          -1.1303  -22.6664  -44.9059 C.2       10 UNK         0.5000 
     21 O          -1.9099  -23.5802  -44.6339 O.2       10 UNK        -0.5000 
     22 CA          0.3501  -22.7783  -44.4934 C.3       10 UNK         0.1400 
     23 CB          1.2647  -22.9676  -45.7139 C.3       10 UNK        -0.1800 
     24 N           0.7946  -21.6076  -43.7357 N.am      10 UNK        -0.5000 
     25 C           0.3544  -21.2742  -42.5133 C.2       9 UNK         0.5000 
     26 O          -0.4191  -21.9656  -41.8498 O.2       9 UNK        -0.5000 
     27 CA          0.8447  -19.9308  -41.9413 C.3       9 UNK         0.1400 
     28 CB          2.2292  -20.0804  -41.2925 C.3       9 UNK        -0.1800 
     29 N           0.8926  -18.8767  -42.9535 N.am      9 UNK        -0.5000 
     30 C          -0.1833  -18.3412  -43.5479 C.2       8 UNK         0.5000 
     31 O          -1.3435  -18.6266  -43.2570 O.2       8 UNK        -0.5000 
     32 CA          0.0848  -17.3243  -44.6704 C.3       8 UNK         0.1400 
     33 CB          0.2897  -15.9239  -44.0743 C.3       8 UNK        -0.1800 
     34 N           1.2428  -17.6925  -45.4888 N.am      8 UNK        -0.5000 
     35 C           1.2806  -18.7503  -46.3126 C.2       7 UNK         0.5000 
     36 O           0.3338  -19.5193  -46.4750 O.2       7 UNK        -0.5000 
     37 CA          2.6154  -19.0213  -47.0345 C.3       7 UNK         0.1400 
     38 CB          2.7757  -18.1070  -48.2591 C.3       7 UNK        -0.1800 
     39 N           3.7706  -18.8303  -46.1606 N.am      7 UNK        -0.5000 
     40 C           4.0461  -19.5556  -45.0677 C.2       6 UNK         0.5000 
     41 O           3.3826  -20.5252  -44.7026 O.2       6 UNK        -0.5000 
     42 CA          5.2221  -19.0544  -44.2043 C.3       6 UNK         0.1400 
     43 CB          6.5525  -19.6296  -44.7118 C.3       6 UNK        -0.1800 
     44 N           5.2984  -17.5876  -44.1749 N.am      6 UNK        -0.5000 
     45 C           4.3373  -16.8089  -43.6616 C.2       5 UNK         0.5000 
     46 O           3.3532  -17.2565  -43.0645 O.2       5 UNK        -0.5000 
     47 CA          4.4398  -15.2985  -43.9280 C.3       5 UNK         0.1400 
     48 CB          4.1229  -15.0220  -45.4163 C.3       5 UNK        -0.1800 
     49 N           3.4782  -14.6483  -43.0393 N.am      5 UNK        -0.5000 
     50 C           3.0643  -13.3787  -43.0250 C.2       4 UNK         0.5000 
     51 O           3.4854  -12.4909  -43.7697 O.2       4 UNK        -0.5000 
     52 CA          1.9863  -13.0413  -41.9890 C.3       4 UNK         0.1400 
     53 CB          2.5913  -12.2934  -40.7865 C.3       4 UNK        -0.1800 
     54 N           0.9612  -12.2312  -42.6364 N.am      4 UNK        -0.5000 
     55 C          -0.2845  -12.0540  -42.1820 C.2       3 UNK         0.5000 
     56 O          -0.7122  -12.5531  -41.1403 O.2       3 UNK        -0.5000 
     57 CA         -1.2130  -11.1721  -43.0358 C.3       3 UNK         0.1400 
     58 CB         -0.9943   -9.6861  -42.7110 C.3       3 UNK        -0.1800 
     59 N          -1.0452  -11.3818  -44.4758 N.am      3 UNK        -0.5000 
     60 C          -1.4820  -12.4632  -45.1341 C.2       2 UNK         0.5000 
     61 O          -2.0239  -13.4272  -44.5888 O.2       2 UNK        -0.5000 
     62 CA         -1.2782  -12.4626  -46.6622 C.3       2 UNK         0.1400 
     63 CB          0.0126  -13.2043  -47.0438 C.3       2 UNK        -0.1800 
     64 N          -2.4017  -13.0742  -47.3731 N.am      2 UNK        -0.5000 
     65 C          -3.6651  -12.6303  -47.3698 C.2       1 UNK         0.5000 
     66 O          -4.0125  -11.5833  -46.8188 O.2       1 UNK        -0.5000 
     67 C          -3.5147  -21.9947  -46.9259 C.2       11 UNK         0.5000 
     68 O          -2.8640  -22.8564  -47.5232 O.2       11 UNK        -0.5000 
     69 N          -4.8026  -21.7406  -47.1893 N.am      12 UNK        -0.5000 
     70 CA         -5.6253  -22.3293  -48.2497 C.3       12 UNK         0.1400 
     71 CB         -7.0374  -21.7343  -48.1565 C.3       12 UNK        -0.1800 
     72 C          -5.6792  -23.8670  -48.2552 C.2       12 UNK         0.5000 
     73 O          -5.7701  -24.4630  -49.3281 O.2       12 UNK        -0.5000 
     74 N          -5.5439  -24.4832  -47.0726 N.am      13 UNK        -0.5000 
     75 CA         -5.4387  -25.9321  -46.8760 C.3       13 UNK         0.1400 
     76 CB         -5.3880  -26.2217  -45.3682 C.3       13 UNK        -0.1800 
     77 C          -4.2302  -26.5794  -47.5873 C.2       13 UNK         0.5000 
     78 O          -4.2824  -27.7699  -47.8983 O.2       13 UNK        -0.5000 
     79 N          -3.1822  -25.7869  -47.8444 N.am      14 UNK        -0.5000 
     80 CA         -1.9789  -26.1728  -48.5783 C.3       14 UNK         0.1400 
     81 CB         -0.7889  -26.1205  -47.6055 C.3       14 UNK        -0.1800 
     82 C          -1.7497  -25.2585  -49.7987 C.2       14 UNK         0.5000 
     83 O          -0.6293  -25.2075  -50.3083 O.2       14 UNK        -0.5000 
     84 N          -2.7840  -24.5122  -50.2229 N.am      15 UNK        -0.5000 
     85 CA         -2.7636  -23.5011  -51.2913 C.3       15 UNK         0.1400 
     86 CB         -2.6591  -24.1878  -52.6674 C.3       15 UNK        -0.1800 
     87 C          -1.6962  -22.4036  -51.0737 C.2       15 UNK         0.5000 
     88 O          -1.0528  -21.9523  -52.0226 O.2       15 UNK        -0.5000 
     89 N          -1.5016  -22.0382  -49.7993 N.am      16 UNK        -0.5000 
     90 CA         -0.4829  -21.1350  -49.2671 C.3       16 UNK         0.1400 
     91 CB         -0.7288  -19.6962  -49.7526 C.3       16 UNK        -0.1800 
     92 C           0.9445  -21.6447  -49.5395 C.2       16 UNK         0.5000 
     93 O           1.8016  -20.8790  -49.9747 O.2       16 UNK        -0.5000 
     94 N           1.1543  -22.9509  -49.3154 N.am      17 UNK        -0.5000 
     95 CA          2.3576  -23.7199  -49.6585 C.3       17 UNK         0.1400 
     96 CB          3.5837  -23.2332  -48.8560 C.3       17 UNK        -0.1800 
     97 C           2.5922  -23.7521  -51.1849 C.2       17 UNK         0.5000 
     98 O           3.7221  -23.5935  -51.6496 O.2       17 UNK        -0.5000 
     99 N           1.4894  -23.9300  -51.9278 N.am      18 UNK        -0.5000 
    100 CA         1.3617  -23.9177  -53.3896 C.3       18 UNK         0.1400 
    101 CB         2.1113  -25.1157  -54.0081 C.3       18 UNK        -0.1800 
    102 C          1.7320  -22.5753  -54.0617 C.2       18 UNK         0.5000 
    103 O          1.9708  -22.5521  -55.2708 O.2       18 UNK        -0.5000 
    104 N          1.7719  -21.4807  -53.2902 N.am      19 UNK        -0.5000 
    105 CA         2.1395  -20.1487  -53.7694 C.3       19 UNK         0.1400 
    106 CB         2.8134  -19.3714  -52.6279 C.3       19 UNK        -0.1800 
    107 C          0.9457  -19.3463  -54.3173 C.2       19 UNK         0.5000 
    108 O          1.1761  -18.3525  -55.0089 O.2       19 UNK        -0.5000 
    109 N         -0.2902  -19.7488  -53.9929 N.am      20 UNK        -0.5000 
    110 CA        -1.5092  -19.0151  -54.3276 C.3       20 UNK         0.1400 
    111 CB        -2.0158  -18.3131  -53.0587 C.3       20 UNK        -0.1800 
    112 C         -2.5854  -19.9436  -54.9094 C.2       20 UNK         0.5000 
    113 O         -2.4726  -21.1680  -54.8348 O.2       20 UNK        -0.5000 
    114 N         -3.6292  -19.3254  -55.4750 N.am      21 UNK        -0.5000 
    115 CA        -4.7696  -19.9936  -56.1078 C.3       21 UNK         0.1400 
    116 CB        -5.3606  -19.0439  -57.1634 C.3       21 UNK        -0.1800 
    117 C         -5.8593  -20.4465  -55.1120 C.2       21 UNK         0.5000 
    118 O         -6.8432  -21.0521  -55.5387 O.2       21 UNK        -0.5000 
    119 N         -5.6881  -20.1415  -53.8184 N.am      22 UNK        -0.5000 
    120 CA        -6.6181  -20.4872  -52.7282 C.3       22 UNK         0.1400 
    121 C         -6.7426  -22.0048  -52.3938 C.2       22 UNK         0.5000 
    122 N         -5.9020  -22.8806  -52.9295 N.am      22 UNK        -0.7600 
    123 O         -7.6385  -22.3952  -51.6517 O.2       22 UNK        -0.5000 
    124 C124       -6.3589  -19.6346  -51.4573 C.3       23 UNK        -0.0398 
    125 S125       -4.6469  -19.7565  -50.8273 S.3       23 UNK        -0.2404 
    126 C126       -4.2939  -18.0264  -50.3864 C.3       23 UNK        -0.0205 
    127 H127       -3.4284  -15.1716  -52.1108 H         1 UNK         0.0600 
    128 H128       -2.3646  -13.7686  -51.9681 H         1 UNK         0.0600 
    129 H129       -4.1113  -13.5433  -52.1121 H         1 UNK         0.0600 
    130 H130       -4.9886  -12.9280  -50.1535 H         1 UNK         0.3000 
    131 H131       -4.5879  -14.5006  -47.7637 H         1 UNK         0.0600 
    132 H132       -6.2771  -11.9736  -48.0525 H         1 UNK         0.0800 
    133 H133       -6.3871  -13.1693  -46.7900 H         1 UNK         0.0800 
    134 H134       -8.6460  -15.8984  -48.2589 H         1 UNK         0.0800 
    135 H135       -8.0427  -15.0951  -46.8289 H         1 UNK         0.0800 
    136 H136       -6.4805  -16.4609  -49.9871 H         1 UNK         0.1150 
    137 H137       -3.5080  -18.6940  -47.8704 H         1 UNK         0.1150 
    138 H138       -6.4719  -16.4769  -45.7007 H         1 UNK         0.1150 
    139 H139       -3.2707  -18.2327  -45.3871 H         1 UNK         0.0800 
    140 H140       -4.5298  -17.3949  -44.5369 H         1 UNK         0.0800 
    141 H141       -4.0992  -21.7955  -44.2028 H         1 UNK         0.0800 
    142 H142       -3.1084  -20.4370  -43.7918 H         1 UNK         0.0800 
    143 H143       -2.6805  -20.1454  -46.3558 H         1 UNK         0.0600 
    144 H144       -0.7608  -20.8392  -45.7068 H         1 UNK         0.3000 
    145 H145        0.4551  -23.6560  -43.8524 H         1 UNK         0.0600 
    146 H146        2.3037  -23.0901  -45.4077 H         1 UNK         0.0600 
    147 H147        0.9912  -23.8569  -46.2793 H         1 UNK         0.0600 
    148 H148        1.2196  -22.1164  -46.3928 H         1 UNK         0.0600 
    149 H149        1.4897  -21.0161  -44.1789 H         1 UNK         0.3000 
    150 H150        0.1399  -19.6208  -41.1670 H         1 UNK         0.0600 
    151 H151        2.2081  -20.8269  -40.4977 H         1 UNK         0.0600 
    152 H152        2.5605  -19.1410  -40.8494 H         1 UNK         0.0600 
    153 H153        2.9829  -20.3925  -42.0152 H         1 UNK         0.0600 
    154 H154        1.8108  -18.5242  -43.2021 H         1 UNK         0.3000 
    155 H155       -0.7916  -17.2947  -45.3215 H         1 UNK         0.0600 
    156 H156       -0.6280  -15.5684  -43.6046 H         1 UNK         0.0600 
    157 H157        0.5716  -15.1956  -44.8324 H         1 UNK         0.0600 
    158 H158        1.0603  -15.9240  -43.3061 H         1 UNK         0.0600 
    159 H159        2.0774  -17.1414  -45.3683 H         1 UNK         0.3000 
    160 H160        2.6125  -20.0597  -47.3721 H         1 UNK         0.0600 
    161 H161        3.6940  -18.3353  -48.8005 H         1 UNK         0.0600 
    162 H162        2.8032  -17.0531  -47.9792 H         1 UNK         0.0600 
    163 H163        1.9557  -18.2368  -48.9632 H         1 UNK         0.0600 
    164 H164        4.3838  -18.0621  -46.3869 H         1 UNK         0.3000 
    165 H165        5.0617  -19.4089  -43.1839 H         1 UNK         0.0600 
    166 H166        7.3804  -19.3358  -44.0662 H         1 UNK         0.0600 
    167 H167        6.5246  -20.7200  -44.7268 H         1 UNK         0.0600 
    168 H168        6.7793  -19.2928  -45.7240 H         1 UNK         0.0600 
    169 H169        6.0868  -17.1627  -44.6421 H         1 UNK         0.3000 
    170 H170        5.4467  -14.9580  -43.6812 H         1 UNK         0.0600 
    171 H171        4.7431  -15.6267  -46.0786 H         1 UNK         0.0600 
    172 H172        3.0808  -15.2353  -45.6553 H         1 UNK         0.0600 
    173 H173        4.3180  -13.9839  -45.6825 H         1 UNK         0.0600 
    174 H174        3.0619  -15.3092  -42.3933 H         1 UNK         0.3000 
    175 H175        1.5299  -13.9697  -41.6385 H         1 UNK         0.0600 
    176 H176        3.0225  -11.3372  -41.0854 H         1 UNK         0.0600 
    177 H177        1.8416  -12.0971  -40.0201 H         1 UNK         0.0600 
    178 H178        3.3833  -12.8808  -40.3204 H         1 UNK         0.0600 
    179 H179        1.2431  -11.8046  -43.5091 H         1 UNK         0.3000 
    180 H180       -2.2424  -11.4247  -42.7719 H         1 UNK         0.0600 
    181 H181        0.0119   -9.3581  -42.9749 H         1 UNK         0.0600 
    182 H182       -1.1324   -9.4953  -41.6458 H         1 UNK         0.0600 
    183 H183       -1.7048   -9.0565  -43.2469 H         1 UNK         0.0600 
    184 H184       -0.6098  -10.6317  -44.9930 H         1 UNK         0.3000 
    185 H185       -1.1953  -11.4275  -46.9998 H         1 UNK         0.0600 
    186 H186        0.8677  -12.8330  -46.4771 H         1 UNK         0.0600 
    187 H187       -0.0705  -14.2750  -46.8567 H         1 UNK         0.0600 
    188 H188        0.2413  -13.0716  -48.1014 H         1 UNK         0.0600 
    189 H189       -2.2089  -13.9212  -47.8985 H         1 UNK         0.3000 
    190 H190       -5.2517  -21.0152  -46.6438 H         1 UNK         0.3000 
    191 H191       -5.1879  -22.0310  -49.2022 H         1 UNK         0.0600 
    192 H192       -7.0148  -20.6497  -48.2663 H         1 UNK         0.0600 
    193 H193       -7.6822  -22.1274  -48.9430 H         1 UNK         0.0600 
    194 H194       -7.5079  -21.9650  -47.2000 H         1 UNK         0.0600 
    195 H195       -5.4518  -23.9095  -46.2474 H         1 UNK         0.3000 
    196 H196       -6.3418  -26.3887  -47.2857 H         1 UNK         0.0600 
    197 H197       -5.3353  -27.2944  -45.1771 H         1 UNK         0.0600 
    198 H198       -6.2783  -25.8467  -44.8630 H         1 UNK         0.0600 
    199 H199       -4.5160  -25.7615  -44.9010 H         1 UNK         0.0600 
    200 H200       -3.2193  -24.8144  -47.5518 H         1 UNK         0.3000 
    201 H201       -2.0675  -27.1898  -48.9646 H         1 UNK         0.0600 
    202 H202       -0.9374  -26.8016  -46.7675 H         1 UNK         0.0600 
    203 H203       -0.6620  -25.1176  -47.1995 H         1 UNK         0.0600 
    204 H204        0.1437  -26.4067  -48.0934 H         1 UNK         0.0600 
    205 H205       -3.6770  -24.6353  -49.7602 H         1 UNK         0.3000 
    206 H206       -3.7235  -22.9869  -51.2446 H         1 UNK         0.0600 
    207 H207       -3.4907  -24.8743  -52.8243 H         1 UNK         0.0600 
    208 H208       -2.6851  -23.4595  -53.4777 H         1 UNK         0.0600 
    209 H209       -1.7372  -24.7591  -52.7662 H         1 UNK         0.0600 
    210 H210       -2.0782  -22.4836  -49.0878 H         1 UNK         0.3000 
    211 H211       -0.6144  -21.1511  -48.1870 H         1 UNK         0.0600 
    212 H212       -1.7712  -19.4214  -49.6130 H         1 UNK         0.0600 
    213 H213       -0.4774  -19.5733  -50.8059 H         1 UNK         0.0600 
    214 H214       -0.1347  -18.9836  -49.1851 H         1 UNK         0.0600 
    215 H215        0.3611  -23.5085  -49.0317 H         1 UNK         0.3000 
    216 H216        2.1572  -24.7497  -49.3593 H         1 UNK         0.0600 
    217 H217        4.4360  -23.8953  -49.0115 H         1 UNK         0.0600 
    218 H218        3.3763  -23.2185  -47.7866 H         1 UNK         0.0600 
    219 H219        3.8947  -22.2306  -49.1503 H         1 UNK         0.0600 
    220 H220        0.6228  -24.0959  -51.4253 H         1 UNK         0.3000 
    221 H221        0.3012  -24.0571  -53.5960 H         1 UNK         0.0600 
    222 H222        3.1918  -25.0136  -53.9052 H         1 UNK         0.0600 
    223 H223        1.8153  -26.0520  -53.5349 H         1 UNK         0.0600 
    224 H224        1.8922  -25.2100  -55.0722 H         1 UNK         0.0600 
    225 H225        1.5362  -21.5643  -52.3098 H         1 UNK         0.3000 
    226 H226        2.8691  -20.2482  -54.5759 H         1 UNK         0.0600 
    227 H227        2.1010  -19.1090  -51.8453 H         1 UNK         0.0600 
    228 H228        3.6183  -19.9485  -52.1719 H         1 UNK         0.0600 
    229 H229        3.2467  -18.4404  -52.9949 H         1 UNK         0.0600 
    230 H230       -0.4251  -20.6054  -53.4622 H         1 UNK         0.3000 
    231 H231       -1.3039  -18.2571  -55.0862 H         1 UNK         0.0600 
    232 H232       -1.2699  -17.6236  -52.6629 H         1 UNK         0.0600 
    233 H233       -2.2416  -19.0408  -52.2810 H         1 UNK         0.0600 
    234 H234       -2.9210  -17.7359  -53.2489 H         1 UNK         0.0600 
    235 H235       -3.6481  -18.3156  -55.4894 H         1 UNK         0.3000 
    236 H236       -4.4130  -20.8889  -56.6215 H         1 UNK         0.0600 
    237 H237       -4.6110  -18.7598  -57.9023 H         1 UNK         0.0600 
    238 H238       -6.1811  -19.5173  -57.7043 H         1 UNK         0.0600 
    239 H239       -5.7497  -18.1311  -56.7105 H         1 UNK         0.0600 
    240 H240       -4.8423  -19.6668  -53.5422 H         1 UNK         0.3000 
    241 H241       -7.6119  -20.2077  -53.0832 H         1 UNK         0.0600 
    242 H242       -5.1853  -22.5776  -53.5682 H         1 UNK         0.3800 
    243 H243       -6.0130  -23.8583  -52.7144 H         1 UNK         0.3800 
    244 H244       -6.5806  -18.5918  -51.6856 H         1 UNK         0.0800 
    245 H245       -7.0474  -19.9047  -50.6552 H         1 UNK         0.0800 
    246 H246       -4.6210  -17.3665  -51.1909 H         1 UNK         0.0800 
    247 H247       -3.2177  -17.8766  -50.3112 H         1 UNK         0.0800 
@<TRIPOS>BOND
     1    1    2 1    
     2    1  127 1    
     3    1  128 1    
     4    1  129 1    
     5    2    3 2    
     6    2    4 am   BACKBONE|DICT|INTERRES
     7    4    5 1    
     8    4  130 1    
     9    5    6 1    
    10    5   65 1    
    11    5  131 1    
    12    6    7 1    
    13    6  132 1    
    14    6  133 1    
    15    7    8 1    
    16    8    9 1    
    17    8  134 1    
    18    8  135 1    
    19    9   10 ar   
    20    9   14 ar   
    21   10   11 ar   
    22   10  136 1    
    23   11   12 ar   
    24   11  126 1    
    25   12   13 ar   
    26   12  137 1    
    27   13   14 ar   
    28   13   15 1    
    29   14  138 1    
    30   15   16 1    
    31   15  139 1    
    32   15  140 1    
    33   16   17 1    
    34   17   18 1    
    35   17  141 1    
    36   17  142 1    
    37   18   19 1    
    38   18   67 1    
    39   18  143 1    
    40   19   20 am   BACKBONE|DICT|INTERRES
    41   19  144 1    
    42   20   21 2    
    43   20   22 1    
    44   22   23 1    
    45   22   24 1    
    46   22  145 1    
    47   23  146 1    
    48   23  147 1    
    49   23  148 1    
    50   24   25 am   BACKBONE|DICT|INTERRES
    51   24  149 1    
    52   25   26 2    
    53   25   27 1    
    54   27   28 1    
    55   27   29 1    
    56   27  150 1    
    57   28  151 1    
    58   28  152 1    
    59   28  153 1    
    60   29   30 am   BACKBONE|DICT|INTERRES
    61   29  154 1    
    62   30   31 2    
    63   30   32 1    
    64   32   33 1    
    65   32   34 1    
    66   32  155 1    
    67   33  156 1    
    68   33  157 1    
    69   33  158 1    
    70   34   35 am   BACKBONE|DICT|INTERRES
    71   34  159 1    
    72   35   36 2    
    73   35   37 1    
    74   37   38 1    
    75   37   39 1    
    76   37  160 1    
    77   38  161 1    
    78   38  162 1    
    79   38  163 1    
    80   39   40 am   BACKBONE|DICT|INTERRES
    81   39  164 1    
    82   40   41 2    
    83   40   42 1    
    84   42   43 1    
    85   42   44 1    
    86   42  165 1    
    87   43  166 1    
    88   43  167 1    
    89   43  168 1    
    90   44   45 am   BACKBONE|DICT|INTERRES
    91   44  169 1    
    92   45   46 2    
    93   45   47 1    
    94   47   48 1    
    95   47   49 1    
    96   47  170 1    
    97   48  171 1    
    98   48  172 1    
    99   48  173 1    
   100   49   50 am   BACKBONE|DICT|INTERRES
   101   49  174 1    
   102   50   51 2    
   103   50   52 1    
   104   52   53 1    
   105   52   54 1    
   106   52  175 1    
   107   53  176 1    
   108   53  177 1    
   109   53  178 1    
   110   54   55 am   BACKBONE|DICT|INTERRES
   111   54  179 1    
   112   55   56 2    
   113   55   57 1    
   114   57   58 1    
   115   57   59 1    
   116   57  180 1    
   117   58  181 1    
   118   58  182 1    
   119   58  183 1    
   120   59   60 am   BACKBONE|DICT|INTERRES
   121   59  184 1    
   122   60   61 2    
   123   60   62 1    
   124   62   63 1    
   125   62   64 1    
   126   62  185 1    
   127   63  186 1    
   128   63  187 1    
   129   63  188 1    
   130   64   65 am   BACKBONE|DICT|INTERRES
   131   64  189 1    
   132   65   66 2    
   133   67   68 2    
   134   67   69 am   BACKBONE|DICT|INTERRES
   135   69   70 1    
   136   69  190 1    
   137   70   71 1    
   138   70   72 1    
   139   70  191 1    
   140   71  192 1    
   141   71  193 1    
   142   71  194 1    
   143   72   73 2    
   144   72   74 am   BACKBONE|DICT|INTERRES
   145   74   75 1    
   146   74  195 1    
   147   75   76 1    
   148   75   77 1    
   149   75  196 1    
   150   76  197 1    
   151   76  198 1    
   152   76  199 1    
   153   77   78 2    
   154   77   79 am   BACKBONE|DICT|INTERRES
   155   79   80 1    
   156   79  200 1    
   157   80   81 1    
   158   80   82 1    
   159   80  201 1    
   160   81  202 1    
   161   81  203 1    
   162   81  204 1    
   163   82   83 2    
   164   82   84 am   BACKBONE|DICT|INTERRES
   165   84   85 1    
   166   84  205 1    
   167   85   86 1    
   168   85   87 1    
   169   85  206 1    
   170   86  207 1    
   171   86  208 1    
   172   86  209 1    
   173   87   88 2    
   174   87   89 am   BACKBONE|DICT|INTERRES
   175   89   90 1    
   176   89  210 1    
   177   90   91 1    
   178   90   92 1    
   179   90  211 1    
   180   91  212 1    
   181   91  213 1    
   182   91  214 1    
   183   92   93 2    
   184   92   94 am   BACKBONE|DICT|INTERRES
   185   94   95 1    
   186   94  215 1    
   187   95   96 1    
   188   95   97 1    
   189   95  216 1    
   190   96  217 1    
   191   96  218 1    
   192   96  219 1    
   193   97   98 2    
   194   97   99 am   BACKBONE|DICT|INTERRES
   195   99  100 1    
   196   99  220 1    
   197  100  101 1    
   198  100  102 1    
   199  100  221 1    
   200  101  222 1    
   201  101  223 1    
   202  101  224 1    
   203  102  103 2    
   204  102  104 am   BACKBONE|DICT|INTERRES
   205  104  105 1    
   206  104  225 1    
   207  105  106 1    
   208  105  107 1    
   209  105  226 1    
   210  106  227 1    
   211  106  228 1    
   212  106  229 1    
   213  107  108 2    
   214  107  109 am   BACKBONE|DICT|INTERRES
   215  109  110 1    
   216  109  230 1    
   217  110  111 1    
   218  110  112 1    
   219  110  231 1    
   220  111  232 1    
   221  111  233 1    
   222  111  234 1    
   223  112  113 2    
   224  112  114 am   BACKBONE|DICT|INTERRES
   225  114  115 1    
   226  114  235 1    
   227  115  116 1    
   228  115  117 1    
   229  115  236 1    
   230  116  237 1    
   231  116  238 1    
   232  116  239 1    
   233  117  118 2    
   234  117  119 am   BACKBONE|DICT|INTERRES
   235  119  120 1    
   236  119  240 1    
   237  120  121 1    
   238  120  124 1    
   239  120  241 1    
   240  121  122 am   BACKBONE|DICT|INTERRES
   241  121  123 2    
   242  122  242 1    
   243  122  243 1    
   244  124  125 1    
   245  124  244 1    
   246  124  245 1    
   247  125  126 1    
   248  126  246 1    
   249  126  247 1    
@<TRIPOS>SUBSTRUCTURE
     1 UNK         1 GROUP             0       ****    0 ROOT    
