@<TRIPOS>MOLECULE
3R540
247   249    1
SMALL
USER_CHARGES


@<TRIPOS>ATOM
      1 CA          7.8334  -17.7490  -48.3467 C.3       0 UNK        -0.1800 
      2 C           6.3649  -17.4484  -48.0845 C.2       0 UNK         0.5000 
      3 O           5.6454  -18.3113  -47.5834 O.2       0 UNK        -0.5000 
      4 N           5.9249  -16.2249  -48.4066 N.am      1 UNK        -0.5000 
      5 CA          4.5590  -15.7003  -48.2579 C.3       1 UNK         0.1400 
      6 C6          4.3686  -14.4689  -49.1853 C.3       23 UNK        -0.0398 
      7 S7          2.6285  -14.1093  -49.6113 S.3       23 UNK        -0.2404 
      8 C8          2.5461  -14.5706  -51.3754 C.3       23 UNK        -0.0205 
      9 C9          1.8052  -15.8833  -51.5630 C.ar      23 UNK        -0.0193 
     10 C10         0.4904  -15.8827  -52.0351 C.ar      23 UNK        -0.1150 
     11 C11        -0.2238  -17.0772  -52.1511 C.ar      23 UNK        -0.0193 
     12 C12         0.3858  -18.2798  -51.7847 C.ar      23 UNK        -0.1150 
     13 C13         1.7060  -18.2960  -51.3261 C.ar      23 UNK        -0.0193 
     14 C14         2.4185  -17.0958  -51.2380 C.ar      23 UNK        -0.1150 
     15 C15         2.3401  -19.6087  -50.8859 C.3       23 UNK        -0.0205 
     16 S16         2.9515  -19.5691  -49.1661 S.3       23 UNK        -0.2404 
     17 C17         1.5231  -18.9244  -48.2272 C.3       23 UNK        -0.0398 
     18 CA          0.7061  -20.0168  -47.5041 C.3       11 UNK         0.1400 
     19 N          -0.1729  -19.4230  -46.4999 N.am      11 UNK        -0.5000 
     20 C          -0.9164  -20.0948  -45.6147 C.2       10 UNK         0.5000 
     21 O          -0.9077  -21.3185  -45.4989 O.2       10 UNK        -0.5000 
     22 CA         -1.8673  -19.2558  -44.7481 C.3       10 UNK         0.1400 
     23 CB         -1.1190  -18.6328  -43.5630 C.3       10 UNK        -0.1800 
     24 N          -2.5357  -18.2093  -45.5231 N.am      10 UNK        -0.5000 
     25 C          -3.4740  -18.4447  -46.4503 C.2       9 UNK         0.5000 
     26 O          -3.8977  -19.5669  -46.7275 O.2       9 UNK        -0.5000 
     27 CA         -3.9995  -17.2301  -47.2330 C.3       9 UNK         0.1400 
     28 CB         -5.1480  -16.5373  -46.4897 C.3       9 UNK        -0.1800 
     29 N          -2.9504  -16.2617  -47.5457 N.am      9 UNK        -0.5000 
     30 C          -2.0116  -16.4700  -48.4799 C.2       8 UNK         0.5000 
     31 O          -1.9566  -17.4875  -49.1710 O.2       8 UNK        -0.5000 
     32 CA         -0.9324  -15.3817  -48.6411 C.3       8 UNK         0.1400 
     33 CB         -1.4316  -14.2670  -49.5721 C.3       8 UNK        -0.1800 
     34 N          -0.5001  -14.7778  -47.3791 N.am      8 UNK        -0.5000 
     35 C          -0.0373  -15.4459  -46.3149 C.2       7 UNK         0.5000 
     36 O           0.0660  -16.6690  -46.2828 O.2       7 UNK        -0.5000 
     37 CA          0.3340  -14.6299  -45.0631 C.3       7 UNK         0.1400 
     38 CB          0.5591  -13.1281  -45.3430 C.3       7 UNK        -0.1800 
     39 N          -0.6324  -14.7999  -43.9730 N.am      7 UNK        -0.5000 
     40 C          -1.9578  -14.5781  -44.0066 C.2       6 UNK         0.5000 
     41 O          -2.5796  -14.3169  -45.0380 O.2       6 UNK        -0.5000 
     42 CA         -2.7342  -14.6484  -42.6709 C.3       6 UNK         0.1400 
     43 CB         -3.8273  -15.7281  -42.7061 C.3       6 UNK        -0.1800 
     44 N          -1.8788  -14.8672  -41.5012 N.am      6 UNK        -0.5000 
     45 C          -1.1415  -13.9169  -40.9087 C.2       5 UNK         0.5000 
     46 O          -1.1464  -12.7366  -41.2598 O.2       5 UNK        -0.5000 
     47 CA         -0.2314  -14.3486  -39.7389 C.3       5 UNK         0.1400 
     48 CB         -0.8695  -13.9601  -38.3960 C.3       5 UNK        -0.1800 
     49 N           0.1140  -15.7755  -39.7010 N.am      5 UNK        -0.5000 
     50 C           0.7661  -16.4482  -40.6583 C.2       4 UNK         0.5000 
     51 O           1.0784  -15.9521  -41.7448 O.2       4 UNK        -0.5000 
     52 CA          1.1159  -17.9142  -40.3474 C.3       4 UNK         0.1400 
     53 CB         -0.1272  -18.7522  -39.9862 C.3       4 UNK        -0.1800 
     54 N           1.8100  -18.4833  -41.4975 N.am      4 UNK        -0.5000 
     55 C           2.6280  -19.5397  -41.4942 C.2       3 UNK         0.5000 
     56 O           2.8116  -20.2538  -40.5077 O.2       3 UNK        -0.5000 
     57 CA          3.4236  -19.8231  -42.7863 C.3       3 UNK         0.1400 
     58 CB          2.6090  -20.6717  -43.7843 C.3       3 UNK        -0.1800 
     59 N           3.9858  -18.6136  -43.4096 N.am      3 UNK        -0.5000 
     60 C           3.3416  -17.6288  -44.0518 C.2       2 UNK         0.5000 
     61 O           2.1344  -17.6413  -44.2740 O.2       2 UNK        -0.5000 
     62 CA          4.1609  -16.4076  -44.4907 C.3       2 UNK         0.1400 
     63 CB          5.5512  -16.3006  -43.8317 C.3       2 UNK        -0.1800 
     64 N           4.3159  -16.4510  -45.9370 N.am      2 UNK        -0.5000 
     65 C           4.2188  -15.4135  -46.7721 C.2       1 UNK         0.5000 
     66 O           3.9283  -14.2748  -46.4019 O.2       1 UNK        -0.5000 
     67 C          -0.0823  -20.9060  -48.4888 C.2       11 UNK         0.5000 
     68 O           0.3457  -22.0262  -48.7661 O.2       11 UNK        -0.5000 
     69 N          -1.2454  -20.4240  -48.9556 N.am      12 UNK        -0.5000 
     70 CA         -2.1674  -21.1944  -49.7906 C.3       12 UNK         0.1400 
     71 CB         -3.3048  -20.2941  -50.2830 C.3       12 UNK        -0.1800 
     72 C          -2.7318  -22.4288  -49.0659 C.2       12 UNK         0.5000 
     73 O          -2.7436  -23.5118  -49.6484 O.2       12 UNK        -0.5000 
     74 N          -3.1414  -22.2602  -47.8002 N.am      13 UNK        -0.5000 
     75 CA         -3.6254  -23.3444  -46.9438 C.3       13 UNK         0.1400 
     76 CB         -4.1806  -22.7655  -45.6343 C.3       13 UNK        -0.1800 
     77 C          -2.5496  -24.4126  -46.6678 C.2       13 UNK         0.5000 
     78 O          -2.8514  -25.6041  -46.7332 O.2       13 UNK        -0.5000 
     79 N          -1.3050  -23.9770  -46.4240 N.am      14 UNK        -0.5000 
     80 CA         -0.1285  -24.8371  -46.2667 C.3       14 UNK         0.1400 
     81 CB          1.0647  -23.9921  -45.7937 C.3       14 UNK        -0.1800 
     82 C           0.2254  -25.6162  -47.5497 C.2       14 UNK         0.5000 
     83 O           0.6670  -26.7622  -47.4624 O.2       14 UNK        -0.5000 
     84 N          -0.0183  -25.0012  -48.7147 N.am      15 UNK        -0.5000 
     85 CA          0.1008  -25.6126  -50.0408 C.3       15 UNK         0.1400 
     86 CB          0.2991  -24.4986  -51.0832 C.3       15 UNK        -0.1800 
     87 C          -1.0975  -26.5153  -50.4160 C.2       15 UNK         0.5000 
     88 O          -1.0810  -27.1067  -51.4963 O.2       15 UNK        -0.5000 
     89 N          -2.1058  -26.6069  -49.5347 N.am      16 UNK        -0.5000 
     90 CA         -3.3548  -27.3652  -49.6640 C.3       16 UNK         0.1400 
     91 CB         -3.0817  -28.8792  -49.7895 C.3       16 UNK        -0.1800 
     92 C          -4.3006  -26.8243  -50.7577 C.2       16 UNK         0.5000 
     93 O          -5.1102  -27.5807  -51.2985 O.2       16 UNK        -0.5000 
     94 N          -4.2050  -25.5216  -51.0448 N.am      17 UNK        -0.5000 
     95 CA         -5.1172  -24.7780  -51.9079 C.3       17 UNK         0.1400 
     96 CB         -4.2950  -23.7692  -52.7284 C.3       17 UNK        -0.1800 
     97 C          -6.1775  -24.0537  -51.0580 C.2       17 UNK         0.5000 
     98 O          -6.0843  -24.0245  -49.8272 O.2       17 UNK        -0.5000 
     99 N          -7.1668  -23.4594  -51.7367 N.am      18 UNK        -0.5000 
    100 CA        -8.1426  -22.5491  -51.1351 C.3       18 UNK         0.1400 
    101 CB        -9.2715  -22.2889  -52.1437 C.3       18 UNK        -0.1800 
    102 C         -7.4792  -21.2278  -50.6989 C.2       18 UNK         0.5000 
    103 O         -6.4621  -20.8352  -51.2770 O.2       18 UNK        -0.5000 
    104 N         -8.0709  -20.5696  -49.6931 N.am      19 UNK        -0.5000 
    105 CA        -7.5747  -19.3505  -49.0496 C.3       19 UNK         0.1400 
    106 CB        -8.5880  -18.8895  -47.9897 C.3       19 UNK        -0.1800 
    107 C         -7.2544  -18.2183  -50.0463 C.2       19 UNK         0.5000 
    108 O         -8.1682  -17.6079  -50.6032 O.2       19 UNK        -0.5000 
    109 N         -5.9499  -17.9985  -50.2537 N.am      20 UNK        -0.5000 
    110 CA        -5.3269  -17.0139  -51.1415 C.3       20 UNK         0.1400 
    111 CB        -5.6894  -15.5737  -50.7250 C.3       20 UNK        -0.1800 
    112 C         -5.5417  -17.2874  -52.6466 C.2       20 UNK         0.5000 
    113 O         -5.3616  -16.3763  -53.4552 O.2       20 UNK        -0.5000 
    114 N         -5.8740  -18.5359  -53.0125 N.am      21 UNK        -0.5000 
    115 CA        -5.9262  -18.9917  -54.4072 C.3       21 UNK         0.1400 
    116 CB        -6.8336  -20.2263  -54.5059 C.3       21 UNK        -0.1800 
    117 C         -4.5254  -19.3044  -54.9718 C.2       21 UNK         0.5000 
    118 O         -4.3380  -19.2740  -56.1880 O.2       21 UNK        -0.5000 
    119 N         -3.5770  -19.5936  -54.0707 N.am      22 UNK        -0.5000 
    120 CA        -2.1426  -19.8343  -54.3165 C.3       22 UNK         0.1400 
    121 C         -1.7976  -21.1918  -55.0007 C.2       22 UNK         0.5000 
    122 N         -2.7557  -22.0689  -55.2688 N.am      22 UNK        -0.7600 
    123 O         -0.6316  -21.4693  -55.2664 O.2       22 UNK        -0.5000 
    124 C124       -1.4025  -18.6472  -55.0077 C.3       23 UNK        -0.0398 
    125 S125       -1.8109  -16.9575  -54.4323 S.3       23 UNK        -0.2404 
    126 C126       -1.6682  -17.0529  -52.6223 C.3       23 UNK        -0.0205 
    127 H127        7.9263  -18.5958  -49.0267 H         1 UNK         0.0600 
    128 H128        8.3361  -18.0030  -47.4135 H         1 UNK         0.0600 
    129 H129        8.3498  -16.8976  -48.7910 H         1 UNK         0.0600 
    130 H130        6.5939  -15.5639  -48.7751 H         1 UNK         0.3000 
    131 H131        3.8735  -16.4821  -48.5911 H         1 UNK         0.0600 
    132 H132        4.8108  -13.5734  -48.7453 H         1 UNK         0.0800 
    133 H133        4.9216  -14.6220  -50.1120 H         1 UNK         0.0800 
    134 H134        3.5370  -14.6384  -51.8245 H         1 UNK         0.0800 
    135 H135        2.0335  -13.7711  -51.9123 H         1 UNK         0.0800 
    136 H136        0.0119  -14.9487  -52.2943 H         1 UNK         0.1150 
    137 H137       -0.1721  -19.2026  -51.8349 H         1 UNK         0.1150 
    138 H138        3.4362  -17.1024  -50.8746 H         1 UNK         0.1150 
    139 H139        1.6336  -20.4342  -50.9855 H         1 UNK         0.0800 
    140 H140        3.1738  -19.8383  -51.5504 H         1 UNK         0.0800 
    141 H141        0.8772  -18.3052  -48.8497 H         1 UNK         0.0800 
    142 H142        1.9409  -18.2428  -47.4843 H         1 UNK         0.0800 
    143 H143        1.4040  -20.6612  -46.9652 H         1 UNK         0.0600 
    144 H144       -0.1883  -18.4037  -46.4635 H         1 UNK         0.3000 
    145 H145       -2.6288  -19.9290  -44.3488 H         1 UNK         0.0600 
    146 H146       -1.8131  -18.2186  -42.8355 H         1 UNK         0.0600 
    147 H147       -0.5182  -19.3818  -43.0461 H         1 UNK         0.0600 
    148 H148       -0.4481  -17.8345  -43.8781 H         1 UNK         0.0600 
    149 H149       -2.1772  -17.2707  -45.4254 H         1 UNK         0.3000 
    150 H150       -4.3983  -17.6089  -48.1721 H         1 UNK         0.0600 
    151 H151       -5.9306  -17.2489  -46.2234 H         1 UNK         0.0600 
    152 H152       -5.6067  -15.7654  -47.1077 H         1 UNK         0.0600 
    153 H153       -4.8016  -16.0665  -45.5717 H         1 UNK         0.0600 
    154 H154       -2.9029  -15.4250  -46.9757 H         1 UNK         0.3000 
    155 H155       -0.0600  -15.8533  -49.0973 H         1 UNK         0.0600 
    156 H156       -2.2412  -13.6951  -49.1172 H         1 UNK         0.0600 
    157 H157       -0.6274  -13.5742  -49.8211 H         1 UNK         0.0600 
    158 H158       -1.8097  -14.6727  -50.5092 H         1 UNK         0.0600 
    159 H159       -0.5816  -13.7744  -47.3103 H         1 UNK         0.3000 
    160 H160        1.2772  -15.0412  -44.7038 H         1 UNK         0.0600 
    161 H161       -0.3580  -12.6193  -45.6414 H         1 UNK         0.0600 
    162 H162        1.2977  -12.9824  -46.1328 H         1 UNK         0.0600 
    163 H163        0.9389  -12.6237  -44.4544 H         1 UNK         0.0600 
    164 H164       -0.2201  -15.0840  -43.0905 H         1 UNK         0.3000 
    165 H165       -3.2340  -13.6855  -42.5468 H         1 UNK         0.0600 
    166 H166       -4.2910  -15.8583  -41.7280 H         1 UNK         0.0600 
    167 H167       -4.6218  -15.4441  -43.3951 H         1 UNK         0.0600 
    168 H168       -3.4436  -16.6940  -43.0288 H         1 UNK         0.0600 
    169 H169       -1.8162  -15.8108  -41.1494 H         1 UNK         0.3000 
    170 H170        0.7024  -13.7927  -39.8441 H         1 UNK         0.0600 
    171 H171       -1.1120  -12.8968  -38.3695 H         1 UNK         0.0600 
    172 H172       -1.7930  -14.5118  -38.2161 H         1 UNK         0.0600 
    173 H173       -0.1922  -14.1563  -37.5646 H         1 UNK         0.0600 
    174 H174       -0.1155  -16.2588  -38.8446 H         1 UNK         0.3000 
    175 H175        1.8029  -17.9110  -39.4989 H         1 UNK         0.0600 
    176 H176       -0.9015  -18.6829  -40.7473 H         1 UNK         0.0600 
    177 H177        0.1223  -19.8057  -39.8609 H         1 UNK         0.0600 
    178 H178       -0.5670  -18.4187  -39.0461 H         1 UNK         0.0600 
    179 H179        1.7352  -17.9331  -42.3508 H         1 UNK         0.3000 
    180 H180        4.2874  -20.4210  -42.4914 H         1 UNK         0.0600 
    181 H181        1.6874  -20.1773  -44.0884 H         1 UNK         0.0600 
    182 H182        2.3278  -21.6274  -43.3408 H         1 UNK         0.0600 
    183 H183        3.1851  -20.8869  -44.6842 H         1 UNK         0.0600 
    184 H184        4.9776  -18.4896  -43.2623 H         1 UNK         0.3000 
    185 H185        3.5809  -15.5298  -44.1995 H         1 UNK         0.0600 
    186 H186        5.4749  -16.3080  -42.7435 H         1 UNK         0.0600 
    187 H187        6.2117  -17.1150  -44.1322 H         1 UNK         0.0600 
    188 H188        6.0388  -15.3662  -44.1103 H         1 UNK         0.0600 
    189 H189        4.5826  -17.3489  -46.3347 H         1 UNK         0.3000 
    190 H190       -1.5209  -19.4756  -48.7249 H         1 UNK         0.3000 
    191 H191       -1.6102  -21.5420  -50.6631 H         1 UNK         0.0600 
    192 H192       -3.9470  -19.9737  -49.4631 H         1 UNK         0.0600 
    193 H193       -3.9238  -20.8257  -51.0041 H         1 UNK         0.0600 
    194 H194       -2.9194  -19.4060  -50.7759 H         1 UNK         0.0600 
    195 H195       -3.1365  -21.3291  -47.3973 H         1 UNK         0.3000 
    196 H196       -4.4476  -23.8345  -47.4698 H         1 UNK         0.0600 
    197 H197       -4.5794  -23.5556  -44.9971 H         1 UNK         0.0600 
    198 H198       -4.9913  -22.0627  -45.8277 H         1 UNK         0.0600 
    199 H199       -3.4126  -22.2416  -45.0658 H         1 UNK         0.0600 
    200 H200       -1.1511  -22.9762  -46.3215 H         1 UNK         0.3000 
    201 H201       -0.3550  -25.5692  -45.4890 H         1 UNK         0.0600 
    202 H202        0.8462  -23.4954  -44.8482 H         1 UNK         0.0600 
    203 H203        1.3277  -23.2236  -46.5206 H         1 UNK         0.0600 
    204 H204        1.9473  -24.6137  -45.6387 H         1 UNK         0.0600 
    205 H205       -0.3261  -24.0349  -48.6946 H         1 UNK         0.3000 
    206 H206        0.9920  -26.2431  -50.0514 H         1 UNK         0.0600 
    207 H207        1.1607  -23.8772  -50.8380 H         1 UNK         0.0600 
    208 H208        0.4725  -24.9153  -52.0759 H         1 UNK         0.0600 
    209 H209       -0.5728  -23.8483  -51.1504 H         1 UNK         0.0600 
    210 H210       -2.0330  -26.0601  -48.6854 H         1 UNK         0.3000 
    211 H211       -3.8858  -27.2139  -48.7236 H         1 UNK         0.0600 
    212 H212       -2.6304  -29.1335  -50.7486 H         1 UNK         0.0600 
    213 H213       -4.0064  -29.4510  -49.7043 H         1 UNK         0.0600 
    214 H214       -2.4144  -29.2261  -49.0005 H         1 UNK         0.0600 
    215 H215       -3.5662  -24.9466  -50.4991 H         1 UNK         0.3000 
    216 H216       -5.6279  -25.4548  -52.5958 H         1 UNK         0.0600 
    217 H217       -4.9229  -23.2325  -53.4397 H         1 UNK         0.0600 
    218 H218       -3.5146  -24.2717  -53.3001 H         1 UNK         0.0600 
    219 H219       -3.8137  -23.0260  -52.0930 H         1 UNK         0.0600 
    220 H220       -7.1656  -23.5079  -52.7443 H         1 UNK         0.3000 
    221 H221       -8.5674  -23.0323  -50.2526 H         1 UNK         0.0600 
    222 H222       -8.8954  -21.8503  -53.0675 H         1 UNK         0.0600 
    223 H223       -9.7892  -23.2132  -52.4004 H         1 UNK         0.0600 
    224 H224      -10.0156  -21.6045  -51.7343 H         1 UNK         0.0600 
    225 H225       -8.9207  -20.9524  -49.3057 H         1 UNK         0.3000 
    226 H226       -6.6550  -19.6191  -48.5248 H         1 UNK         0.0600 
    227 H227       -8.7277  -19.6484  -47.2196 H         1 UNK         0.0600 
    228 H228       -8.2453  -17.9819  -47.4909 H         1 UNK         0.0600 
    229 H229       -9.5623  -18.6740  -48.4302 H         1 UNK         0.0600 
    230 H230       -5.3026  -18.6230  -49.7966 H         1 UNK         0.3000 
    231 H231       -4.2541  -17.1240  -50.9804 H         1 UNK         0.0600 
    232 H232       -5.0963  -14.8449  -51.2787 H         1 UNK         0.0600 
    233 H233       -5.4919  -15.4085  -49.6659 H         1 UNK         0.0600 
    234 H234       -6.7395  -15.3489  -50.9120 H         1 UNK         0.0600 
    235 H235       -6.0490  -19.2384  -52.2983 H         1 UNK         0.3000 
    236 H236       -6.3639  -18.2030  -55.0227 H         1 UNK         0.0600 
    237 H237       -7.8334  -20.0040  -54.1335 H         1 UNK         0.0600 
    238 H238       -6.9377  -20.5525  -55.5414 H         1 UNK         0.0600 
    239 H239       -6.4379  -21.0672  -53.9360 H         1 UNK         0.0600 
    240 H240       -3.8644  -19.6256  -53.1054 H         1 UNK         0.3000 
    241 H241       -1.7169  -19.9410  -53.3206 H         1 UNK         0.0600 
    242 H242       -3.7185  -21.8452  -55.0825 H         1 UNK         0.3800 
    243 H243       -2.5156  -22.9447  -55.7050 H         1 UNK         0.3800 
    244 H244       -0.3235  -18.7746  -54.9052 H         1 UNK         0.0800 
    245 H245       -1.6011  -18.6672  -56.0805 H         1 UNK         0.0800 
    246 H246       -2.1709  -16.1832  -52.2006 H         1 UNK         0.0800 
    247 H247       -2.2128  -17.9134  -52.2452 H         1 UNK         0.0800 
@<TRIPOS>BOND
     1    1    2 1    
     2    1  127 1    
     3    1  128 1    
     4    1  129 1    
     5    2    3 2    
     6    2    4 am   BACKBONE|DICT|INTERRES
     7    4    5 1    
     8    4  130 1    
     9    5    6 1    
    10    5   65 1    
    11    5  131 1    
    12    6    7 1    
    13    6  132 1    
    14    6  133 1    
    15    7    8 1    
    16    8    9 1    
    17    8  134 1    
    18    8  135 1    
    19    9   10 ar   
    20    9   14 ar   
    21   10   11 ar   
    22   10  136 1    
    23   11   12 ar   
    24   11  126 1    
    25   12   13 ar   
    26   12  137 1    
    27   13   14 ar   
    28   13   15 1    
    29   14  138 1    
    30   15   16 1    
    31   15  139 1    
    32   15  140 1    
    33   16   17 1    
    34   17   18 1    
    35   17  141 1    
    36   17  142 1    
    37   18   19 1    
    38   18   67 1    
    39   18  143 1    
    40   19   20 am   BACKBONE|DICT|INTERRES
    41   19  144 1    
    42   20   21 2    
    43   20   22 1    
    44   22   23 1    
    45   22   24 1    
    46   22  145 1    
    47   23  146 1    
    48   23  147 1    
    49   23  148 1    
    50   24   25 am   BACKBONE|DICT|INTERRES
    51   24  149 1    
    52   25   26 2    
    53   25   27 1    
    54   27   28 1    
    55   27   29 1    
    56   27  150 1    
    57   28  151 1    
    58   28  152 1    
    59   28  153 1    
    60   29   30 am   BACKBONE|DICT|INTERRES
    61   29  154 1    
    62   30   31 2    
    63   30   32 1    
    64   32   33 1    
    65   32   34 1    
    66   32  155 1    
    67   33  156 1    
    68   33  157 1    
    69   33  158 1    
    70   34   35 am   BACKBONE|DICT|INTERRES
    71   34  159 1    
    72   35   36 2    
    73   35   37 1    
    74   37   38 1    
    75   37   39 1    
    76   37  160 1    
    77   38  161 1    
    78   38  162 1    
    79   38  163 1    
    80   39   40 am   BACKBONE|DICT|INTERRES
    81   39  164 1    
    82   40   41 2    
    83   40   42 1    
    84   42   43 1    
    85   42   44 1    
    86   42  165 1    
    87   43  166 1    
    88   43  167 1    
    89   43  168 1    
    90   44   45 am   BACKBONE|DICT|INTERRES
    91   44  169 1    
    92   45   46 2    
    93   45   47 1    
    94   47   48 1    
    95   47   49 1    
    96   47  170 1    
    97   48  171 1    
    98   48  172 1    
    99   48  173 1    
   100   49   50 am   BACKBONE|DICT|INTERRES
   101   49  174 1    
   102   50   51 2    
   103   50   52 1    
   104   52   53 1    
   105   52   54 1    
   106   52  175 1    
   107   53  176 1    
   108   53  177 1    
   109   53  178 1    
   110   54   55 am   BACKBONE|DICT|INTERRES
   111   54  179 1    
   112   55   56 2    
   113   55   57 1    
   114   57   58 1    
   115   57   59 1    
   116   57  180 1    
   117   58  181 1    
   118   58  182 1    
   119   58  183 1    
   120   59   60 am   BACKBONE|DICT|INTERRES
   121   59  184 1    
   122   60   61 2    
   123   60   62 1    
   124   62   63 1    
   125   62   64 1    
   126   62  185 1    
   127   63  186 1    
   128   63  187 1    
   129   63  188 1    
   130   64   65 am   BACKBONE|DICT|INTERRES
   131   64  189 1    
   132   65   66 2    
   133   67   68 2    
   134   67   69 am   BACKBONE|DICT|INTERRES
   135   69   70 1    
   136   69  190 1    
   137   70   71 1    
   138   70   72 1    
   139   70  191 1    
   140   71  192 1    
   141   71  193 1    
   142   71  194 1    
   143   72   73 2    
   144   72   74 am   BACKBONE|DICT|INTERRES
   145   74   75 1    
   146   74  195 1    
   147   75   76 1    
   148   75   77 1    
   149   75  196 1    
   150   76  197 1    
   151   76  198 1    
   152   76  199 1    
   153   77   78 2    
   154   77   79 am   BACKBONE|DICT|INTERRES
   155   79   80 1    
   156   79  200 1    
   157   80   81 1    
   158   80   82 1    
   159   80  201 1    
   160   81  202 1    
   161   81  203 1    
   162   81  204 1    
   163   82   83 2    
   164   82   84 am   BACKBONE|DICT|INTERRES
   165   84   85 1    
   166   84  205 1    
   167   85   86 1    
   168   85   87 1    
   169   85  206 1    
   170   86  207 1    
   171   86  208 1    
   172   86  209 1    
   173   87   88 2    
   174   87   89 am   BACKBONE|DICT|INTERRES
   175   89   90 1    
   176   89  210 1    
   177   90   91 1    
   178   90   92 1    
   179   90  211 1    
   180   91  212 1    
   181   91  213 1    
   182   91  214 1    
   183   92   93 2    
   184   92   94 am   BACKBONE|DICT|INTERRES
   185   94   95 1    
   186   94  215 1    
   187   95   96 1    
   188   95   97 1    
   189   95  216 1    
   190   96  217 1    
   191   96  218 1    
   192   96  219 1    
   193   97   98 2    
   194   97   99 am   BACKBONE|DICT|INTERRES
   195   99  100 1    
   196   99  220 1    
   197  100  101 1    
   198  100  102 1    
   199  100  221 1    
   200  101  222 1    
   201  101  223 1    
   202  101  224 1    
   203  102  103 2    
   204  102  104 am   BACKBONE|DICT|INTERRES
   205  104  105 1    
   206  104  225 1    
   207  105  106 1    
   208  105  107 1    
   209  105  226 1    
   210  106  227 1    
   211  106  228 1    
   212  106  229 1    
   213  107  108 2    
   214  107  109 am   BACKBONE|DICT|INTERRES
   215  109  110 1    
   216  109  230 1    
   217  110  111 1    
   218  110  112 1    
   219  110  231 1    
   220  111  232 1    
   221  111  233 1    
   222  111  234 1    
   223  112  113 2    
   224  112  114 am   BACKBONE|DICT|INTERRES
   225  114  115 1    
   226  114  235 1    
   227  115  116 1    
   228  115  117 1    
   229  115  236 1    
   230  116  237 1    
   231  116  238 1    
   232  116  239 1    
   233  117  118 2    
   234  117  119 am   BACKBONE|DICT|INTERRES
   235  119  120 1    
   236  119  240 1    
   237  120  121 1    
   238  120  124 1    
   239  120  241 1    
   240  121  122 am   BACKBONE|DICT|INTERRES
   241  121  123 2    
   242  122  242 1    
   243  122  243 1    
   244  124  125 1    
   245  124  244 1    
   246  124  245 1    
   247  125  126 1    
   248  126  246 1    
   249  126  247 1    
@<TRIPOS>SUBSTRUCTURE
     1 UNK         1 GROUP             0       ****    0 ROOT    
