@<TRIPOS>MOLECULE
3R540
247   249    1
SMALL
USER_CHARGES


@<TRIPOS>ATOM
      1 CA          5.1882  -13.3331  -47.5205 C.3       0 UNK        -0.1800 
      2 C           3.7947  -12.7332  -47.4050 C.2       0 UNK         0.5000 
      3 O           3.4821  -11.7601  -48.0919 O.2       0 UNK        -0.5000 
      4 N           2.9451  -13.3242  -46.5593 N.am      1 UNK        -0.5000 
      5 CA          1.5267  -13.0020  -46.4228 C.3       1 UNK         0.1400 
      6 C6          0.9441  -13.6014  -45.1243 C.3       23 UNK        -0.0398 
      7 S7         -0.6789  -12.8902  -44.6846 S.3       23 UNK        -0.2404 
      8 C8         -1.5003  -14.3196  -43.9149 C.3       23 UNK        -0.0205 
      9 C9         -2.3598  -15.1033  -44.8969 C.ar      23 UNK        -0.0193 
     10 C10        -3.7524  -15.0818  -44.7805 C.ar      23 UNK        -0.1150 
     11 C11        -4.5575  -15.8488  -45.6284 C.ar      23 UNK        -0.0193 
     12 C12        -3.9480  -16.6471  -46.6049 C.ar      23 UNK        -0.1150 
     13 C13        -2.5610  -16.6367  -46.7667 C.ar      23 UNK        -0.0193 
     14 C14        -1.7732  -15.8748  -45.9021 C.ar      23 UNK        -0.1150 
     15 C15        -1.9093  -17.3980  -47.9086 C.3       23 UNK        -0.0205 
     16 S16        -0.7094  -18.6340  -47.3288 S.3       23 UNK        -0.2404 
     17 C17        -1.8176  -20.0238  -46.9615 C.3       23 UNK        -0.0398 
     18 CA         -1.0336  -21.3381  -46.7527 C.3       11 UNK         0.1400 
     19 N          -0.2015  -21.3365  -45.5455 N.am      11 UNK        -0.5000 
     20 C           0.6806  -22.2991  -45.2354 C.2       10 UNK         0.5000 
     21 O           0.9664  -23.2312  -45.9857 O.2       10 UNK        -0.5000 
     22 CA          1.2930  -22.2584  -43.8241 C.3       10 UNK         0.1400 
     23 CB          2.5442  -21.3693  -43.7711 C.3       10 UNK        -0.1800 
     24 N           0.3209  -21.8117  -42.8272 N.am      10 UNK        -0.5000 
     25 C          -0.7224  -22.5466  -42.4153 C.2       9 UNK         0.5000 
     26 O          -0.9413  -23.6960  -42.7982 O.2       9 UNK        -0.5000 
     27 CA         -1.7085  -21.8668  -41.4472 C.3       9 UNK         0.1400 
     28 CB         -1.2245  -22.0079  -39.9965 C.3       9 UNK        -0.1800 
     29 N          -1.9118  -20.4500  -41.7535 N.am      9 UNK        -0.5000 
     30 C          -2.5037  -19.9892  -42.8651 C.2       8 UNK         0.5000 
     31 O          -2.9915  -20.7174  -43.7276 O.2       8 UNK        -0.5000 
     32 CA         -2.5066  -18.4619  -43.0677 C.3       8 UNK         0.1400 
     33 CB         -3.7552  -17.8454  -42.4201 C.3       8 UNK        -0.1800 
     34 N          -1.3094  -17.8086  -42.5294 N.am      8 UNK        -0.5000 
     35 C          -0.0580  -18.0450  -42.9451 C.2       7 UNK         0.5000 
     36 O           0.2314  -18.8427  -43.8404 O.2       7 UNK        -0.5000 
     37 CA          1.0537  -17.3233  -42.1752 C.3       7 UNK         0.1400 
     38 CB          1.2618  -17.9781  -40.7955 C.3       7 UNK        -0.1800 
     39 N           2.2962  -17.3797  -42.9379 N.am      7 UNK        -0.5000 
     40 C           3.3396  -16.5598  -42.7668 C.2       6 UNK         0.5000 
     41 O           3.3428  -15.6244  -41.9654 O.2       6 UNK        -0.5000 
     42 CA          4.6059  -16.8262  -43.6062 C.3       6 UNK         0.1400 
     43 CB          5.6545  -17.5671  -42.7616 C.3       6 UNK        -0.1800 
     44 N           4.3794  -17.5842  -44.8394 N.am      6 UNK        -0.5000 
     45 C           3.7255  -17.1160  -45.9083 C.2       5 UNK         0.5000 
     46 O           3.1814  -16.0126  -45.9392 O.2       5 UNK        -0.5000 
     47 CA          3.6937  -18.0293  -47.1406 C.3       5 UNK         0.1400 
     48 CB          2.9478  -19.3452  -46.8439 C.3       5 UNK        -0.1800 
     49 N           3.0676  -17.3420  -48.2703 N.am      5 UNK        -0.5000 
     50 C           3.2951  -17.6508  -49.5532 C.2       4 UNK         0.5000 
     51 O           4.1231  -18.4879  -49.9160 O.2       4 UNK        -0.5000 
     52 CA          2.4527  -16.9301  -50.6137 C.3       4 UNK         0.1400 
     53 CB          0.9767  -17.3301  -50.4941 C.3       4 UNK        -0.1800 
     54 N           2.5597  -15.4773  -50.5124 N.am      4 UNK        -0.5000 
     55 C           3.2400  -14.7077  -51.3750 C.2       3 UNK         0.5000 
     56 O           3.9704  -15.1647  -52.2562 O.2       3 UNK        -0.5000 
     57 CA          3.0779  -13.1736  -51.2504 C.3       3 UNK         0.1400 
     58 CB          3.1499  -12.4557  -52.6142 C.3       3 UNK        -0.1800 
     59 N           1.8801  -12.7626  -50.5092 N.am      3 UNK        -0.5000 
     60 C           0.5927  -13.0116  -50.8082 C.2       2 UNK         0.5000 
     61 O           0.2236  -13.5176  -51.8685 O.2       2 UNK        -0.5000 
     62 CA         -0.4531  -12.6667  -49.7189 C.3       2 UNK         0.1400 
     63 CB         -1.6341  -13.6588  -49.7100 C.3       2 UNK        -0.1800 
     64 N           0.1263  -12.5424  -48.3728 N.am      2 UNK        -0.5000 
     65 C           0.7980  -13.4840  -47.6925 C.2       1 UNK         0.5000 
     66 O           0.9499  -14.6466  -48.0806 O.2       1 UNK        -0.5000 
     67 C          -1.9954  -22.5397  -46.7704 C.2       11 UNK         0.5000 
     68 O          -2.0629  -23.2329  -47.7841 O.2       11 UNK        -0.5000 
     69 N          -2.6978  -22.7895  -45.6560 N.am      12 UNK        -0.5000 
     70 CA         -3.6201  -23.9156  -45.4850 C.3       12 UNK         0.1400 
     71 CB         -4.3142  -23.8197  -44.1188 C.3       12 UNK        -0.1800 
     72 C          -2.9353  -25.2831  -45.6621 C.2       12 UNK         0.5000 
     73 O          -3.4698  -26.1398  -46.3674 O.2       12 UNK        -0.5000 
     74 N          -1.7344  -25.4333  -45.0843 N.am      13 UNK        -0.5000 
     75 CA         -0.8651  -26.6029  -45.2456 C.3       13 UNK         0.1400 
     76 CB          0.3306  -26.4773  -44.2899 C.3       13 UNK        -0.1800 
     77 C          -0.3791  -26.8174  -46.6949 C.2       13 UNK         0.5000 
     78 O          -0.1285  -27.9569  -47.0875 O.2       13 UNK        -0.5000 
     79 N          -0.2945  -25.7303  -47.4717 N.am      14 UNK        -0.5000 
     80 CA          0.0416  -25.7097  -48.8950 C.3       14 UNK         0.1400 
     81 CB          0.8868  -24.4551  -49.1825 C.3       14 UNK        -0.1800 
     82 C          -1.2111  -25.7784  -49.7966 C.2       14 UNK         0.5000 
     83 O          -1.1563  -25.3203  -50.9384 O.2       14 UNK        -0.5000 
     84 N          -2.3197  -26.3320  -49.2794 N.am      15 UNK        -0.5000 
     85 CA         -3.6136  -26.5191  -49.9472 C.3       15 UNK         0.1400 
     86 CB         -3.4902  -27.5223  -51.1136 C.3       15 UNK        -0.1800 
     87 C          -4.2509  -25.1802  -50.3671 C.2       15 UNK         0.5000 
     88 O          -4.6125  -24.9954  -51.5309 O.2       15 UNK        -0.5000 
     89 N          -4.3299  -24.2546  -49.4008 N.am      16 UNK        -0.5000 
     90 CA         -4.7828  -22.8662  -49.5416 C.3       16 UNK         0.1400 
     91 CB         -6.2904  -22.8044  -49.8644 C.3       16 UNK        -0.1800 
     92 C          -3.9131  -22.0866  -50.5470 C.2       16 UNK         0.5000 
     93 O          -4.4423  -21.4199  -51.4358 O.2       16 UNK        -0.5000 
     94 N          -2.5877  -22.2304  -50.4012 N.am      17 UNK        -0.5000 
     95 CA         -1.5361  -21.6887  -51.2673 C.3       17 UNK         0.1400 
     96 CB         -1.4496  -20.1568  -51.1061 C.3       17 UNK        -0.1800 
     97 C          -1.7078  -22.1321  -52.7356 C.2       17 UNK         0.5000 
     98 O          -1.7330  -21.2940  -53.6364 O.2       17 UNK        -0.5000 
     99 N          -1.8822  -23.4462  -52.9391 N.am      18 UNK        -0.5000 
    100 CA        -2.2162  -24.1043  -54.2079 C.3       18 UNK         0.1400 
    101 CB        -1.0142  -24.0640  -55.1739 C.3       18 UNK        -0.1800 
    102 C         -3.5183  -23.5518  -54.8307 C.2       18 UNK         0.5000 
    103 O         -3.5676  -23.2635  -56.0278 O.2       18 UNK        -0.5000 
    104 N         -4.5391  -23.3925  -53.9773 N.am      19 UNK        -0.5000 
    105 CA        -5.8702  -22.8413  -54.2459 C.3       19 UNK         0.1400 
    106 CB        -6.6400  -23.7293  -55.2458 C.3       19 UNK        -0.1800 
    107 C         -5.8976  -21.3452  -54.6375 C.2       19 UNK         0.5000 
    108 O         -6.9269  -20.8757  -55.1267 O.2       19 UNK        -0.5000 
    109 N         -4.8057  -20.6032  -54.3972 N.am      20 UNK        -0.5000 
    110 CA        -4.7462  -19.1491  -54.5852 C.3       20 UNK         0.1400 
    111 CB        -3.2814  -18.7007  -54.6899 C.3       20 UNK        -0.1800 
    112 C         -5.4613  -18.3727  -53.4610 C.2       20 UNK         0.5000 
    113 O         -5.8938  -17.2415  -53.6901 O.2       20 UNK        -0.5000 
    114 N         -5.5775  -18.9956  -52.2794 N.am      21 UNK        -0.5000 
    115 CA        -6.1833  -18.4815  -51.0523 C.3       21 UNK         0.1400 
    116 CB        -7.7104  -18.3202  -51.2283 C.3       21 UNK        -0.1800 
    117 C         -5.4645  -17.2228  -50.5190 C.2       21 UNK         0.5000 
    118 O         -4.2424  -17.1189  -50.6380 O.2       21 UNK        -0.5000 
    119 N         -6.2267  -16.3142  -49.9030 N.am      22 UNK        -0.5000 
    120 CA        -5.7364  -15.1040  -49.2217 C.3       22 UNK         0.1400 
    121 C         -5.4897  -13.8882  -50.1640 C.2       22 UNK         0.5000 
    122 N         -5.6515  -14.0145  -51.4757 N.am      22 UNK        -0.7600 
    123 O         -5.1425  -12.8068  -49.6981 O.2       22 UNK        -0.5000 
    124 C124       -6.6439  -14.7197  -48.0184 C.3       23 UNK        -0.0398 
    125 S125       -7.0657  -16.1331  -46.9323 S.3       23 UNK        -0.2404 
    126 C126       -6.0729  -15.8076  -45.4346 C.3       23 UNK        -0.0205 
    127 H127        5.3558  -13.6991  -48.5333 H         1 UNK         0.0600 
    128 H128        5.3270  -14.1666  -46.8310 H         1 UNK         0.0600 
    129 H129        5.9423  -12.5782  -47.2985 H         1 UNK         0.0600 
    130 H130        3.2123  -14.2131  -46.1401 H         1 UNK         0.3000 
    131 H131        1.4470  -11.9146  -46.3554 H         1 UNK         0.0600 
    132 H132        0.8987  -14.6884  -45.1847 H         1 UNK         0.0800 
    133 H133        1.6156  -13.3874  -44.2915 H         1 UNK         0.0800 
    134 H134       -2.1125  -13.9544  -43.0889 H         1 UNK         0.0800 
    135 H135       -0.7600  -14.9806  -43.4655 H         1 UNK         0.0800 
    136 H136       -4.2132  -14.4804  -44.0094 H         1 UNK         0.1150 
    137 H137       -4.5511  -17.2529  -47.2653 H         1 UNK         0.1150 
    138 H138       -0.7012  -15.8922  -46.0238 H         1 UNK         0.1150 
    139 H139       -2.6533  -17.8708  -48.5509 H         1 UNK         0.0800 
    140 H140       -1.3920  -16.6746  -48.5339 H         1 UNK         0.0800 
    141 H141       -2.5109  -20.1250  -47.7989 H         1 UNK         0.0800 
    142 H142       -2.4215  -19.7743  -46.0897 H         1 UNK         0.0800 
    143 H143       -0.3623  -21.4631  -47.6056 H         1 UNK         0.0600 
    144 H144       -0.3254  -20.5613  -44.9038 H         1 UNK         0.3000 
    145 H145        1.5982  -23.2752  -43.5673 H         1 UNK         0.0600 
    146 H146        2.9847  -21.3674  -42.7741 H         1 UNK         0.0600 
    147 H147        2.3242  -20.3379  -44.0408 H         1 UNK         0.0600 
    148 H148        3.3056  -21.7350  -44.4608 H         1 UNK         0.0600 
    149 H149        0.3952  -20.8535  -42.5200 H         1 UNK         0.3000 
    150 H150       -2.6703  -22.3755  -41.5380 H         1 UNK         0.0600 
    151 H151       -1.0800  -23.0568  -39.7342 H         1 UNK         0.0600 
    152 H152       -1.9520  -21.5966  -39.2965 H         1 UNK         0.0600 
    153 H153       -0.2754  -21.4951  -39.8352 H         1 UNK         0.0600 
    154 H154       -1.5472  -19.7824  -41.0909 H         1 UNK         0.3000 
    155 H155       -2.5399  -18.2644  -44.1409 H         1 UNK         0.0600 
    156 H156       -4.6640  -18.2452  -42.8719 H         1 UNK         0.0600 
    157 H157       -3.7786  -16.7642  -42.5487 H         1 UNK         0.0600 
    158 H158       -3.7998  -18.0532  -41.3503 H         1 UNK         0.0600 
    159 H159       -1.4610  -17.1554  -41.7747 H         1 UNK         0.3000 
    160 H160        0.7577  -16.2804  -42.0467 H         1 UNK         0.0600 
    161 H161        1.5697  -19.0204  -40.8892 H         1 UNK         0.0600 
    162 H162        0.3471  -17.9565  -40.2021 H         1 UNK         0.0600 
    163 H163        2.0264  -17.4569  -40.2194 H         1 UNK         0.0600 
    164 H164        2.3205  -18.0883  -43.6591 H         1 UNK         0.3000 
    165 H165        5.0189  -15.8535  -43.8821 H         1 UNK         0.0600 
    166 H166        6.5919  -17.6818  -43.3063 H         1 UNK         0.0600 
    167 H167        5.8790  -17.0187  -41.8457 H         1 UNK         0.0600 
    168 H168        5.3084  -18.5603  -42.4726 H         1 UNK         0.0600 
    169 H169        4.8016  -18.5001  -44.8843 H         1 UNK         0.3000 
    170 H170        4.7304  -18.2559  -47.3982 H         1 UNK         0.0600 
    171 H171        1.9810  -19.1632  -46.3744 H         1 UNK         0.0600 
    172 H172        2.7743  -19.9287  -47.7480 H         1 UNK         0.0600 
    173 H173        3.5274  -19.9739  -46.1694 H         1 UNK         0.0600 
    174 H174        2.4147  -16.6065  -48.0227 H         1 UNK         0.3000 
    175 H175        2.7986  -17.2715  -51.5917 H         1 UNK         0.0600 
    176 H176        0.5422  -16.9466  -49.5738 H         1 UNK         0.0600 
    177 H177        0.3906  -16.9430  -51.3278 H         1 UNK         0.0600 
    178 H178        0.8653  -18.4141  -50.4833 H         1 UNK         0.0600 
    179 H179        2.0028  -15.0375  -49.7869 H         1 UNK         0.3000 
    180 H180        3.9285  -12.8329  -50.6592 H         1 UNK         0.0600 
    181 H181        2.3771  -12.8060  -53.2987 H         1 UNK         0.0600 
    182 H182        4.1131  -12.6258  -53.0965 H         1 UNK         0.0600 
    183 H183        3.0337  -11.3781  -52.4991 H         1 UNK         0.0600 
    184 H184        2.0761  -12.3281  -49.6146 H         1 UNK         0.3000 
    185 H185       -0.8478  -11.6823  -49.9738 H         1 UNK         0.0600 
    186 H186       -1.2906  -14.6876  -49.6148 H         1 UNK         0.0600 
    187 H187       -2.3217  -13.4557  -48.8887 H         1 UNK         0.0600 
    188 H188       -2.2066  -13.5942  -50.6359 H         1 UNK         0.0600 
    189 H189        0.0824  -11.6137  -47.9763 H         1 UNK         0.3000 
    190 H190       -2.6342  -22.1359  -44.8788 H         1 UNK         0.3000 
    191 H191       -4.3875  -23.8286  -46.2565 H         1 UNK         0.0600 
    192 H192       -4.8532  -22.8777  -44.0156 H         1 UNK         0.0600 
    193 H193       -3.6016  -23.8889  -43.2974 H         1 UNK         0.0600 
    194 H194       -5.0390  -24.6248  -43.9924 H         1 UNK         0.0600 
    195 H195       -1.3886  -24.6925  -44.4816 H         1 UNK         0.3000 
    196 H196       -1.4401  -27.4856  -44.9590 H         1 UNK         0.0600 
    197 H197        0.0011  -26.3982  -43.2537 H         1 UNK         0.0600 
    198 H198        0.9347  -25.5984  -44.5168 H         1 UNK         0.0600 
    199 H199        0.9808  -27.3502  -44.3589 H         1 UNK         0.0600 
    200 H200       -0.5259  -24.8323  -47.0658 H         1 UNK         0.3000 
    201 H201        0.6516  -26.5821  -49.1364 H         1 UNK         0.0600 
    202 H202        1.7738  -24.4263  -48.5495 H         1 UNK         0.0600 
    203 H203        0.3232  -23.5396  -49.0039 H         1 UNK         0.0600 
    204 H204        1.2291  -24.4356  -50.2178 H         1 UNK         0.0600 
    205 H205       -2.2892  -26.6213  -48.3104 H         1 UNK         0.3000 
    206 H206       -4.2823  -26.9582  -49.2054 H         1 UNK         0.0600 
    207 H207       -3.0592  -28.4654  -50.7779 H         1 UNK         0.0600 
    208 H208       -2.8664  -27.1369  -51.9206 H         1 UNK         0.0600 
    209 H209       -4.4693  -27.7460  -51.5387 H         1 UNK         0.0600 
    210 H210       -3.9116  -24.4844  -48.5093 H         1 UNK         0.3000 
    211 H211       -4.6358  -22.3877  -48.5727 H         1 UNK         0.0600 
    212 H212       -6.5178  -23.2368  -50.8387 H         1 UNK         0.0600 
    213 H213       -6.6458  -21.7735  -49.8751 H         1 UNK         0.0600 
    214 H214       -6.8742  -23.3408  -49.1166 H         1 UNK         0.0600 
    215 H215       -2.2713  -22.8046  -49.6246 H         1 UNK         0.3000 
    216 H216       -0.5923  -22.1147  -50.9247 H         1 UNK         0.0600 
    217 H217       -0.6575  -19.7436  -51.7308 H         1 UNK         0.0600 
    218 H218       -1.2281  -19.8825  -50.0757 H         1 UNK         0.0600 
    219 H219       -2.3784  -19.6611  -51.3904 H         1 UNK         0.0600 
    220 H220       -1.8053  -24.0701  -52.1376 H         1 UNK         0.3000 
    221 H221       -2.4120  -25.1500  -53.9659 H         1 UNK         0.0600 
    222 H222       -0.7824  -23.0469  -55.4912 H         1 UNK         0.0600 
    223 H223       -0.1217  -24.4817  -54.7081 H         1 UNK         0.0600 
    224 H224       -1.2156  -24.6491  -56.0718 H         1 UNK         0.0600 
    225 H225       -4.3973  -23.7007  -53.0191 H         1 UNK         0.3000 
    226 H226       -6.3983  -22.8975  -53.2935 H         1 UNK         0.0600 
    227 H227       -6.6274  -24.7741  -54.9354 H         1 UNK         0.0600 
    228 H228       -7.6855  -23.4273  -55.3153 H         1 UNK         0.0600 
    229 H229       -6.2172  -23.6708  -56.2490 H         1 UNK         0.0600 
    230 H230       -3.9941  -21.0443  -53.9813 H         1 UNK         0.3000 
    231 H231       -5.2397  -18.9011  -55.5272 H         1 UNK         0.0600 
    232 H232       -3.2166  -17.6417  -54.9423 H         1 UNK         0.0600 
    233 H233       -2.7503  -19.2547  -55.4642 H         1 UNK         0.0600 
    234 H234       -2.7504  -18.8426  -53.7483 H         1 UNK         0.0600 
    235 H235       -5.1393  -19.9096  -52.1793 H         1 UNK         0.3000 
    236 H236       -6.0215  -19.2539  -50.2996 H         1 UNK         0.0600 
    237 H237       -7.9593  -17.4963  -51.8981 H         1 UNK         0.0600 
    238 H238       -8.1516  -19.2269  -51.6427 H         1 UNK         0.0600 
    239 H239       -8.2050  -18.1375  -50.2737 H         1 UNK         0.0600 
    240 H240       -7.2221  -16.4721  -49.8505 H         1 UNK         0.3000 
    241 H241       -4.7501  -15.3314  -48.8176 H         1 UNK         0.0600 
    242 H242       -5.4885  -13.2209  -52.0749 H         1 UNK         0.3800 
    243 H243       -5.9091  -14.9030  -51.8774 H         1 UNK         0.3800 
    244 H244       -7.5820  -14.2944  -48.3787 H         1 UNK         0.0800 
    245 H245       -6.1698  -13.9390  -47.4212 H         1 UNK         0.0800 
    246 H246       -6.3373  -16.5496  -44.6803 H         1 UNK         0.0800 
    247 H247       -6.3730  -14.8392  -45.0309 H         1 UNK         0.0800 
@<TRIPOS>BOND
     1    1    2 1    
     2    1  127 1    
     3    1  128 1    
     4    1  129 1    
     5    2    3 2    
     6    2    4 am   BACKBONE|DICT|INTERRES
     7    4    5 1    
     8    4  130 1    
     9    5    6 1    
    10    5   65 1    
    11    5  131 1    
    12    6    7 1    
    13    6  132 1    
    14    6  133 1    
    15    7    8 1    
    16    8    9 1    
    17    8  134 1    
    18    8  135 1    
    19    9   10 ar   
    20    9   14 ar   
    21   10   11 ar   
    22   10  136 1    
    23   11   12 ar   
    24   11  126 1    
    25   12   13 ar   
    26   12  137 1    
    27   13   14 ar   
    28   13   15 1    
    29   14  138 1    
    30   15   16 1    
    31   15  139 1    
    32   15  140 1    
    33   16   17 1    
    34   17   18 1    
    35   17  141 1    
    36   17  142 1    
    37   18   19 1    
    38   18   67 1    
    39   18  143 1    
    40   19   20 am   BACKBONE|DICT|INTERRES
    41   19  144 1    
    42   20   21 2    
    43   20   22 1    
    44   22   23 1    
    45   22   24 1    
    46   22  145 1    
    47   23  146 1    
    48   23  147 1    
    49   23  148 1    
    50   24   25 am   BACKBONE|DICT|INTERRES
    51   24  149 1    
    52   25   26 2    
    53   25   27 1    
    54   27   28 1    
    55   27   29 1    
    56   27  150 1    
    57   28  151 1    
    58   28  152 1    
    59   28  153 1    
    60   29   30 am   BACKBONE|DICT|INTERRES
    61   29  154 1    
    62   30   31 2    
    63   30   32 1    
    64   32   33 1    
    65   32   34 1    
    66   32  155 1    
    67   33  156 1    
    68   33  157 1    
    69   33  158 1    
    70   34   35 am   BACKBONE|DICT|INTERRES
    71   34  159 1    
    72   35   36 2    
    73   35   37 1    
    74   37   38 1    
    75   37   39 1    
    76   37  160 1    
    77   38  161 1    
    78   38  162 1    
    79   38  163 1    
    80   39   40 am   BACKBONE|DICT|INTERRES
    81   39  164 1    
    82   40   41 2    
    83   40   42 1    
    84   42   43 1    
    85   42   44 1    
    86   42  165 1    
    87   43  166 1    
    88   43  167 1    
    89   43  168 1    
    90   44   45 am   BACKBONE|DICT|INTERRES
    91   44  169 1    
    92   45   46 2    
    93   45   47 1    
    94   47   48 1    
    95   47   49 1    
    96   47  170 1    
    97   48  171 1    
    98   48  172 1    
    99   48  173 1    
   100   49   50 am   BACKBONE|DICT|INTERRES
   101   49  174 1    
   102   50   51 2    
   103   50   52 1    
   104   52   53 1    
   105   52   54 1    
   106   52  175 1    
   107   53  176 1    
   108   53  177 1    
   109   53  178 1    
   110   54   55 am   BACKBONE|DICT|INTERRES
   111   54  179 1    
   112   55   56 2    
   113   55   57 1    
   114   57   58 1    
   115   57   59 1    
   116   57  180 1    
   117   58  181 1    
   118   58  182 1    
   119   58  183 1    
   120   59   60 am   BACKBONE|DICT|INTERRES
   121   59  184 1    
   122   60   61 2    
   123   60   62 1    
   124   62   63 1    
   125   62   64 1    
   126   62  185 1    
   127   63  186 1    
   128   63  187 1    
   129   63  188 1    
   130   64   65 am   BACKBONE|DICT|INTERRES
   131   64  189 1    
   132   65   66 2    
   133   67   68 2    
   134   67   69 am   BACKBONE|DICT|INTERRES
   135   69   70 1    
   136   69  190 1    
   137   70   71 1    
   138   70   72 1    
   139   70  191 1    
   140   71  192 1    
   141   71  193 1    
   142   71  194 1    
   143   72   73 2    
   144   72   74 am   BACKBONE|DICT|INTERRES
   145   74   75 1    
   146   74  195 1    
   147   75   76 1    
   148   75   77 1    
   149   75  196 1    
   150   76  197 1    
   151   76  198 1    
   152   76  199 1    
   153   77   78 2    
   154   77   79 am   BACKBONE|DICT|INTERRES
   155   79   80 1    
   156   79  200 1    
   157   80   81 1    
   158   80   82 1    
   159   80  201 1    
   160   81  202 1    
   161   81  203 1    
   162   81  204 1    
   163   82   83 2    
   164   82   84 am   BACKBONE|DICT|INTERRES
   165   84   85 1    
   166   84  205 1    
   167   85   86 1    
   168   85   87 1    
   169   85  206 1    
   170   86  207 1    
   171   86  208 1    
   172   86  209 1    
   173   87   88 2    
   174   87   89 am   BACKBONE|DICT|INTERRES
   175   89   90 1    
   176   89  210 1    
   177   90   91 1    
   178   90   92 1    
   179   90  211 1    
   180   91  212 1    
   181   91  213 1    
   182   91  214 1    
   183   92   93 2    
   184   92   94 am   BACKBONE|DICT|INTERRES
   185   94   95 1    
   186   94  215 1    
   187   95   96 1    
   188   95   97 1    
   189   95  216 1    
   190   96  217 1    
   191   96  218 1    
   192   96  219 1    
   193   97   98 2    
   194   97   99 am   BACKBONE|DICT|INTERRES
   195   99  100 1    
   196   99  220 1    
   197  100  101 1    
   198  100  102 1    
   199  100  221 1    
   200  101  222 1    
   201  101  223 1    
   202  101  224 1    
   203  102  103 2    
   204  102  104 am   BACKBONE|DICT|INTERRES
   205  104  105 1    
   206  104  225 1    
   207  105  106 1    
   208  105  107 1    
   209  105  226 1    
   210  106  227 1    
   211  106  228 1    
   212  106  229 1    
   213  107  108 2    
   214  107  109 am   BACKBONE|DICT|INTERRES
   215  109  110 1    
   216  109  230 1    
   217  110  111 1    
   218  110  112 1    
   219  110  231 1    
   220  111  232 1    
   221  111  233 1    
   222  111  234 1    
   223  112  113 2    
   224  112  114 am   BACKBONE|DICT|INTERRES
   225  114  115 1    
   226  114  235 1    
   227  115  116 1    
   228  115  117 1    
   229  115  236 1    
   230  116  237 1    
   231  116  238 1    
   232  116  239 1    
   233  117  118 2    
   234  117  119 am   BACKBONE|DICT|INTERRES
   235  119  120 1    
   236  119  240 1    
   237  120  121 1    
   238  120  124 1    
   239  120  241 1    
   240  121  122 am   BACKBONE|DICT|INTERRES
   241  121  123 2    
   242  122  242 1    
   243  122  243 1    
   244  124  125 1    
   245  124  244 1    
   246  124  245 1    
   247  125  126 1    
   248  126  246 1    
   249  126  247 1    
@<TRIPOS>SUBSTRUCTURE
     1 UNK         1 GROUP             0       ****    0 ROOT    
