@<TRIPOS>MOLECULE
3R540
247   249    1
SMALL
USER_CHARGES


@<TRIPOS>ATOM
      1 CA         -2.3822  -11.7426  -52.5375 C.3       0 UNK        -0.1800 
      2 C          -2.5312  -12.2180  -51.0987 C.2       0 UNK         0.5000 
      3 O          -3.4846  -11.8238  -50.4286 O.2       0 UNK        -0.5000 
      4 N          -1.5975  -13.0655  -50.6463 N.am      1 UNK        -0.5000 
      5 CA         -1.4835  -13.6611  -49.3105 C.3       1 UNK         0.1400 
      6 C6         -2.6831  -14.5571  -48.8928 C.3       23 UNK        -0.0398 
      7 S7         -2.7329  -16.1130  -49.8388 S.3       23 UNK        -0.2404 
      8 C8         -1.5886  -17.1337  -48.8561 C.3       23 UNK        -0.0205 
      9 C9         -0.6709  -17.9787  -49.7284 C.ar      23 UNK        -0.0193 
     10 C10         0.3036  -17.3634  -50.5201 C.ar      23 UNK        -0.1150 
     11 C11         1.1889  -18.1288  -51.2833 C.ar      23 UNK        -0.0193 
     12 C12         1.0978  -19.5235  -51.2452 C.ar      23 UNK        -0.1150 
     13 C13         0.1291  -20.1531  -50.4601 C.ar      23 UNK        -0.0193 
     14 C14        -0.7548  -19.3741  -49.7059 C.ar      23 UNK        -0.1150 
     15 C15         0.0203  -21.6718  -50.4566 C.3       23 UNK        -0.0205 
     16 S16         1.3267  -22.4888  -49.4735 S.3       23 UNK        -0.2404 
     17 C17         1.0115  -21.8870  -47.7769 C.3       23 UNK        -0.0398 
     18 CA          0.1340  -22.8309  -46.9148 C.3       11 UNK         0.1400 
     19 N           0.1557  -22.4598  -45.4955 N.am      11 UNK        -0.5000 
     20 C          -0.4068  -23.1687  -44.5037 C.2       10 UNK         0.5000 
     21 O          -0.9451  -24.2631  -44.6614 O.2       10 UNK        -0.5000 
     22 CA         -0.4220  -22.5201  -43.1084 C.3       10 UNK         0.1400 
     23 CB          0.8860  -22.8085  -42.3575 C.3       10 UNK        -0.1800 
     24 N          -0.6470  -21.0757  -43.1750 N.am      10 UNK        -0.5000 
     25 C          -1.8056  -20.5093  -43.5483 C.2       9 UNK         0.5000 
     26 O          -2.8187  -21.1489  -43.8285 O.2       9 UNK        -0.5000 
     27 CA         -1.8138  -18.9744  -43.6920 C.3       9 UNK         0.1400 
     28 CB         -2.1355  -18.3007  -42.3497 C.3       9 UNK        -0.1800 
     29 N          -0.5415  -18.4590  -44.1988 N.am      9 UNK        -0.5000 
     30 C          -0.0323  -18.7458  -45.4052 C.2       8 UNK         0.5000 
     31 O          -0.6470  -19.3809  -46.2616 O.2       8 UNK        -0.5000 
     32 CA          1.4177  -18.3016  -45.6769 C.3       8 UNK         0.1400 
     33 CB          1.4715  -17.1390  -46.6757 C.3       8 UNK        -0.1800 
     34 N           2.1241  -17.9019  -44.4605 N.am      8 UNK        -0.5000 
     35 C           2.6446  -18.7370  -43.5516 C.2       7 UNK         0.5000 
     36 O           2.5150  -19.9598  -43.6160 O.2       7 UNK        -0.5000 
     37 CA          3.3916  -18.0930  -42.3598 C.3       7 UNK         0.1400 
     38 CB          4.5518  -18.9683  -41.8443 C.3       7 UNK        -0.1800 
     39 N           3.8358  -16.7170  -42.6259 N.am      7 UNK        -0.5000 
     40 C           4.7122  -16.3023  -43.5557 C.2       6 UNK         0.5000 
     41 O           5.3885  -17.0652  -44.2460 O.2       6 UNK        -0.5000 
     42 CA          4.8166  -14.7828  -43.7963 C.3       6 UNK         0.1400 
     43 CB          4.5319  -14.4518  -45.2705 C.3       6 UNK        -0.1800 
     44 N           3.8704  -14.0276  -42.9709 N.am      6 UNK        -0.5000 
     45 C           4.2067  -13.1792  -41.9900 C.2       5 UNK         0.5000 
     46 O           5.3688  -12.9067  -41.6866 O.2       5 UNK        -0.5000 
     47 CA          3.0512  -12.5309  -41.1991 C.3       5 UNK         0.1400 
     48 CB          2.7214  -11.1456  -41.7750 C.3       5 UNK        -0.1800 
     49 N           1.8305  -13.3413  -41.1734 N.am      5 UNK        -0.5000 
     50 C           1.7189  -14.5390  -40.5807 C.2       4 UNK         0.5000 
     51 O           2.6326  -15.0769  -39.9560 O.2       4 UNK        -0.5000 
     52 CA          0.3883  -15.2971  -40.7550 C.3       4 UNK         0.1400 
     53 CB         -0.4993  -15.1202  -39.5144 C.3       4 UNK        -0.1800 
     54 N          -0.3824  -14.9285  -41.9460 N.am      4 UNK        -0.5000 
     55 C           0.0376  -15.0119  -43.2149 C.2       3 UNK         0.5000 
     56 O           1.1795  -15.3547  -43.5327 O.2       3 UNK        -0.5000 
     57 CA         -0.9863  -14.6929  -44.3214 C.3       3 UNK         0.1400 
     58 CB         -2.3161  -14.0923  -43.8131 C.3       3 UNK        -0.1800 
     59 N          -0.4097  -13.8546  -45.3720 N.am      3 UNK        -0.5000 
     60 C           0.0754  -12.6084  -45.2552 C.2       2 UNK         0.5000 
     61 O           0.1433  -11.9947  -44.1897 O.2       2 UNK        -0.5000 
     62 CA          0.5581  -11.9283  -46.5572 C.3       2 UNK         0.1400 
     63 CB          2.0912  -11.8395  -46.5835 C.3       2 UNK        -0.1800 
     64 N           0.1037  -12.6217  -47.7695 N.am      2 UNK        -0.5000 
     65 C          -1.1597  -12.6201  -48.2191 C.2       1 UNK         0.5000 
     66 O          -2.0454  -11.9037  -47.7506 O.2       1 UNK        -0.5000 
     67 C          -1.3143  -22.8964  -47.4343 C.2       11 UNK         0.5000 
     68 O          -1.7089  -23.9132  -48.0056 O.2       11 UNK        -0.5000 
     69 N          -2.0872  -21.8273  -47.1878 N.am      12 UNK        -0.5000 
     70 CA         -3.4987  -21.7301  -47.5585 C.3       12 UNK         0.1400 
     71 CB         -4.0366  -20.3327  -47.2217 C.3       12 UNK        -0.1800 
     72 C          -4.3642  -22.8225  -46.9090 C.2       12 UNK         0.5000 
     73 O          -5.1771  -23.4308  -47.6034 O.2       12 UNK        -0.5000 
     74 N          -4.1453  -23.0811  -45.6125 N.am      13 UNK        -0.5000 
     75 CA         -4.8176  -24.1369  -44.8561 C.3       13 UNK         0.1400 
     76 CB         -4.4595  -24.0144  -43.3673 C.3       13 UNK        -0.1800 
     77 C          -4.4993  -25.5488  -45.3816 C.2       13 UNK         0.5000 
     78 O          -5.4215  -26.3420  -45.5736 O.2       13 UNK        -0.5000 
     79 N          -3.2111  -25.8314  -45.6236 N.am      14 UNK        -0.5000 
     80 CA         -2.7257  -27.1207  -46.1195 C.3       14 UNK         0.1400 
     81 CB         -1.1934  -27.1676  -46.0203 C.3       14 UNK        -0.1800 
     82 C          -3.1799  -27.4266  -47.5571 C.2       14 UNK         0.5000 
     83 O          -3.5636  -28.5612  -47.8442 O.2       14 UNK        -0.5000 
     84 N          -3.1365  -26.4122  -48.4300 N.am      15 UNK        -0.5000 
     85 CA         -3.5113  -26.5233  -49.8398 C.3       15 UNK         0.1400 
     86 CB         -2.7590  -25.4460  -50.6353 C.3       15 UNK        -0.1800 
     87 C          -5.0253  -26.3972  -50.0897 C.2       15 UNK         0.5000 
     88 O          -5.4500  -26.5693  -51.2318 O.2       15 UNK        -0.5000 
     89 N          -5.8044  -26.0386  -49.0572 N.am      16 UNK        -0.5000 
     90 CA         -7.2312  -25.6886  -49.1133 C.3       16 UNK         0.1400 
     91 CB         -8.0897  -26.9343  -49.4142 C.3       16 UNK        -0.1800 
     92 C          -7.4987  -24.5151  -50.0840 C.2       16 UNK         0.5000 
     93 O          -8.4603  -24.5395  -50.8535 O.2       16 UNK        -0.5000 
     94 N          -6.5874  -23.5325  -50.0473 N.am      17 UNK        -0.5000 
     95 CA         -6.4849  -22.3301  -50.8788 C.3       17 UNK         0.1400 
     96 CB         -7.7002  -21.4084  -50.6565 C.3       17 UNK        -0.1800 
     97 C          -6.2159  -22.5797  -52.3809 C.2       17 UNK         0.5000 
     98 O          -6.1783  -21.6118  -53.1405 O.2       17 UNK        -0.5000 
     99 N          -5.9993  -23.8353  -52.8033 N.am      18 UNK        -0.5000 
    100 CA        -5.7995  -24.2000  -54.2108 C.3       18 UNK         0.1400 
    101 CB        -5.9318  -25.7214  -54.3729 C.3       18 UNK        -0.1800 
    102 C         -4.4547  -23.7139  -54.7832 C.2       18 UNK         0.5000 
    103 O         -4.3913  -23.3398  -55.9545 O.2       18 UNK        -0.5000 
    104 N         -3.4115  -23.7163  -53.9431 N.am      19 UNK        -0.5000 
    105 CA        -2.0609  -23.2662  -54.2916 C.3       19 UNK         0.1400 
    106 CB        -1.0406  -24.1090  -53.5100 C.3       19 UNK        -0.1800 
    107 C         -1.8403  -21.7679  -54.0091 C.2       19 UNK         0.5000 
    108 O         -0.8023  -21.2290  -54.3927 O.2       19 UNK        -0.5000 
    109 N         -2.8015  -21.1131  -53.3443 N.am      20 UNK        -0.5000 
    110 CA        -2.7273  -19.7300  -52.8692 C.3       20 UNK         0.1400 
    111 CB        -3.6744  -19.5732  -51.6659 C.3       20 UNK        -0.1800 
    112 C         -2.9817  -18.6800  -53.9727 C.2       20 UNK         0.5000 
    113 O         -3.6332  -17.6656  -53.7204 O.2       20 UNK        -0.5000 
    114 N         -2.4374  -18.9102  -55.1754 N.am      21 UNK        -0.5000 
    115 CA        -2.4850  -17.9857  -56.3141 C.3       21 UNK         0.1400 
    116 CB        -1.9334  -18.6942  -57.5601 C.3       21 UNK        -0.1800 
    117 C         -1.7170  -16.6757  -56.0445 C.2       21 UNK         0.5000 
    118 O         -2.1248  -15.6132  -56.5140 O.2       21 UNK        -0.5000 
    119 N         -0.6453  -16.7854  -55.2533 N.am      22 UNK        -0.5000 
    120 CA         0.1169  -15.6840  -54.6488 C.3       22 UNK         0.1400 
    121 C         -0.4864  -15.1584  -53.3110 C.2       22 UNK         0.5000 
    122 N         -1.6732  -15.5836  -52.8975 N.am      22 UNK        -0.7600 
    123 O          0.1241  -14.3362  -52.6320 O.2       22 UNK        -0.5000 
    124 C124        1.6256  -16.0387  -54.5297 C.3       23 UNK        -0.0398 
    125 S125        1.9792  -17.7237  -53.9061 S.3       23 UNK        -0.2404 
    126 C126        2.2627  -17.4577  -52.1271 C.3       23 UNK        -0.0205 
    127 H127       -1.4256  -12.0408  -52.9669 H         1 UNK         0.0600 
    128 H128       -2.4482  -10.6556  -52.5842 H         1 UNK         0.0600 
    129 H129       -3.1773  -12.1616  -53.1542 H         1 UNK         0.0600 
    130 H130       -0.8636  -13.3472  -51.2925 H         1 UNK         0.3000 
    131 H131       -0.6114  -14.3132  -49.3797 H         1 UNK         0.0600 
    132 H132       -2.6408  -14.8103  -47.8316 H         1 UNK         0.0800 
    133 H133       -3.6303  -14.0344  -49.0278 H         1 UNK         0.0800 
    134 H134       -0.9685  -16.4970  -48.2267 H         1 UNK         0.0800 
    135 H135       -2.1638  -17.7567  -48.1719 H         1 UNK         0.0800 
    136 H136        0.3754  -16.2854  -50.5363 H         1 UNK         0.1150 
    137 H137        1.7804  -20.1207  -51.8335 H         1 UNK         0.1150 
    138 H138       -1.5019  -19.8545  -49.0923 H         1 UNK         0.1150 
    139 H139       -0.9640  -21.9869  -50.1102 H         1 UNK         0.0800 
    140 H140        0.0978  -22.0261  -51.4850 H         1 UNK         0.0800 
    141 H141        1.9878  -21.7778  -47.3029 H         1 UNK         0.0800 
    142 H142        0.5998  -20.8815  -47.8195 H         1 UNK         0.0800 
    143 H143        0.5525  -23.8373  -46.9851 H         1 UNK         0.0600 
    144 H144        0.5562  -21.5625  -45.2680 H         1 UNK         0.3000 
    145 H145       -1.2422  -22.9650  -42.5411 H         1 UNK         0.0600 
    146 H146        0.8737  -22.3716  -41.3589 H         1 UNK         0.0600 
    147 H147        1.0367  -23.8825  -42.2405 H         1 UNK         0.0600 
    148 H148        1.7535  -22.4137  -42.8867 H         1 UNK         0.0600 
    149 H149        0.1525  -20.4861  -42.9926 H         1 UNK         0.3000 
    150 H150       -2.5966  -18.7112  -44.4065 H         1 UNK         0.0600 
    151 H151       -3.0752  -18.6751  -41.9412 H         1 UNK         0.0600 
    152 H152       -2.2423  -17.2226  -42.4650 H         1 UNK         0.0600 
    153 H153       -1.3582  -18.4843  -41.6070 H         1 UNK         0.0600 
    154 H154        0.0376  -17.9448  -43.5530 H         1 UNK         0.3000 
    155 H155        1.9438  -19.1508  -46.1178 H         1 UNK         0.0600 
    156 H156        2.4946  -16.7920  -46.8223 H         1 UNK         0.0600 
    157 H157        0.8737  -16.2901  -46.3456 H         1 UNK         0.0600 
    158 H158        1.1045  -17.4563  -47.6498 H         1 UNK         0.0600 
    159 H159        2.1845  -16.9050  -44.2827 H         1 UNK         0.3000 
    160 H160        2.6585  -18.0182  -41.5558 H         1 UNK         0.0600 
    161 H161        5.2907  -19.1644  -42.6214 H         1 UNK         0.0600 
    162 H162        4.1863  -19.9342  -41.4937 H         1 UNK         0.0600 
    163 H163        5.0622  -18.4927  -41.0068 H         1 UNK         0.0600 
    164 H164        3.3624  -16.0008  -42.0935 H         1 UNK         0.3000 
    165 H165        5.8456  -14.4954  -43.5723 H         1 UNK         0.0600 
    166 H166        3.5236  -14.7518  -45.5586 H         1 UNK         0.0600 
    167 H167        4.6343  -13.3829  -45.4578 H         1 UNK         0.0600 
    168 H168        5.2302  -14.9631  -45.9342 H         1 UNK         0.0600 
    169 H169        2.8872  -14.2005  -43.1509 H         1 UNK         0.3000 
    170 H170        3.3893  -12.4016  -40.1689 H         1 UNK         0.0600 
    171 H171        3.5983  -10.4972  -41.7589 H         1 UNK         0.0600 
    172 H172        2.3818  -11.2108  -42.8093 H         1 UNK         0.0600 
    173 H173        1.9416  -10.6510  -41.1956 H         1 UNK         0.0600 
    174 H174        1.0389  -12.9831  -41.6896 H         1 UNK         0.3000 
    175 H175        0.6350  -16.3568  -40.8456 H         1 UNK         0.0600 
    176 H176       -0.8137  -14.0832  -39.3902 H         1 UNK         0.0600 
    177 H177       -1.3949  -15.7387  -39.5781 H         1 UNK         0.0600 
    178 H178        0.0313  -15.4134  -38.6074 H         1 UNK         0.0600 
    179 H179       -1.3274  -14.6139  -41.7797 H         1 UNK         0.3000 
    180 H180       -1.2215  -15.6482  -44.7921 H         1 UNK         0.0600 
    181 H181       -2.1653  -13.1564  -43.2736 H         1 UNK         0.0600 
    182 H182       -2.8387  -14.7822  -43.1496 H         1 UNK         0.0600 
    183 H183       -2.9897  -13.8849  -44.6449 H         1 UNK         0.0600 
    184 H184       -0.3676  -14.2733  -46.2869 H         1 UNK         0.3000 
    185 H185        0.1561  -10.9129  -46.5614 H         1 UNK         0.0600 
    186 H186        2.4358  -11.2458  -47.4303 H         1 UNK         0.0600 
    187 H187        2.4768  -11.3678  -45.6784 H         1 UNK         0.0600 
    188 H188        2.5456  -12.8265  -46.6610 H         1 UNK         0.0600 
    189 H189        0.7888  -13.2051  -48.2286 H         1 UNK         0.3000 
    190 H190       -1.6783  -21.0234  -46.7208 H         1 UNK         0.3000 
    191 H191       -3.5623  -21.8637  -48.6404 H         1 UNK         0.0600 
    192 H192       -3.5159  -19.5640  -47.7890 H         1 UNK         0.0600 
    193 H193       -5.0960  -20.2515  -47.4687 H         1 UNK         0.0600 
    194 H194       -3.9267  -20.1014  -46.1621 H         1 UNK         0.0600 
    195 H195       -3.4904  -22.4994  -45.0986 H         1 UNK         0.3000 
    196 H196       -5.8937  -23.9814  -44.9573 H         1 UNK         0.0600 
    197 H197       -4.9633  -24.7825  -42.7792 H         1 UNK         0.0600 
    198 H198       -4.7639  -23.0470  -42.9675 H         1 UNK         0.0600 
    199 H199       -3.3876  -24.1223  -43.2004 H         1 UNK         0.0600 
    200 H200       -2.5022  -25.1324  -45.4180 H         1 UNK         0.3000 
    201 H201       -3.1295  -27.9017  -45.4719 H         1 UNK         0.0600 
    202 H202       -0.8624  -27.0535  -44.9879 H         1 UNK         0.0600 
    203 H203       -0.7284  -26.3763  -46.6100 H         1 UNK         0.0600 
    204 H204       -0.8054  -28.1205  -46.3823 H         1 UNK         0.0600 
    205 H205       -2.7658  -25.5136  -48.1288 H         1 UNK         0.3000 
    206 H206       -3.1980  -27.4995  -50.2157 H         1 UNK         0.0600 
    207 H207       -1.6833  -25.5124  -50.4705 H         1 UNK         0.0600 
    208 H208       -2.9309  -25.5683  -51.7045 H         1 UNK         0.0600 
    209 H209       -3.0793  -24.4408  -50.3575 H         1 UNK         0.0600 
    210 H210       -5.3531  -25.8800  -48.1660 H         1 UNK         0.3000 
    211 H211       -7.4993  -25.3316  -48.1179 H         1 UNK         0.0600 
    212 H212       -7.9126  -27.3175  -50.4196 H         1 UNK         0.0600 
    213 H213       -9.1526  -26.7035  -49.3353 H         1 UNK         0.0600 
    214 H214       -7.8787  -27.7367  -48.7075 H         1 UNK         0.0600 
    215 H215       -5.8892  -23.6052  -49.3100 H         1 UNK         0.3000 
    216 H216       -5.6066  -21.7997  -50.5091 H         1 UNK         0.0600 
    217 H217       -7.8530  -21.2071  -49.5962 H         1 UNK         0.0600 
    218 H218       -8.6177  -21.8450  -51.0518 H         1 UNK         0.0600 
    219 H219       -7.5588  -20.4460  -51.1498 H         1 UNK         0.0600 
    220 H220       -6.0454  -24.5979  -52.1383 H         1 UNK         0.3000 
    221 H221       -6.5955  -23.7314  -54.7937 H         1 UNK         0.0600 
    222 H222       -5.1294  -26.2530  -53.8604 H         1 UNK         0.0600 
    223 H223       -6.8809  -26.0814  -53.9752 H         1 UNK         0.0600 
    224 H224       -5.8903  -26.0053  -55.4251 H         1 UNK         0.0600 
    225 H225       -3.5569  -24.0430  -53.0000 H         1 UNK         0.3000 
    226 H226       -1.8839  -23.4277  -55.3571 H         1 UNK         0.0600 
    227 H227       -1.1761  -25.1736  -53.7013 H         1 UNK         0.0600 
    228 H228       -0.0202  -23.8560  -53.8010 H         1 UNK         0.0600 
    229 H229       -1.1210  -23.9456  -52.4355 H         1 UNK         0.0600 
    230 H230       -3.6660  -21.5998  -53.1589 H         1 UNK         0.3000 
    231 H231       -1.7131  -19.5467  -52.5115 H         1 UNK         0.0600 
    232 H232       -3.5593  -18.5926  -51.2052 H         1 UNK         0.0600 
    233 H233       -3.4639  -20.3145  -50.8952 H         1 UNK         0.0600 
    234 H234       -4.7192  -19.6736  -51.9592 H         1 UNK         0.0600 
    235 H235       -1.8738  -19.7466  -55.2803 H         1 UNK         0.3000 
    236 H236       -3.5300  -17.7276  -56.4976 H         1 UNK         0.0600 
    237 H237       -2.5160  -19.5847  -57.7973 H         1 UNK         0.0600 
    238 H238       -1.9725  -18.0389  -58.4312 H         1 UNK         0.0600 
    239 H239       -0.8950  -18.9988  -57.4235 H         1 UNK         0.0600 
    240 H240       -0.3904  -17.7048  -54.9215 H         1 UNK         0.3000 
    241 H241        0.0536  -14.8283  -55.3231 H         1 UNK         0.0600 
    242 H242       -2.0322  -15.2724  -52.0087 H         1 UNK         0.3800 
    243 H243       -2.2193  -16.2465  -53.4328 H         1 UNK         0.3800 
    244 H244        2.1736  -15.2957  -53.9483 H         1 UNK         0.0800 
    245 H245        2.0649  -15.9870  -55.5266 H         1 UNK         0.0800 
    246 H246        3.2340  -17.8764  -51.8607 H         1 UNK         0.0800 
    247 H247        2.3200  -16.3918  -51.9026 H         1 UNK         0.0800 
@<TRIPOS>BOND
     1    1    2 1    
     2    1  127 1    
     3    1  128 1    
     4    1  129 1    
     5    2    3 2    
     6    2    4 am   BACKBONE|DICT|INTERRES
     7    4    5 1    
     8    4  130 1    
     9    5    6 1    
    10    5   65 1    
    11    5  131 1    
    12    6    7 1    
    13    6  132 1    
    14    6  133 1    
    15    7    8 1    
    16    8    9 1    
    17    8  134 1    
    18    8  135 1    
    19    9   10 ar   
    20    9   14 ar   
    21   10   11 ar   
    22   10  136 1    
    23   11   12 ar   
    24   11  126 1    
    25   12   13 ar   
    26   12  137 1    
    27   13   14 ar   
    28   13   15 1    
    29   14  138 1    
    30   15   16 1    
    31   15  139 1    
    32   15  140 1    
    33   16   17 1    
    34   17   18 1    
    35   17  141 1    
    36   17  142 1    
    37   18   19 1    
    38   18   67 1    
    39   18  143 1    
    40   19   20 am   BACKBONE|DICT|INTERRES
    41   19  144 1    
    42   20   21 2    
    43   20   22 1    
    44   22   23 1    
    45   22   24 1    
    46   22  145 1    
    47   23  146 1    
    48   23  147 1    
    49   23  148 1    
    50   24   25 am   BACKBONE|DICT|INTERRES
    51   24  149 1    
    52   25   26 2    
    53   25   27 1    
    54   27   28 1    
    55   27   29 1    
    56   27  150 1    
    57   28  151 1    
    58   28  152 1    
    59   28  153 1    
    60   29   30 am   BACKBONE|DICT|INTERRES
    61   29  154 1    
    62   30   31 2    
    63   30   32 1    
    64   32   33 1    
    65   32   34 1    
    66   32  155 1    
    67   33  156 1    
    68   33  157 1    
    69   33  158 1    
    70   34   35 am   BACKBONE|DICT|INTERRES
    71   34  159 1    
    72   35   36 2    
    73   35   37 1    
    74   37   38 1    
    75   37   39 1    
    76   37  160 1    
    77   38  161 1    
    78   38  162 1    
    79   38  163 1    
    80   39   40 am   BACKBONE|DICT|INTERRES
    81   39  164 1    
    82   40   41 2    
    83   40   42 1    
    84   42   43 1    
    85   42   44 1    
    86   42  165 1    
    87   43  166 1    
    88   43  167 1    
    89   43  168 1    
    90   44   45 am   BACKBONE|DICT|INTERRES
    91   44  169 1    
    92   45   46 2    
    93   45   47 1    
    94   47   48 1    
    95   47   49 1    
    96   47  170 1    
    97   48  171 1    
    98   48  172 1    
    99   48  173 1    
   100   49   50 am   BACKBONE|DICT|INTERRES
   101   49  174 1    
   102   50   51 2    
   103   50   52 1    
   104   52   53 1    
   105   52   54 1    
   106   52  175 1    
   107   53  176 1    
   108   53  177 1    
   109   53  178 1    
   110   54   55 am   BACKBONE|DICT|INTERRES
   111   54  179 1    
   112   55   56 2    
   113   55   57 1    
   114   57   58 1    
   115   57   59 1    
   116   57  180 1    
   117   58  181 1    
   118   58  182 1    
   119   58  183 1    
   120   59   60 am   BACKBONE|DICT|INTERRES
   121   59  184 1    
   122   60   61 2    
   123   60   62 1    
   124   62   63 1    
   125   62   64 1    
   126   62  185 1    
   127   63  186 1    
   128   63  187 1    
   129   63  188 1    
   130   64   65 am   BACKBONE|DICT|INTERRES
   131   64  189 1    
   132   65   66 2    
   133   67   68 2    
   134   67   69 am   BACKBONE|DICT|INTERRES
   135   69   70 1    
   136   69  190 1    
   137   70   71 1    
   138   70   72 1    
   139   70  191 1    
   140   71  192 1    
   141   71  193 1    
   142   71  194 1    
   143   72   73 2    
   144   72   74 am   BACKBONE|DICT|INTERRES
   145   74   75 1    
   146   74  195 1    
   147   75   76 1    
   148   75   77 1    
   149   75  196 1    
   150   76  197 1    
   151   76  198 1    
   152   76  199 1    
   153   77   78 2    
   154   77   79 am   BACKBONE|DICT|INTERRES
   155   79   80 1    
   156   79  200 1    
   157   80   81 1    
   158   80   82 1    
   159   80  201 1    
   160   81  202 1    
   161   81  203 1    
   162   81  204 1    
   163   82   83 2    
   164   82   84 am   BACKBONE|DICT|INTERRES
   165   84   85 1    
   166   84  205 1    
   167   85   86 1    
   168   85   87 1    
   169   85  206 1    
   170   86  207 1    
   171   86  208 1    
   172   86  209 1    
   173   87   88 2    
   174   87   89 am   BACKBONE|DICT|INTERRES
   175   89   90 1    
   176   89  210 1    
   177   90   91 1    
   178   90   92 1    
   179   90  211 1    
   180   91  212 1    
   181   91  213 1    
   182   91  214 1    
   183   92   93 2    
   184   92   94 am   BACKBONE|DICT|INTERRES
   185   94   95 1    
   186   94  215 1    
   187   95   96 1    
   188   95   97 1    
   189   95  216 1    
   190   96  217 1    
   191   96  218 1    
   192   96  219 1    
   193   97   98 2    
   194   97   99 am   BACKBONE|DICT|INTERRES
   195   99  100 1    
   196   99  220 1    
   197  100  101 1    
   198  100  102 1    
   199  100  221 1    
   200  101  222 1    
   201  101  223 1    
   202  101  224 1    
   203  102  103 2    
   204  102  104 am   BACKBONE|DICT|INTERRES
   205  104  105 1    
   206  104  225 1    
   207  105  106 1    
   208  105  107 1    
   209  105  226 1    
   210  106  227 1    
   211  106  228 1    
   212  106  229 1    
   213  107  108 2    
   214  107  109 am   BACKBONE|DICT|INTERRES
   215  109  110 1    
   216  109  230 1    
   217  110  111 1    
   218  110  112 1    
   219  110  231 1    
   220  111  232 1    
   221  111  233 1    
   222  111  234 1    
   223  112  113 2    
   224  112  114 am   BACKBONE|DICT|INTERRES
   225  114  115 1    
   226  114  235 1    
   227  115  116 1    
   228  115  117 1    
   229  115  236 1    
   230  116  237 1    
   231  116  238 1    
   232  116  239 1    
   233  117  118 2    
   234  117  119 am   BACKBONE|DICT|INTERRES
   235  119  120 1    
   236  119  240 1    
   237  120  121 1    
   238  120  124 1    
   239  120  241 1    
   240  121  122 am   BACKBONE|DICT|INTERRES
   241  121  123 2    
   242  122  242 1    
   243  122  243 1    
   244  124  125 1    
   245  124  244 1    
   246  124  245 1    
   247  125  126 1    
   248  126  246 1    
   249  126  247 1    
@<TRIPOS>SUBSTRUCTURE
     1 UNK         1 GROUP             0       ****    0 ROOT    
