@<TRIPOS>MOLECULE
3R540
247   249    1
SMALL
USER_CHARGES


@<TRIPOS>ATOM
      1 CA         -5.6046  -14.1843  -47.0245 C.3       0 UNK        -0.1800 
      2 C          -4.1558  -14.6504  -47.0132 C.2       0 UNK         0.5000 
      3 O          -3.7957  -15.4954  -46.1955 O.2       0 UNK        -0.5000 
      4 N          -3.3327  -14.0985  -47.9164 N.am      1 UNK        -0.5000 
      5 CA         -1.9045  -14.4026  -48.0994 C.3       1 UNK         0.1400 
      6 C6         -1.6142  -15.8728  -48.5090 C.3       23 UNK        -0.0398 
      7 S7         -2.5966  -16.4794  -49.9268 S.3       23 UNK        -0.2404 
      8 C8         -1.4746  -16.1808  -51.3384 C.3       23 UNK        -0.0205 
      9 C9         -0.1871  -17.0090  -51.3919 C.ar      23 UNK        -0.0193 
     10 C10         0.6886  -16.7849  -52.4589 C.ar      23 UNK        -0.1150 
     11 C11         1.8937  -17.4906  -52.5703 C.ar      23 UNK        -0.0193 
     12 C12         2.2266  -18.4166  -51.5777 C.ar      23 UNK        -0.1150 
     13 C13         1.3730  -18.6460  -50.4962 C.ar      23 UNK        -0.0193 
     14 C14         0.1616  -17.9573  -50.4216 C.ar      23 UNK        -0.1150 
     15 C15         1.7818  -19.6007  -49.3849 C.3       23 UNK        -0.0205 
     16 S16         0.9284  -21.1998  -49.5026 S.3       23 UNK        -0.2404 
     17 C17        -0.6408  -20.9075  -48.6090 C.3       23 UNK        -0.0398 
     18 CA         -0.8764  -22.0230  -47.5631 C.3       11 UNK         0.1400 
     19 N          -0.0514  -21.8693  -46.3651 N.am      11 UNK        -0.5000 
     20 C           0.3181  -22.9021  -45.5976 C.2       10 UNK         0.5000 
     21 O          -0.0518  -24.0608  -45.7937 O.2       10 UNK        -0.5000 
     22 CA          1.2328  -22.5887  -44.4031 C.3       10 UNK         0.1400 
     23 CB          2.6481  -22.2305  -44.8819 C.3       10 UNK        -0.1800 
     24 N           0.7147  -21.5198  -43.5503 N.am      10 UNK        -0.5000 
     25 C          -0.4339  -21.5850  -42.8617 C.2       9 UNK         0.5000 
     26 O          -1.2048  -22.5456  -42.8995 O.2       9 UNK        -0.5000 
     27 CA         -0.7990  -20.3530  -42.0122 C.3       9 UNK         0.1400 
     28 CB          0.0765  -20.2706  -40.7523 C.3       9 UNK        -0.1800 
     29 N          -0.6970  -19.0991  -42.7571 N.am      9 UNK        -0.5000 
     30 C          -1.4111  -18.8086  -43.8533 C.2       8 UNK         0.5000 
     31 O          -2.2433  -19.5604  -44.3517 O.2       8 UNK        -0.5000 
     32 CA         -1.0965  -17.4790  -44.5493 C.3       8 UNK         0.1400 
     33 CB         -1.6950  -16.2990  -43.7685 C.3       8 UNK        -0.1800 
     34 N           0.3407  -17.2929  -44.7401 N.am      8 UNK        -0.5000 
     35 C           1.1234  -18.1100  -45.4602 C.2       7 UNK         0.5000 
     36 O           0.7175  -19.1084  -46.0542 O.2       7 UNK        -0.5000 
     37 CA          2.6256  -17.7856  -45.4708 C.3       7 UNK         0.1400 
     38 CB          2.9213  -16.6449  -46.4526 C.3       7 UNK        -0.1800 
     39 N           3.1219  -17.4333  -44.1398 N.am      7 UNK        -0.5000 
     40 C           3.1538  -18.2829  -43.1016 C.2       6 UNK         0.5000 
     41 O           2.8041  -19.4615  -43.1670 O.2       6 UNK        -0.5000 
     42 CA          3.6049  -17.7055  -41.7495 C.3       6 UNK         0.1400 
     43 CB          5.1374  -17.6526  -41.6641 C.3       6 UNK        -0.1800 
     44 N           3.0609  -16.3736  -41.4880 N.am      6 UNK        -0.5000 
     45 C           1.7630  -16.0650  -41.3881 C.2       5 UNK         0.5000 
     46 O           0.8636  -16.8966  -41.5127 O.2       5 UNK        -0.5000 
     47 CA          1.3896  -14.5885  -41.1313 C.3       5 UNK         0.1400 
     48 CB          1.1693  -14.3353  -39.6286 C.3       5 UNK        -0.1800 
     49 N           2.3037  -13.5886  -41.7091 N.am      5 UNK        -0.5000 
     50 C           3.5902  -13.3380  -41.4196 C.2       4 UNK         0.5000 
     51 O           4.2308  -13.9622  -40.5726 O.2       4 UNK        -0.5000 
     52 CA          4.2803  -12.2139  -42.2248 C.3       4 UNK         0.1400 
     53 CB          5.7987  -12.4454  -42.3762 C.3       4 UNK        -0.1800 
     54 N           3.6675  -11.9458  -43.5336 N.am      4 UNK        -0.5000 
     55 C           3.5659  -12.7849  -44.5746 C.2       3 UNK         0.5000 
     56 O           3.9245  -13.9642  -44.5519 O.2       3 UNK        -0.5000 
     57 CA          2.8815  -12.2093  -45.8273 C.3       3 UNK         0.1400 
     58 CB          3.4495  -12.7940  -47.1314 C.3       3 UNK        -0.1800 
     59 N           1.4482  -12.4760  -45.7632 N.am      3 UNK        -0.5000 
     60 C           0.5597  -11.7822  -45.0448 C.2       2 UNK         0.5000 
     61 O           0.8586  -10.7609  -44.4231 O.2       2 UNK        -0.5000 
     62 CA         -0.8864  -12.3320  -44.9822 C.3       2 UNK         0.1400 
     63 CB         -1.8841  -11.3046  -44.4178 C.3       2 UNK        -0.1800 
     64 N          -1.4230  -12.8495  -46.2477 N.am      2 UNK        -0.5000 
     65 C          -1.0554  -13.9747  -46.8778 C.2       1 UNK         0.5000 
     66 O          -0.0993  -14.6628  -46.5174 O.2       1 UNK        -0.5000 
     67 C          -2.3652  -22.2544  -47.2392 C.2       11 UNK         0.5000 
     68 O          -3.0564  -22.8191  -48.0856 O.2       11 UNK        -0.5000 
     69 N          -2.8470  -21.8919  -46.0402 N.am      12 UNK        -0.5000 
     70 CA         -4.1665  -22.3125  -45.5562 C.3       12 UNK         0.1400 
     71 CB         -4.6014  -21.4858  -44.3382 C.3       12 UNK        -0.1800 
     72 C          -4.1952  -23.8130  -45.2236 C.2       12 UNK         0.5000 
     73 O          -5.1404  -24.4966  -45.6160 O.2       12 UNK        -0.5000 
     74 N          -3.1455  -24.3075  -44.5494 N.am      13 UNK        -0.5000 
     75 CA         -2.9765  -25.7222  -44.2059 C.3       13 UNK         0.1400 
     76 CB         -1.7877  -25.8829  -43.2465 C.3       13 UNK        -0.1800 
     77 C          -2.8112  -26.6230  -45.4449 C.2       13 UNK         0.5000 
     78 O          -3.3736  -27.7178  -45.4808 O.2       13 UNK        -0.5000 
     79 N          -2.0769  -26.1301  -46.4516 N.am      14 UNK        -0.5000 
     80 CA         -1.8939  -26.7877  -47.7484 C.3       14 UNK         0.1400 
     81 CB         -0.6422  -26.2040  -48.4226 C.3       14 UNK        -0.1800 
     82 C          -3.1119  -26.6563  -48.6889 C.2       14 UNK         0.5000 
     83 O          -3.1489  -27.3374  -49.7134 O.2       14 UNK        -0.5000 
     84 N          -4.0540  -25.7607  -48.3531 N.am      15 UNK        -0.5000 
     85 CA         -5.2417  -25.3494  -49.1174 C.3       15 UNK         0.1400 
     86 CB         -6.1860  -26.5380  -49.3851 C.3       15 UNK        -0.1800 
     87 C          -4.9256  -24.5511  -50.4020 C.2       15 UNK         0.5000 
     88 O          -5.8356  -24.2461  -51.1739 O.2       15 UNK        -0.5000 
     89 N          -3.6564  -24.1689  -50.5858 N.am      16 UNK        -0.5000 
     90 CA         -3.1651  -23.3213  -51.6682 C.3       16 UNK         0.1400 
     91 CB         -1.6302  -23.3005  -51.6291 C.3       16 UNK        -0.1800 
     92 C          -3.7357  -21.8938  -51.6100 C.2       16 UNK         0.5000 
     93 O          -4.0192  -21.3194  -52.6589 O.2       16 UNK        -0.5000 
     94 N          -3.9423  -21.3640  -50.3955 N.am      17 UNK        -0.5000 
     95 CA         -4.5540  -20.0520  -50.1680 C.3       17 UNK         0.1400 
     96 CB         -4.3426  -19.6182  -48.7091 C.3       17 UNK        -0.1800 
     97 C          -6.0514  -20.0400  -50.5240 C.2       17 UNK         0.5000 
     98 O          -6.5403  -19.0437  -51.0555 O.2       17 UNK        -0.5000 
     99 N          -6.7413  -21.1602  -50.2623 N.am      18 UNK        -0.5000 
    100 CA        -8.1453  -21.3734  -50.6204 C.3       18 UNK         0.1400 
    101 CB        -8.6941  -22.5847  -49.8505 C.3       18 UNK        -0.1800 
    102 C         -8.3331  -21.5505  -52.1386 C.2       18 UNK         0.5000 
    103 O         -9.3078  -21.0453  -52.6959 O.2       18 UNK        -0.5000 
    104 N         -7.3741  -22.2298  -52.7831 N.am      19 UNK        -0.5000 
    105 CA        -7.2906  -22.3917  -54.2364 C.3       19 UNK         0.1400 
    106 CB        -6.3210  -23.5438  -54.5447 C.3       19 UNK        -0.1800 
    107 C         -6.8480  -21.1107  -54.9765 C.2       19 UNK         0.5000 
    108 O         -7.0052  -21.0414  -56.1960 O.2       19 UNK        -0.5000 
    109 N         -6.2883  -20.1419  -54.2354 N.am      20 UNK        -0.5000 
    110 CA        -5.6627  -18.8982  -54.6982 C.3       20 UNK         0.1400 
    111 CB        -6.6989  -17.9654  -55.3590 C.3       20 UNK        -0.1800 
    112 C         -4.4185  -19.1553  -55.5768 C.2       20 UNK         0.5000 
    113 O         -4.1793  -18.4370  -56.5499 O.2       20 UNK        -0.5000 
    114 N         -3.6533  -20.1906  -55.2142 N.am      21 UNK        -0.5000 
    115 CA        -2.4019  -20.5853  -55.8501 C.3       21 UNK         0.1400 
    116 CB        -2.2090  -22.0958  -55.6389 C.3       21 UNK        -0.1800 
    117 C         -1.2144  -19.7953  -55.2705 C.2       21 UNK         0.5000 
    118 O         -1.3064  -19.2488  -54.1695 O.2       21 UNK        -0.5000 
    119 N         -0.1107  -19.7721  -56.0230 N.am      22 UNK        -0.5000 
    120 CA         1.1488  -19.0955  -55.6741 C.3       22 UNK         0.1400 
    121 C          2.3822  -19.8357  -56.2767 C.2       22 UNK         0.5000 
    122 N          2.3060  -21.1382  -56.5273 N.am      22 UNK        -0.7600 
    123 O          3.4248  -19.2392  -56.5284 O.2       22 UNK        -0.5000 
    124 C124        1.0807  -17.5781  -56.0200 C.3       23 UNK        -0.0398 
    125 S125        2.2364  -16.4130  -55.1966 S.3       23 UNK        -0.2404 
    126 C126        2.8885  -17.2601  -53.7103 C.3       23 UNK        -0.0205 
    127 H127       -5.7851  -13.4362  -47.7968 H         1 UNK         0.0600 
    128 H128       -5.8653  -13.7481  -46.0602 H         1 UNK         0.0600 
    129 H129       -6.2678  -15.0296  -47.2083 H         1 UNK         0.0600 
    130 H130       -3.7098  -13.4189  -48.5620 H         1 UNK         0.3000 
    131 H131       -1.5702  -13.7694  -48.9224 H         1 UNK         0.0600 
    132 H132       -0.5532  -15.9805  -48.7344 H         1 UNK         0.0800 
    133 H133       -1.8081  -16.5456  -47.6734 H         1 UNK         0.0800 
    134 H134       -1.2151  -15.1213  -51.3537 H         1 UNK         0.0800 
    135 H135       -2.0374  -16.3727  -52.2531 H         1 UNK         0.0800 
    136 H136        0.4206  -16.0474  -53.2009 H         1 UNK         0.1150 
    137 H137        3.1652  -18.9498  -51.6382 H         1 UNK         0.1150 
    138 H138       -0.4916  -18.1560  -49.5876 H         1 UNK         0.1150 
    139 H139        1.5978  -19.1408  -48.4163 H         1 UNK         0.0800 
    140 H140        2.8565  -19.7833  -49.4263 H         1 UNK         0.0800 
    141 H141       -1.4282  -20.8894  -49.3622 H         1 UNK         0.0800 
    142 H142       -0.6519  -19.9268  -48.1341 H         1 UNK         0.0800 
    143 H143       -0.5692  -22.9540  -48.0426 H         1 UNK         0.0600 
    144 H144        0.2715  -20.9287  -46.1468 H         1 UNK         0.3000 
    145 H145        1.3011  -23.4932  -43.7952 H         1 UNK         0.0600 
    146 H146        3.0542  -23.0123  -45.5250 H         1 UNK         0.0600 
    147 H147        3.3304  -22.1152  -44.0396 H         1 UNK         0.0600 
    148 H148        2.6583  -21.2987  -45.4490 H         1 UNK         0.0600 
    149 H149        1.2975  -20.6922  -43.4599 H         1 UNK         0.3000 
    150 H150       -1.8382  -20.4658  -41.6967 H         1 UNK         0.0600 
    151 H151        1.1270  -20.1146  -40.9997 H         1 UNK         0.0600 
    152 H152        0.0079  -21.1888  -40.1677 H         1 UNK         0.0600 
    153 H153       -0.2382  -19.4492  -40.1082 H         1 UNK         0.0600 
    154 H154       -0.0382  -18.4085  -42.4088 H         1 UNK         0.3000 
    155 H155       -1.5623  -17.5022  -45.5358 H         1 UNK         0.0600 
    156 H156       -1.5458  -15.3619  -44.2987 H         1 UNK         0.0600 
    157 H157       -1.2649  -16.1967  -42.7737 H         1 UNK         0.0600 
    158 H158       -2.7712  -16.4260  -43.6456 H         1 UNK         0.0600 
    159 H159        0.7641  -16.5072  -44.2724 H         1 UNK         0.3000 
    160 H160        3.1601  -18.6761  -45.8083 H         1 UNK         0.0600 
    161 H161        2.4102  -15.7293  -46.1558 H         1 UNK         0.0600 
    162 H162        2.5859  -16.8955  -47.4598 H         1 UNK         0.0600 
    163 H163        3.9891  -16.4318  -46.5051 H         1 UNK         0.0600 
    164 H164        3.4208  -16.4772  -44.0003 H         1 UNK         0.3000 
    165 H165        3.2399  -18.3728  -40.9661 H         1 UNK         0.0600 
    166 H166        5.5732  -18.6365  -41.8428 H         1 UNK         0.0600 
    167 H167        5.5583  -16.9664  -42.4002 H         1 UNK         0.0600 
    168 H168        5.4654  -17.3262  -40.6770 H         1 UNK         0.0600 
    169 H169        3.7265  -15.6273  -41.3106 H         1 UNK         0.3000 
    170 H170        0.4327  -14.4290  -41.6306 H         1 UNK         0.0600 
    171 H171        0.8282  -13.3162  -39.4462 H         1 UNK         0.0600 
    172 H172        2.0798  -14.4938  -39.0502 H         1 UNK         0.0600 
    173 H173        0.4098  -15.0084  -39.2286 H         1 UNK         0.0600 
    174 H174        1.9019  -13.0227  -42.4423 H         1 UNK         0.3000 
    175 H175        4.1455  -11.3048  -41.6374 H         1 UNK         0.0600 
    176 H176        6.0162  -13.3809  -42.8927 H         1 UNK         0.0600 
    177 H177        6.2890  -12.4888  -41.4029 H         1 UNK         0.0600 
    178 H178        6.2674  -11.6362  -42.9361 H         1 UNK         0.0600 
    179 H179        3.2685  -11.0218  -43.6402 H         1 UNK         0.3000 
    180 H180        3.0493  -11.1303  -45.8520 H         1 UNK         0.0600 
    181 H181        3.2674  -13.8642  -47.2163 H         1 UNK         0.0600 
    182 H182        4.5274  -12.6389  -47.1903 H         1 UNK         0.0600 
    183 H183        3.0036  -12.3129  -48.0020 H         1 UNK         0.0600 
    184 H184        1.1228  -13.3420  -46.1865 H         1 UNK         0.3000 
    185 H185       -0.8519  -13.1627  -44.2763 H         1 UNK         0.0600 
    186 H186       -1.5808  -10.9593  -43.4285 H         1 UNK         0.0600 
    187 H187       -1.9646  -10.4287  -45.0627 H         1 UNK         0.0600 
    188 H188       -2.8792  -11.7375  -44.3124 H         1 UNK         0.0600 
    189 H189       -2.2050  -12.3387  -46.6306 H         1 UNK         0.3000 
    190 H190       -2.2731  -21.3562  -45.3980 H         1 UNK         0.3000 
    191 H191       -4.8975  -22.1375  -46.3484 H         1 UNK         0.0600 
    192 H192       -4.7149  -20.4338  -44.5992 H         1 UNK         0.0600 
    193 H193       -5.5650  -21.8268  -43.9576 H         1 UNK         0.0600 
    194 H194       -3.8819  -21.5589  -43.5219 H         1 UNK         0.0600 
    195 H195       -2.4144  -23.6762  -44.2394 H         1 UNK         0.3000 
    196 H196       -3.8779  -26.0464  -43.6816 H         1 UNK         0.0600 
    197 H197       -1.6562  -26.9266  -42.9583 H         1 UNK         0.0600 
    198 H198       -1.9403  -25.3095  -42.3319 H         1 UNK         0.0600 
    199 H199       -0.8542  -25.5465  -43.6981 H         1 UNK         0.0600 
    200 H200       -1.5741  -25.2603  -46.3018 H         1 UNK         0.3000 
    201 H201       -1.7232  -27.8526  -47.5776 H         1 UNK         0.0600 
    202 H202       -0.4121  -26.7351  -49.3472 H         1 UNK         0.0600 
    203 H203        0.2317  -26.2856  -47.7757 H         1 UNK         0.0600 
    204 H204       -0.7757  -25.1530  -48.6759 H         1 UNK         0.0600 
    205 H205       -3.9196  -25.2554  -47.4872 H         1 UNK         0.3000 
    206 H206       -5.7749  -24.6538  -48.4679 H         1 UNK         0.0600 
    207 H207       -6.4077  -27.0799  -48.4657 H         1 UNK         0.0600 
    208 H208       -7.1364  -26.1953  -49.7959 H         1 UNK         0.0600 
    209 H209       -5.7613  -27.2437  -50.0992 H         1 UNK         0.0600 
    210 H210       -3.0004  -24.3923  -49.8521 H         1 UNK         0.3000 
    211 H211       -3.4783  -23.7642  -52.6154 H         1 UNK         0.0600 
    212 H212       -1.2195  -24.2861  -51.8485 H         1 UNK         0.0600 
    213 H213       -1.2214  -22.6054  -52.3635 H         1 UNK         0.0600 
    214 H214       -1.2588  -22.9976  -50.6509 H         1 UNK         0.0600 
    215 H215       -3.7000  -21.9165  -49.5769 H         1 UNK         0.3000 
    216 H216       -4.0530  -19.3258  -50.8122 H         1 UNK         0.0600 
    217 H217       -4.7830  -20.3271  -48.0080 H         1 UNK         0.0600 
    218 H218       -4.8002  -18.6457  -48.5223 H         1 UNK         0.0600 
    219 H219       -3.2839  -19.5196  -48.4727 H         1 UNK         0.0600 
    220 H220       -6.2524  -21.9431  -49.8557 H         1 UNK         0.3000 
    221 H221       -8.7136  -20.4924  -50.3144 H         1 UNK         0.0600 
    222 H222       -8.1737  -23.5055  -50.1140 H         1 UNK         0.0600 
    223 H223       -8.6012  -22.4431  -48.7737 H         1 UNK         0.0600 
    224 H224       -9.7523  -22.7351  -50.0678 H         1 UNK         0.0600 
    225 H225       -6.6502  -22.6833  -52.2359 H         1 UNK         0.3000 
    226 H226       -8.2791  -22.6652  -54.6110 H         1 UNK         0.0600 
    227 H227       -6.6327  -24.4660  -54.0539 H         1 UNK         0.0600 
    228 H228       -6.2778  -23.7435  -55.6161 H         1 UNK         0.0600 
    229 H229       -5.3079  -23.3139  -54.2139 H         1 UNK         0.0600 
    230 H230       -6.1783  -20.3320  -53.2489 H         1 UNK         0.3000 
    231 H231       -5.2968  -18.3968  -53.8009 H         1 UNK         0.0600 
    232 H232       -7.0644  -18.3670  -56.3043 H         1 UNK         0.0600 
    233 H233       -6.2650  -16.9868  -55.5669 H         1 UNK         0.0600 
    234 H234       -7.5575  -17.8069  -54.7064 H         1 UNK         0.0600 
    235 H235       -3.8725  -20.6622  -54.3386 H         1 UNK         0.3000 
    236 H236       -2.4649  -20.3877  -56.9223 H         1 UNK         0.0600 
    237 H237       -2.1270  -22.3456  -54.5814 H         1 UNK         0.0600 
    238 H238       -3.0467  -22.6601  -56.0495 H         1 UNK         0.0600 
    239 H239       -1.3047  -22.4525  -56.1328 H         1 UNK         0.0600 
    240 H240       -0.1103  -20.2425  -56.9175 H         1 UNK         0.3000 
    241 H241        1.2642  -19.2030  -54.5968 H         1 UNK         0.0600 
    242 H242        1.4882  -21.6736  -56.2838 H         1 UNK         0.3800 
    243 H243        3.1073  -21.6080  -56.9199 H         1 UNK         0.3800 
    244 H244        1.1773  -17.4414  -57.0980 H         1 UNK         0.0800 
    245 H245        0.0854  -17.2040  -55.7766 H         1 UNK         0.0800 
    246 H246        3.3530  -18.2019  -54.0022 H         1 UNK         0.0800 
    247 H247        3.6979  -16.6451  -53.3152 H         1 UNK         0.0800 
@<TRIPOS>BOND
     1    1    2 1    
     2    1  127 1    
     3    1  128 1    
     4    1  129 1    
     5    2    3 2    
     6    2    4 am   BACKBONE|DICT|INTERRES
     7    4    5 1    
     8    4  130 1    
     9    5    6 1    
    10    5   65 1    
    11    5  131 1    
    12    6    7 1    
    13    6  132 1    
    14    6  133 1    
    15    7    8 1    
    16    8    9 1    
    17    8  134 1    
    18    8  135 1    
    19    9   10 ar   
    20    9   14 ar   
    21   10   11 ar   
    22   10  136 1    
    23   11   12 ar   
    24   11  126 1    
    25   12   13 ar   
    26   12  137 1    
    27   13   14 ar   
    28   13   15 1    
    29   14  138 1    
    30   15   16 1    
    31   15  139 1    
    32   15  140 1    
    33   16   17 1    
    34   17   18 1    
    35   17  141 1    
    36   17  142 1    
    37   18   19 1    
    38   18   67 1    
    39   18  143 1    
    40   19   20 am   BACKBONE|DICT|INTERRES
    41   19  144 1    
    42   20   21 2    
    43   20   22 1    
    44   22   23 1    
    45   22   24 1    
    46   22  145 1    
    47   23  146 1    
    48   23  147 1    
    49   23  148 1    
    50   24   25 am   BACKBONE|DICT|INTERRES
    51   24  149 1    
    52   25   26 2    
    53   25   27 1    
    54   27   28 1    
    55   27   29 1    
    56   27  150 1    
    57   28  151 1    
    58   28  152 1    
    59   28  153 1    
    60   29   30 am   BACKBONE|DICT|INTERRES
    61   29  154 1    
    62   30   31 2    
    63   30   32 1    
    64   32   33 1    
    65   32   34 1    
    66   32  155 1    
    67   33  156 1    
    68   33  157 1    
    69   33  158 1    
    70   34   35 am   BACKBONE|DICT|INTERRES
    71   34  159 1    
    72   35   36 2    
    73   35   37 1    
    74   37   38 1    
    75   37   39 1    
    76   37  160 1    
    77   38  161 1    
    78   38  162 1    
    79   38  163 1    
    80   39   40 am   BACKBONE|DICT|INTERRES
    81   39  164 1    
    82   40   41 2    
    83   40   42 1    
    84   42   43 1    
    85   42   44 1    
    86   42  165 1    
    87   43  166 1    
    88   43  167 1    
    89   43  168 1    
    90   44   45 am   BACKBONE|DICT|INTERRES
    91   44  169 1    
    92   45   46 2    
    93   45   47 1    
    94   47   48 1    
    95   47   49 1    
    96   47  170 1    
    97   48  171 1    
    98   48  172 1    
    99   48  173 1    
   100   49   50 am   BACKBONE|DICT|INTERRES
   101   49  174 1    
   102   50   51 2    
   103   50   52 1    
   104   52   53 1    
   105   52   54 1    
   106   52  175 1    
   107   53  176 1    
   108   53  177 1    
   109   53  178 1    
   110   54   55 am   BACKBONE|DICT|INTERRES
   111   54  179 1    
   112   55   56 2    
   113   55   57 1    
   114   57   58 1    
   115   57   59 1    
   116   57  180 1    
   117   58  181 1    
   118   58  182 1    
   119   58  183 1    
   120   59   60 am   BACKBONE|DICT|INTERRES
   121   59  184 1    
   122   60   61 2    
   123   60   62 1    
   124   62   63 1    
   125   62   64 1    
   126   62  185 1    
   127   63  186 1    
   128   63  187 1    
   129   63  188 1    
   130   64   65 am   BACKBONE|DICT|INTERRES
   131   64  189 1    
   132   65   66 2    
   133   67   68 2    
   134   67   69 am   BACKBONE|DICT|INTERRES
   135   69   70 1    
   136   69  190 1    
   137   70   71 1    
   138   70   72 1    
   139   70  191 1    
   140   71  192 1    
   141   71  193 1    
   142   71  194 1    
   143   72   73 2    
   144   72   74 am   BACKBONE|DICT|INTERRES
   145   74   75 1    
   146   74  195 1    
   147   75   76 1    
   148   75   77 1    
   149   75  196 1    
   150   76  197 1    
   151   76  198 1    
   152   76  199 1    
   153   77   78 2    
   154   77   79 am   BACKBONE|DICT|INTERRES
   155   79   80 1    
   156   79  200 1    
   157   80   81 1    
   158   80   82 1    
   159   80  201 1    
   160   81  202 1    
   161   81  203 1    
   162   81  204 1    
   163   82   83 2    
   164   82   84 am   BACKBONE|DICT|INTERRES
   165   84   85 1    
   166   84  205 1    
   167   85   86 1    
   168   85   87 1    
   169   85  206 1    
   170   86  207 1    
   171   86  208 1    
   172   86  209 1    
   173   87   88 2    
   174   87   89 am   BACKBONE|DICT|INTERRES
   175   89   90 1    
   176   89  210 1    
   177   90   91 1    
   178   90   92 1    
   179   90  211 1    
   180   91  212 1    
   181   91  213 1    
   182   91  214 1    
   183   92   93 2    
   184   92   94 am   BACKBONE|DICT|INTERRES
   185   94   95 1    
   186   94  215 1    
   187   95   96 1    
   188   95   97 1    
   189   95  216 1    
   190   96  217 1    
   191   96  218 1    
   192   96  219 1    
   193   97   98 2    
   194   97   99 am   BACKBONE|DICT|INTERRES
   195   99  100 1    
   196   99  220 1    
   197  100  101 1    
   198  100  102 1    
   199  100  221 1    
   200  101  222 1    
   201  101  223 1    
   202  101  224 1    
   203  102  103 2    
   204  102  104 am   BACKBONE|DICT|INTERRES
   205  104  105 1    
   206  104  225 1    
   207  105  106 1    
   208  105  107 1    
   209  105  226 1    
   210  106  227 1    
   211  106  228 1    
   212  106  229 1    
   213  107  108 2    
   214  107  109 am   BACKBONE|DICT|INTERRES
   215  109  110 1    
   216  109  230 1    
   217  110  111 1    
   218  110  112 1    
   219  110  231 1    
   220  111  232 1    
   221  111  233 1    
   222  111  234 1    
   223  112  113 2    
   224  112  114 am   BACKBONE|DICT|INTERRES
   225  114  115 1    
   226  114  235 1    
   227  115  116 1    
   228  115  117 1    
   229  115  236 1    
   230  116  237 1    
   231  116  238 1    
   232  116  239 1    
   233  117  118 2    
   234  117  119 am   BACKBONE|DICT|INTERRES
   235  119  120 1    
   236  119  240 1    
   237  120  121 1    
   238  120  124 1    
   239  120  241 1    
   240  121  122 am   BACKBONE|DICT|INTERRES
   241  121  123 2    
   242  122  242 1    
   243  122  243 1    
   244  124  125 1    
   245  124  244 1    
   246  124  245 1    
   247  125  126 1    
   248  126  246 1    
   249  126  247 1    
@<TRIPOS>SUBSTRUCTURE
     1 UNK         1 GROUP             0       ****    0 ROOT    
