@<TRIPOS>MOLECULE
3R540
247   249    1
SMALL
USER_CHARGES


@<TRIPOS>ATOM
      1 CA         -4.3416  -16.1972  -48.0529 C.3       0 UNK        -0.1800 
      2 C          -3.6168  -15.4995  -49.1951 C.2       0 UNK         0.5000 
      3 O          -4.2598  -15.0325  -50.1347 O.2       0 UNK        -0.5000 
      4 N          -2.2833  -15.4345  -49.1116 N.am      1 UNK        -0.5000 
      5 CA         -1.4057  -14.6974  -50.0244 C.3       1 UNK         0.1400 
      6 C6         -0.1215  -15.5153  -50.3365 C.3       23 UNK        -0.0398 
      7 S7          0.9418  -15.8202  -48.8765 S.3       23 UNK        -0.2404 
      8 C8          2.6073  -15.8085  -49.6081 C.3       23 UNK        -0.0205 
      9 C9          3.0234  -17.1970  -50.0684 C.ar      23 UNK        -0.0193 
     10 C10         2.4616  -17.7628  -51.2179 C.ar      23 UNK        -0.1150 
     11 C11         2.8410  -19.0416  -51.6352 C.ar      23 UNK        -0.0193 
     12 C12         3.8061  -19.7436  -50.9117 C.ar      23 UNK        -0.1150 
     13 C13         4.3658  -19.1952  -49.7564 C.ar      23 UNK        -0.0193 
     14 C14         3.9732  -17.9203  -49.3399 C.ar      23 UNK        -0.1150 
     15 C15         5.3763  -19.9954  -48.9499 C.3       23 UNK        -0.0205 
     16 S16         4.6440  -20.6584  -47.4218 S.3       23 UNK        -0.2404 
     17 C17         3.2364  -21.6376  -48.0535 C.3       23 UNK        -0.0398 
     18 CA          3.0768  -22.9812  -47.3090 C.3       11 UNK         0.1400 
     19 N           2.7585  -22.8096  -45.8898 N.am      11 UNK        -0.5000 
     20 C           2.8566  -23.7765  -44.9668 C.2       10 UNK         0.5000 
     21 O           3.2403  -24.9213  -45.2106 O.2       10 UNK        -0.5000 
     22 CA          2.4521  -23.4092  -43.5281 C.3       10 UNK         0.1400 
     23 CB          3.6374  -22.7986  -42.7649 C.3       10 UNK        -0.1800 
     24 N           1.3173  -22.4885  -43.4961 N.am      10 UNK        -0.5000 
     25 C           0.0600  -22.8391  -43.7976 C.2       9 UNK         0.5000 
     26 O          -0.2860  -23.9975  -44.0312 O.2       9 UNK        -0.5000 
     27 CA         -0.9857  -21.7120  -43.8626 C.3       9 UNK         0.1400 
     28 CB         -1.6315  -21.4812  -42.4894 C.3       9 UNK        -0.1800 
     29 N          -0.4467  -20.4452  -44.3611 N.am      9 UNK        -0.5000 
     30 C          -0.0186  -20.2341  -45.6146 C.2       8 UNK         0.5000 
     31 O          -0.0497  -21.0767  -46.5108 O.2       8 UNK        -0.5000 
     32 CA          0.5335  -18.8337  -45.9222 C.3       8 UNK         0.1400 
     33 CB         -0.6338  -17.8808  -46.2099 C.3       8 UNK        -0.1800 
     34 N           1.3613  -18.2891  -44.8436 N.am      8 UNK        -0.5000 
     35 C           2.4615  -18.8850  -44.3596 C.2       7 UNK         0.5000 
     36 O           2.8966  -19.9580  -44.7740 O.2       7 UNK        -0.5000 
     37 CA          3.1431  -18.2146  -43.1552 C.3       7 UNK         0.1400 
     38 CB          3.7610  -16.8618  -43.5369 C.3       7 UNK        -0.1800 
     39 N           2.2209  -18.0392  -42.0334 N.am      7 UNK        -0.5000 
     40 C           1.6109  -19.0404  -41.3819 C.2       6 UNK         0.5000 
     41 O           1.8016  -20.2311  -41.6240 O.2       6 UNK        -0.5000 
     42 CA          0.5959  -18.6546  -40.2895 C.3       6 UNK         0.1400 
     43 CB          1.2719  -18.6447  -38.9103 C.3       6 UNK        -0.1800 
     44 N          -0.0637  -17.3652  -40.5081 N.am      6 UNK        -0.5000 
     45 C          -0.8311  -17.0490  -41.5607 C.2       5 UNK         0.5000 
     46 O          -1.0342  -17.8227  -42.5005 O.2       5 UNK        -0.5000 
     47 CA         -1.4731  -15.6416  -41.5487 C.3       5 UNK         0.1400 
     48 CB         -0.7893  -14.6546  -40.5799 C.3       5 UNK        -0.1800 
     49 N          -1.4663  -15.0484  -42.8822 N.am      5 UNK        -0.5000 
     50 C          -2.3839  -15.2560  -43.8308 C.2       4 UNK         0.5000 
     51 O          -3.4060  -15.9185  -43.6466 O.2       4 UNK        -0.5000 
     52 CA         -2.1568  -14.6072  -45.2170 C.3       4 UNK         0.1400 
     53 CB         -3.3556  -13.7143  -45.5818 C.3       4 UNK        -0.1800 
     54 N          -0.9295  -13.8218  -45.4214 N.am      4 UNK        -0.5000 
     55 C           0.3467  -14.2066  -45.2735 C.2       3 UNK         0.5000 
     56 O           0.6876  -15.2886  -44.7947 O.2       3 UNK        -0.5000 
     57 CA          1.4061  -13.2062  -45.7710 C.3       3 UNK         0.1400 
     58 CB          2.8373  -13.7694  -45.7072 C.3       3 UNK        -0.1800 
     59 N           1.1081  -12.8415  -47.1546 N.am      3 UNK        -0.5000 
     60 C           0.8390  -11.6096  -47.6072 C.2       2 UNK         0.5000 
     61 O           0.8221  -10.6071  -46.8927 O.2       2 UNK        -0.5000 
     62 CA          0.5264  -11.4706  -49.1141 C.3       2 UNK         0.1400 
     63 CB          1.7739  -10.9979  -49.8762 C.3       2 UNK        -0.1800 
     64 N           0.0445  -12.7146  -49.7230 N.am      2 UNK        -0.5000 
     65 C          -1.1436  -13.2772  -49.4594 C.2       1 UNK         0.5000 
     66 O          -1.9998  -12.7198  -48.7698 O.2       1 UNK        -0.5000 
     67 C           2.0649  -23.8958  -48.0303 C.2       11 UNK         0.5000 
     68 O           2.4931  -24.7750  -48.7802 O.2       11 UNK        -0.5000 
     69 N           0.7600  -23.7036  -47.7907 N.am      12 UNK        -0.5000 
     70 CA         -0.3038  -24.5351  -48.3527 C.3       12 UNK         0.1400 
     71 CB         -0.5476  -24.1792  -49.8316 C.3       12 UNK        -0.1800 
     72 C          -1.5890  -24.4054  -47.5239 C.2       12 UNK         0.5000 
     73 O          -1.8199  -23.3695  -46.8976 O.2       12 UNK        -0.5000 
     74 N          -2.4063  -25.4663  -47.5552 N.am      13 UNK        -0.5000 
     75 CA         -3.6368  -25.6359  -46.7791 C.3       13 UNK         0.1400 
     76 CB         -4.2768  -26.9803  -47.1570 C.3       13 UNK        -0.1800 
     77 C          -4.6582  -24.4974  -46.9559 C.2       13 UNK         0.5000 
     78 O          -4.7852  -23.9427  -48.0498 O.2       13 UNK        -0.5000 
     79 N          -5.3668  -24.1776  -45.8635 N.am      14 UNK        -0.5000 
     80 CA         -6.3978  -23.1355  -45.7551 C.3       14 UNK         0.1400 
     81 CB         -7.6488  -23.5336  -46.5658 C.3       14 UNK        -0.1800 
     82 C          -5.8910  -21.7122  -46.0862 C.2       14 UNK         0.5000 
     83 O          -6.6906  -20.8537  -46.4575 O.2       14 UNK        -0.5000 
     84 N          -4.5756  -21.5044  -45.9253 N.am      15 UNK        -0.5000 
     85 CA         -3.7905  -20.3193  -46.2640 C.3       15 UNK         0.1400 
     86 CB         -4.3176  -19.0513  -45.5635 C.3       15 UNK        -0.1800 
     87 C          -3.6497  -20.1518  -47.7865 C.2       15 UNK         0.5000 
     88 O          -4.5736  -19.6729  -48.4430 O.2       15 UNK        -0.5000 
     89 N          -2.4849  -20.5502  -48.3185 N.am      16 UNK        -0.5000 
     90 CA         -2.0669  -20.4010  -49.7181 C.3       16 UNK         0.1400 
     91 CB         -1.8128  -18.9185  -50.0542 C.3       16 UNK        -0.1800 
     92 C          -3.0218  -21.0849  -50.7210 C.2       16 UNK         0.5000 
     93 O          -3.3741  -20.4911  -51.7444 O.2       16 UNK        -0.5000 
     94 N          -3.4225  -22.3227  -50.3943 N.am      17 UNK        -0.5000 
     95 CA         -4.3363  -23.1856  -51.1512 C.3       17 UNK         0.1400 
     96 CB         -3.7521  -23.5442  -52.5338 C.3       17 UNK        -0.1800 
     97 C          -5.7532  -22.5852  -51.2234 C.2       17 UNK         0.5000 
     98 O          -6.3082  -22.4332  -52.3110 O.2       17 UNK        -0.5000 
     99 N          -6.2956  -22.2339  -50.0492 N.am      18 UNK        -0.5000 
    100 CA        -7.5948  -21.5824  -49.8401 C.3       18 UNK         0.1400 
    101 CB        -8.7519  -22.5290  -50.2263 C.3       18 UNK        -0.1800 
    102 C         -7.6838  -20.2029  -50.5270 C.2       18 UNK         0.5000 
    103 O         -8.6670  -19.9098  -51.2103 O.2       18 UNK        -0.5000 
    104 N         -6.6371  -19.3877  -50.3329 N.am      19 UNK        -0.5000 
    105 CA        -6.4450  -18.0371  -50.8682 C.3       19 UNK         0.1400 
    106 CB        -7.4568  -17.0523  -50.2472 C.3       19 UNK        -0.1800 
    107 C         -6.3993  -17.9718  -52.4088 C.2       19 UNK         0.5000 
    108 O         -6.7830  -16.9591  -52.9964 O.2       19 UNK        -0.5000 
    109 N         -5.8954  -19.0408  -53.0384 N.am      20 UNK        -0.5000 
    110 CA        -5.6779  -19.1344  -54.4836 C.3       20 UNK         0.1400 
    111 CB        -5.9238  -20.5847  -54.9283 C.3       20 UNK        -0.1800 
    112 C         -4.2643  -18.6758  -54.8922 C.2       20 UNK         0.5000 
    113 O         -3.9021  -18.8227  -56.0606 O.2       20 UNK        -0.5000 
    114 N         -3.4709  -18.1853  -53.9256 N.am      21 UNK        -0.5000 
    115 CA        -2.0544  -17.8184  -54.0418 C.3       21 UNK         0.1400 
    116 CB        -1.8797  -16.5642  -54.9219 C.3       21 UNK        -0.1800 
    117 C         -1.1932  -19.0139  -54.5001 C.2       21 UNK         0.5000 
    118 O         -0.3113  -18.8630  -55.3467 O.2       21 UNK        -0.5000 
    119 N         -1.5107  -20.1896  -53.9428 N.am      22 UNK        -0.5000 
    120 CA        -0.9486  -21.5094  -54.2709 C.3       22 UNK         0.1400 
    121 C         -1.3915  -22.0823  -55.6525 C.2       22 UNK         0.5000 
    122 N         -2.3031  -21.4532  -56.3861 N.am      22 UNK        -0.7600 
    123 O         -0.9231  -23.1425  -56.0579 O.2       22 UNK        -0.5000 
    124 C124        0.5867  -21.6148  -54.0577 C.3       23 UNK        -0.0398 
    125 S125        1.1198  -21.0595  -52.4019 S.3       23 UNK        -0.2404 
    126 C126        2.2132  -19.6778  -52.8619 C.3       23 UNK        -0.0205 
    127 H127       -4.9523  -17.0166  -48.4258 H         1 UNK         0.0600 
    128 H128       -4.9975  -15.4945  -47.5402 H         1 UNK         0.0600 
    129 H129       -3.6432  -16.6074  -47.3259 H         1 UNK         0.0600 
    130 H130       -1.8162  -15.8289  -48.3097 H         1 UNK         0.3000 
    131 H131       -1.9226  -14.5485  -50.9746 H         1 UNK         0.0600 
    132 H132       -0.4032  -16.4825  -50.7523 H         1 UNK         0.0800 
    133 H133        0.4523  -15.0274  -51.1252 H         1 UNK         0.0800 
    134 H134        2.6645  -15.1057  -50.4398 H         1 UNK         0.0800 
    135 H135        3.3062  -15.4383  -48.8564 H         1 UNK         0.0800 
    136 H136        1.7232  -17.2123  -51.7820 H         1 UNK         0.1150 
    137 H137        4.0991  -20.7319  -51.2373 H         1 UNK         0.1150 
    138 H138        4.4016  -17.4987  -48.4413 H         1 UNK         0.1150 
    139 H139        5.7825  -20.8179  -49.5408 H         1 UNK         0.0800 
    140 H140        6.2220  -19.3569  -48.6911 H         1 UNK         0.0800 
    141 H141        3.3912  -21.8263  -49.1165 H         1 UNK         0.0800 
    142 H142        2.3290  -21.0363  -47.9768 H         1 UNK         0.0800 
    143 H143        4.0418  -23.4911  -47.3588 H         1 UNK         0.0600 
    144 H144        2.5012  -21.8749  -45.5917 H         1 UNK         0.3000 
    145 H145        2.1629  -24.3300  -43.0171 H         1 UNK         0.0600 
    146 H146        3.3747  -22.5974  -41.7263 H         1 UNK         0.0600 
    147 H147        4.4899  -23.4787  -42.7594 H         1 UNK         0.0600 
    148 H148        3.9680  -21.8614  -43.2131 H         1 UNK         0.0600 
    149 H149        1.5203  -21.5241  -43.2562 H         1 UNK         0.3000 
    150 H150       -1.7666  -22.0431  -44.5476 H         1 UNK         0.0600 
    151 H151       -2.1048  -22.3930  -42.1233 H         1 UNK         0.0600 
    152 H152       -2.4011  -20.7104  -42.5386 H         1 UNK         0.0600 
    153 H153       -0.8945  -21.1742  -41.7477 H         1 UNK         0.0600 
    154 H154       -0.4034  -19.6750  -43.7040 H         1 UNK         0.3000 
    155 H155        1.1539  -18.9050  -46.8182 H         1 UNK         0.0600 
    156 H156       -1.2896  -18.2763  -46.9843 H         1 UNK         0.0600 
    157 H157       -0.2734  -16.9170  -46.5579 H         1 UNK         0.0600 
    158 H158       -1.2373  -17.7115  -45.3180 H         1 UNK         0.0600 
    159 H159        1.0718  -17.3949  -44.4632 H         1 UNK         0.3000 
    160 H160        3.9501  -18.8724  -42.8254 H         1 UNK         0.0600 
    161 H161        2.9950  -16.1287  -43.7840 H         1 UNK         0.0600 
    162 H162        4.4162  -16.9597  -44.4035 H         1 UNK         0.0600 
    163 H163        4.3588  -16.4576  -42.7200 H         1 UNK         0.0600 
    164 H164        1.9891  -17.0915  -41.7771 H         1 UNK         0.3000 
    165 H165       -0.1806  -19.4213  -40.2804 H         1 UNK         0.0600 
    166 H166        0.5467  -18.4690  -38.1156 H         1 UNK         0.0600 
    167 H167        1.7518  -19.6024  -38.7036 H         1 UNK         0.0600 
    168 H168        2.0390  -17.8721  -38.8437 H         1 UNK         0.0600 
    169 H169        0.0575  -16.6744  -39.7819 H         1 UNK         0.3000 
    170 H170       -2.5060  -15.7683  -41.2184 H         1 UNK         0.0600 
    171 H171       -0.8793  -14.9814  -39.5433 H         1 UNK         0.0600 
    172 H172        0.2709  -14.5325  -40.8062 H         1 UNK         0.0600 
    173 H173       -1.2531  -13.6695  -40.6373 H         1 UNK         0.0600 
    174 H174       -0.6150  -14.5840  -43.1641 H         1 UNK         0.3000 
    175 H175       -2.1239  -15.4284  -45.9315 H         1 UNK         0.0600 
    176 H176       -3.4086  -12.8356  -44.9380 H         1 UNK         0.0600 
    177 H177       -3.2974  -13.3708  -46.6133 H         1 UNK         0.0600 
    178 H178       -4.3005  -14.2495  -45.4812 H         1 UNK         0.0600 
    179 H179       -1.0789  -12.9050  -45.8181 H         1 UNK         0.3000 
    180 H180        1.3544  -12.3323  -45.1189 H         1 UNK         0.0600 
    181 H181        3.5570  -13.0632  -46.1213 H         1 UNK         0.0600 
    182 H182        2.9299  -14.7048  -46.2610 H         1 UNK         0.0600 
    183 H183        3.1329  -13.9610  -44.6758 H         1 UNK         0.0600 
    184 H184        1.0644  -13.6119  -47.8080 H         1 UNK         0.3000 
    185 H185       -0.2500  -10.7102  -49.2220 H         1 UNK         0.0600 
    186 H186        2.1467  -10.0567  -49.4699 H         1 UNK         0.0600 
    187 H187        2.5839  -11.7259  -49.8139 H         1 UNK         0.0600 
    188 H188        1.5526  -10.8296  -50.9303 H         1 UNK         0.0600 
    189 H189        0.7044  -13.2071  -50.3058 H         1 UNK         0.3000 
    190 H190        0.4500  -22.9654  -47.1623 H         1 UNK         0.3000 
    191 H191        0.0110  -25.5793  -48.2924 H         1 UNK         0.0600 
    192 H192        0.3020  -24.4630  -50.4525 H         1 UNK         0.0600 
    193 H193       -1.4212  -24.6973  -50.2291 H         1 UNK         0.0600 
    194 H194       -0.7054  -23.1120  -49.9652 H         1 UNK         0.0600 
    195 H195       -2.1472  -26.2523  -48.1327 H         1 UNK         0.3000 
    196 H196       -3.3447  -25.6745  -45.7277 H         1 UNK         0.0600 
    197 H197       -5.1841  -27.1604  -46.5788 H         1 UNK         0.0600 
    198 H198       -3.5991  -27.8114  -46.9605 H         1 UNK         0.0600 
    199 H199       -4.5500  -27.0106  -48.2127 H         1 UNK         0.0600 
    200 H200       -5.1884  -24.6923  -45.0120 H         1 UNK         0.3000 
    201 H201       -6.6889  -23.1033  -44.7043 H         1 UNK         0.0600 
    202 H202       -8.0337  -24.5000  -46.2406 H         1 UNK         0.0600 
    203 H203       -7.4332  -23.6057  -47.6307 H         1 UNK         0.0600 
    204 H204       -8.4538  -22.8087  -46.4401 H         1 UNK         0.0600 
    205 H205       -4.0259  -22.3110  -45.6642 H         1 UNK         0.3000 
    206 H206       -2.7994  -20.5039  -45.8618 H         1 UNK         0.0600 
    207 H207       -4.4624  -19.2209  -44.4966 H         1 UNK         0.0600 
    208 H208       -3.6067  -18.2322  -45.6609 H         1 UNK         0.0600 
    209 H209       -5.2645  -18.7095  -45.9819 H         1 UNK         0.0600 
    210 H210       -1.8001  -20.9886  -47.7088 H         1 UNK         0.3000 
    211 H211       -1.1071  -20.9090  -49.8062 H         1 UNK         0.0600 
    212 H212       -2.7340  -18.3359  -50.0465 H         1 UNK         0.0600 
    213 H213       -1.3663  -18.8214  -51.0434 H         1 UNK         0.0600 
    214 H214       -1.1177  -18.4667  -49.3476 H         1 UNK         0.0600 
    215 H215       -3.1510  -22.6816  -49.4889 H         1 UNK         0.3000 
    216 H216       -4.4217  -24.1188  -50.5942 H         1 UNK         0.0600 
    217 H217       -4.3707  -24.2912  -53.0322 H         1 UNK         0.0600 
    218 H218       -2.7498  -23.9622  -52.4427 H         1 UNK         0.0600 
    219 H219       -3.7010  -22.6786  -53.1934 H         1 UNK         0.0600 
    220 H220       -5.7561  -22.4309  -49.2137 H         1 UNK         0.3000 
    221 H221       -7.6781  -21.3901  -48.7720 H         1 UNK         0.0600 
    222 H222       -8.7842  -22.7153  -51.3001 H         1 UNK         0.0600 
    223 H223       -8.6628  -23.4916  -49.7236 H         1 UNK         0.0600 
    224 H224       -9.7140  -22.1024  -49.9409 H         1 UNK         0.0600 
    225 H225       -5.8902  -19.7041  -49.7152 H         1 UNK         0.3000 
    226 H226       -5.4495  -17.7352  -50.5442 H         1 UNK         0.0600 
    227 H227       -7.4497  -17.1145  -49.1590 H         1 UNK         0.0600 
    228 H228       -7.2122  -16.0230  -50.5122 H         1 UNK         0.0600 
    229 H229       -8.4736  -17.2472  -50.5890 H         1 UNK         0.0600 
    230 H230       -5.5863  -19.8319  -52.4865 H         1 UNK         0.3000 
    231 H231       -6.3926  -18.4968  -55.0075 H         1 UNK         0.0600 
    232 H232       -5.1846  -21.2640  -54.5029 H         1 UNK         0.0600 
    233 H233       -5.8691  -20.6797  -56.0133 H         1 UNK         0.0600 
    234 H234       -6.9120  -20.9292  -54.6232 H         1 UNK         0.0600 
    235 H235       -3.8526  -18.1709  -52.9911 H         1 UNK         0.3000 
    236 H236       -1.7158  -17.5617  -53.0377 H         1 UNK         0.0600 
    237 H237       -2.4967  -15.7414  -54.5610 H         1 UNK         0.0600 
    238 H238       -0.8443  -16.2220  -54.9116 H         1 UNK         0.0600 
    239 H239       -2.1499  -16.7557  -55.9608 H         1 UNK         0.0600 
    240 H240       -2.2613  -20.2058  -53.2572 H         1 UNK         0.3000 
    241 H241       -1.4007  -22.1826  -53.5441 H         1 UNK         0.0600 
    242 H242       -2.6914  -20.5635  -56.0999 H         1 UNK         0.3800 
    243 H243       -2.5793  -21.8517  -57.2693 H         1 UNK         0.3800 
    244 H244        0.9111  -22.6508  -54.1675 H         1 UNK         0.0800 
    245 H245        1.1169  -21.0557  -54.8297 H         1 UNK         0.0800 
    246 H246        3.0023  -20.0413  -53.5218 H         1 UNK         0.0800 
    247 H247        1.6483  -18.9381  -53.4298 H         1 UNK         0.0800 
@<TRIPOS>BOND
     1    1    2 1    
     2    1  127 1    
     3    1  128 1    
     4    1  129 1    
     5    2    3 2    
     6    2    4 am   BACKBONE|DICT|INTERRES
     7    4    5 1    
     8    4  130 1    
     9    5    6 1    
    10    5   65 1    
    11    5  131 1    
    12    6    7 1    
    13    6  132 1    
    14    6  133 1    
    15    7    8 1    
    16    8    9 1    
    17    8  134 1    
    18    8  135 1    
    19    9   10 ar   
    20    9   14 ar   
    21   10   11 ar   
    22   10  136 1    
    23   11   12 ar   
    24   11  126 1    
    25   12   13 ar   
    26   12  137 1    
    27   13   14 ar   
    28   13   15 1    
    29   14  138 1    
    30   15   16 1    
    31   15  139 1    
    32   15  140 1    
    33   16   17 1    
    34   17   18 1    
    35   17  141 1    
    36   17  142 1    
    37   18   19 1    
    38   18   67 1    
    39   18  143 1    
    40   19   20 am   BACKBONE|DICT|INTERRES
    41   19  144 1    
    42   20   21 2    
    43   20   22 1    
    44   22   23 1    
    45   22   24 1    
    46   22  145 1    
    47   23  146 1    
    48   23  147 1    
    49   23  148 1    
    50   24   25 am   BACKBONE|DICT|INTERRES
    51   24  149 1    
    52   25   26 2    
    53   25   27 1    
    54   27   28 1    
    55   27   29 1    
    56   27  150 1    
    57   28  151 1    
    58   28  152 1    
    59   28  153 1    
    60   29   30 am   BACKBONE|DICT|INTERRES
    61   29  154 1    
    62   30   31 2    
    63   30   32 1    
    64   32   33 1    
    65   32   34 1    
    66   32  155 1    
    67   33  156 1    
    68   33  157 1    
    69   33  158 1    
    70   34   35 am   BACKBONE|DICT|INTERRES
    71   34  159 1    
    72   35   36 2    
    73   35   37 1    
    74   37   38 1    
    75   37   39 1    
    76   37  160 1    
    77   38  161 1    
    78   38  162 1    
    79   38  163 1    
    80   39   40 am   BACKBONE|DICT|INTERRES
    81   39  164 1    
    82   40   41 2    
    83   40   42 1    
    84   42   43 1    
    85   42   44 1    
    86   42  165 1    
    87   43  166 1    
    88   43  167 1    
    89   43  168 1    
    90   44   45 am   BACKBONE|DICT|INTERRES
    91   44  169 1    
    92   45   46 2    
    93   45   47 1    
    94   47   48 1    
    95   47   49 1    
    96   47  170 1    
    97   48  171 1    
    98   48  172 1    
    99   48  173 1    
   100   49   50 am   BACKBONE|DICT|INTERRES
   101   49  174 1    
   102   50   51 2    
   103   50   52 1    
   104   52   53 1    
   105   52   54 1    
   106   52  175 1    
   107   53  176 1    
   108   53  177 1    
   109   53  178 1    
   110   54   55 am   BACKBONE|DICT|INTERRES
   111   54  179 1    
   112   55   56 2    
   113   55   57 1    
   114   57   58 1    
   115   57   59 1    
   116   57  180 1    
   117   58  181 1    
   118   58  182 1    
   119   58  183 1    
   120   59   60 am   BACKBONE|DICT|INTERRES
   121   59  184 1    
   122   60   61 2    
   123   60   62 1    
   124   62   63 1    
   125   62   64 1    
   126   62  185 1    
   127   63  186 1    
   128   63  187 1    
   129   63  188 1    
   130   64   65 am   BACKBONE|DICT|INTERRES
   131   64  189 1    
   132   65   66 2    
   133   67   68 2    
   134   67   69 am   BACKBONE|DICT|INTERRES
   135   69   70 1    
   136   69  190 1    
   137   70   71 1    
   138   70   72 1    
   139   70  191 1    
   140   71  192 1    
   141   71  193 1    
   142   71  194 1    
   143   72   73 2    
   144   72   74 am   BACKBONE|DICT|INTERRES
   145   74   75 1    
   146   74  195 1    
   147   75   76 1    
   148   75   77 1    
   149   75  196 1    
   150   76  197 1    
   151   76  198 1    
   152   76  199 1    
   153   77   78 2    
   154   77   79 am   BACKBONE|DICT|INTERRES
   155   79   80 1    
   156   79  200 1    
   157   80   81 1    
   158   80   82 1    
   159   80  201 1    
   160   81  202 1    
   161   81  203 1    
   162   81  204 1    
   163   82   83 2    
   164   82   84 am   BACKBONE|DICT|INTERRES
   165   84   85 1    
   166   84  205 1    
   167   85   86 1    
   168   85   87 1    
   169   85  206 1    
   170   86  207 1    
   171   86  208 1    
   172   86  209 1    
   173   87   88 2    
   174   87   89 am   BACKBONE|DICT|INTERRES
   175   89   90 1    
   176   89  210 1    
   177   90   91 1    
   178   90   92 1    
   179   90  211 1    
   180   91  212 1    
   181   91  213 1    
   182   91  214 1    
   183   92   93 2    
   184   92   94 am   BACKBONE|DICT|INTERRES
   185   94   95 1    
   186   94  215 1    
   187   95   96 1    
   188   95   97 1    
   189   95  216 1    
   190   96  217 1    
   191   96  218 1    
   192   96  219 1    
   193   97   98 2    
   194   97   99 am   BACKBONE|DICT|INTERRES
   195   99  100 1    
   196   99  220 1    
   197  100  101 1    
   198  100  102 1    
   199  100  221 1    
   200  101  222 1    
   201  101  223 1    
   202  101  224 1    
   203  102  103 2    
   204  102  104 am   BACKBONE|DICT|INTERRES
   205  104  105 1    
   206  104  225 1    
   207  105  106 1    
   208  105  107 1    
   209  105  226 1    
   210  106  227 1    
   211  106  228 1    
   212  106  229 1    
   213  107  108 2    
   214  107  109 am   BACKBONE|DICT|INTERRES
   215  109  110 1    
   216  109  230 1    
   217  110  111 1    
   218  110  112 1    
   219  110  231 1    
   220  111  232 1    
   221  111  233 1    
   222  111  234 1    
   223  112  113 2    
   224  112  114 am   BACKBONE|DICT|INTERRES
   225  114  115 1    
   226  114  235 1    
   227  115  116 1    
   228  115  117 1    
   229  115  236 1    
   230  116  237 1    
   231  116  238 1    
   232  116  239 1    
   233  117  118 2    
   234  117  119 am   BACKBONE|DICT|INTERRES
   235  119  120 1    
   236  119  240 1    
   237  120  121 1    
   238  120  124 1    
   239  120  241 1    
   240  121  122 am   BACKBONE|DICT|INTERRES
   241  121  123 2    
   242  122  242 1    
   243  122  243 1    
   244  124  125 1    
   245  124  244 1    
   246  124  245 1    
   247  125  126 1    
   248  126  246 1    
   249  126  247 1    
@<TRIPOS>SUBSTRUCTURE
     1 UNK         1 GROUP             0       ****    0 ROOT    
