@<TRIPOS>MOLECULE
3R540
247   249    1
SMALL
USER_CHARGES


@<TRIPOS>ATOM
      1 CA         -1.2363  -11.8758  -46.8413 C.3       0 UNK        -0.1800 
      2 C           0.2611  -11.8037  -46.5809 C.2       0 UNK         0.5000 
      3 O           0.6676  -11.5548  -45.4483 O.2       0 UNK        -0.5000 
      4 N           1.0738  -12.0149  -47.6268 N.am      1 UNK        -0.5000 
      5 CA          2.5453  -12.0968  -47.5985 C.3       1 UNK         0.1400 
      6 C6          3.0912  -13.3646  -46.8819 C.3       23 UNK        -0.0398 
      7 S7          2.2169  -14.9058  -47.3012 S.3       23 UNK        -0.2404 
      8 C8          3.0203  -15.4040  -48.8494 C.3       23 UNK        -0.0205 
      9 C9          2.2953  -16.5866  -49.4746 C.ar      23 UNK        -0.0193 
     10 C10         1.0405  -16.4024  -50.0638 C.ar      23 UNK        -0.1150 
     11 C11         0.3677  -17.4742  -50.6568 C.ar      23 UNK        -0.0193 
     12 C12         0.9650  -18.7371  -50.6675 C.ar      23 UNK        -0.1150 
     13 C13         2.2131  -18.9390  -50.0709 C.ar      23 UNK        -0.0193 
     14 C14         2.8728  -17.8604  -49.4725 C.ar      23 UNK        -0.1150 
     15 C15         2.8537  -20.3197  -50.0885 C.3       23 UNK        -0.0205 
     16 S16         2.4830  -21.2702  -48.5802 S.3       23 UNK        -0.2404 
     17 C17         0.6879  -21.5348  -48.7585 C.3       23 UNK        -0.0398 
     18 CA          0.1552  -22.6551  -47.8361 C.3       11 UNK         0.1400 
     19 N           0.2202  -22.2987  -46.4153 N.am      11 UNK        -0.5000 
     20 C          -0.0490  -23.1393  -45.4063 C.2       10 UNK         0.5000 
     21 O          -0.3370  -24.3257  -45.5636 O.2       10 UNK        -0.5000 
     22 CA         -0.0498  -22.5487  -43.9855 C.3       10 UNK         0.1400 
     23 CB          1.3819  -22.3894  -43.4529 C.3       10 UNK        -0.1800 
     24 N          -0.7589  -21.2706  -43.9098 N.am      10 UNK        -0.5000 
     25 C          -2.0701  -21.1190  -44.1471 C.2       9 UNK         0.5000 
     26 O          -2.8279  -22.0529  -44.4097 O.2       9 UNK        -0.5000 
     27 CA         -2.6236  -19.6817  -44.1329 C.3       9 UNK         0.1400 
     28 CB         -2.8600  -19.1977  -42.6950 C.3       9 UNK        -0.1800 
     29 N          -1.7589  -18.7339  -44.8355 N.am      9 UNK        -0.5000 
     30 C          -1.4563  -18.8014  -46.1404 C.2       8 UNK         0.5000 
     31 O          -1.9088  -19.6475  -46.9096 O.2       8 UNK        -0.5000 
     32 CA         -0.4320  -17.7817  -46.6625 C.3       8 UNK         0.1400 
     33 CB         -1.1160  -16.4322  -46.9386 C.3       8 UNK        -0.1800 
     34 N           0.6978  -17.6164  -45.7436 N.am      8 UNK        -0.5000 
     35 C           1.5431  -18.6038  -45.4087 C.2       7 UNK         0.5000 
     36 O           1.4714  -19.7451  -45.8595 O.2       7 UNK        -0.5000 
     37 CA          2.5939  -18.2936  -44.3300 C.3       7 UNK         0.1400 
     38 CB          3.7865  -17.5205  -44.9113 C.3       7 UNK        -0.1800 
     39 N           2.0142  -17.5619  -43.2040 N.am      7 UNK        -0.5000 
     40 C           1.1479  -18.1024  -42.3319 C.2       6 UNK         0.5000 
     41 O           0.8023  -19.2831  -42.3627 O.2       6 UNK        -0.5000 
     42 CA          0.5277  -17.1708  -41.2706 C.3       6 UNK         0.1400 
     43 CB          1.3810  -17.1675  -39.9939 C.3       6 UNK        -0.1800 
     44 N           0.3594  -15.7958  -41.7378 N.am      6 UNK        -0.5000 
     45 C          -0.3845  -15.4263  -42.7889 C.2       5 UNK         0.5000 
     46 O          -1.1162  -16.2006  -43.4069 O.2       5 UNK        -0.5000 
     47 CA         -0.2513  -13.9658  -43.2644 C.3       5 UNK         0.1400 
     48 CB         -1.4827  -13.1458  -42.8543 C.3       5 UNK        -0.1800 
     49 N           0.9591  -13.2682  -42.8108 N.am      5 UNK        -0.5000 
     50 C           2.2224  -13.6269  -43.0739 C.2       4 UNK         0.5000 
     51 O           2.5171  -14.6862  -43.6292 O.2       4 UNK        -0.5000 
     52 CA          3.3338  -12.6479  -42.6334 C.3       4 UNK         0.1400 
     53 CB          4.7365  -13.1217  -43.0567 C.3       4 UNK        -0.1800 
     54 N           3.1347  -11.2847  -43.1356 N.am      4 UNK        -0.5000 
     55 C           2.2839  -10.3833  -42.6203 C.2       3 UNK         0.5000 
     56 O           1.5238  -10.6371  -41.6842 O.2       3 UNK        -0.5000 
     57 CA          2.2714   -8.9691  -43.2277 C.3       3 UNK         0.1400 
     58 CB          3.1634   -8.0218  -42.4038 C.3       3 UNK        -0.1800 
     59 N           2.6862   -8.9690  -44.6286 N.am      3 UNK        -0.5000 
     60 C           2.4454   -8.0109  -45.5277 C.2       2 UNK         0.5000 
     61 O           1.8699   -6.9546  -45.2624 O.2       2 UNK        -0.5000 
     62 CA          2.8967   -8.2802  -46.9803 C.3       2 UNK         0.1400 
     63 CB          4.3677   -7.8734  -47.1921 C.3       2 UNK        -0.1800 
     64 N           2.6375   -9.6504  -47.4506 N.am      2 UNK        -0.5000 
     65 C           3.1856  -10.8042  -47.0390 C.2       1 UNK         0.5000 
     66 O           4.0848  -10.8691  -46.1965 O.2       1 UNK        -0.5000 
     67 C          -1.2689  -23.0736  -48.2541 C.2       11 UNK         0.5000 
     68 O          -1.4224  -24.1002  -48.9148 O.2       11 UNK        -0.5000 
     69 N          -2.2839  -22.3040  -47.8348 N.am      12 UNK        -0.5000 
     70 CA         -3.7013  -22.5869  -48.0666 C.3       12 UNK         0.1400 
     71 CB         -4.5522  -21.4224  -47.5358 C.3       12 UNK        -0.1800 
     72 C          -4.1544  -23.9229  -47.4521 C.2       12 UNK         0.5000 
     73 O          -4.8454  -24.6932  -48.1208 O.2       12 UNK        -0.5000 
     74 N          -3.7252  -24.1884  -46.2105 N.am      13 UNK        -0.5000 
     75 CA         -3.9703  -25.4414  -45.4973 C.3       13 UNK         0.1400 
     76 CB         -3.5298  -25.2965  -44.0330 C.3       13 UNK        -0.1800 
     77 C          -3.2822  -26.6486  -46.1598 C.2       13 UNK         0.5000 
     78 O          -3.9021  -27.7062  -46.2730 O.2       13 UNK        -0.5000 
     79 N          -2.0322  -26.4644  -46.6093 N.am      14 UNK        -0.5000 
     80 CA         -1.2494  -27.4724  -47.3271 C.3       14 UNK         0.1400 
     81 CB          0.2086  -27.0040  -47.4487 C.3       14 UNK        -0.1800 
     82 C          -1.8328  -27.8074  -48.7122 C.2       14 UNK         0.5000 
     83 O          -1.8626  -28.9796  -49.0897 O.2       14 UNK        -0.5000 
     84 N          -2.3044  -26.7804  -49.4331 N.am      15 UNK        -0.5000 
     85 CA         -2.9795  -26.9122  -50.7253 C.3       15 UNK         0.1400 
     86 CB         -3.0777  -25.5301  -51.3893 C.3       15 UNK        -0.1800 
     87 C          -4.3792  -27.5439  -50.6159 C.2       15 UNK         0.5000 
     88 O          -4.8465  -28.1398  -51.5865 O.2       15 UNK        -0.5000 
     89 N          -5.0356  -27.3673  -49.4593 N.am      16 UNK        -0.5000 
     90 CA         -6.3742  -27.8267  -49.0588 C.3       16 UNK         0.1400 
     91 CB         -6.4914  -29.3603  -49.1344 C.3       16 UNK        -0.1800 
     92 C          -7.5351  -27.1363  -49.8040 C.2       16 UNK         0.5000 
     93 O          -8.5746  -26.8764  -49.1982 O.2       16 UNK        -0.5000 
     94 N          -7.3279  -26.8083  -51.0844 N.am      17 UNK        -0.5000 
     95 CA         -8.2275  -26.0347  -51.9420 C.3       17 UNK         0.1400 
     96 CB         -7.8472  -26.3066  -53.4067 C.3       17 UNK        -0.1800 
     97 C          -8.2014  -24.5186  -51.6501 C.2       17 UNK         0.5000 
     98 O          -8.9437  -23.7720  -52.2883 O.2       17 UNK        -0.5000 
     99 N          -7.3272  -24.0831  -50.7305 N.am      18 UNK        -0.5000 
    100 CA        -7.0850  -22.7200  -50.2410 C.3       18 UNK         0.1400 
    101 CB        -8.3581  -22.0886  -49.6486 C.3       18 UNK        -0.1800 
    102 C         -6.4065  -21.7760  -51.2514 C.2       18 UNK         0.5000 
    103 O         -5.5786  -20.9595  -50.8454 O.2       18 UNK        -0.5000 
    104 N         -6.7250  -21.9164  -52.5430 N.am      19 UNK        -0.5000 
    105 CA        -6.1380  -21.1862  -53.6673 C.3       19 UNK         0.1400 
    106 CB        -7.0943  -21.2864  -54.8688 C.3       19 UNK        -0.1800 
    107 C         -4.7161  -21.6896  -53.9966 C.2       19 UNK         0.5000 
    108 O         -4.4726  -22.2193  -55.0834 O.2       19 UNK        -0.5000 
    109 N         -3.8003  -21.5382  -53.0333 N.am      20 UNK        -0.5000 
    110 CA        -2.3894  -21.9107  -53.1103 C.3       20 UNK         0.1400 
    111 CB        -1.8333  -21.9987  -51.6801 C.3       20 UNK        -0.1800 
    112 C         -1.6052  -20.9113  -53.9807 C.2       20 UNK         0.5000 
    113 O         -0.8636  -20.0823  -53.4531 O.2       20 UNK        -0.5000 
    114 N         -1.8504  -20.9612  -55.2965 N.am      21 UNK        -0.5000 
    115 CA        -1.3696  -20.0748  -56.3667 C.3       21 UNK         0.1400 
    116 CB         0.1694  -20.0269  -56.4276 C.3       21 UNK        -0.1800 
    117 C         -1.9770  -18.6573  -56.3251 C.2       21 UNK         0.5000 
    118 O         -2.2977  -18.1101  -57.3812 O.2       21 UNK        -0.5000 
    119 N         -2.1431  -18.0989  -55.1219 N.am      22 UNK        -0.5000 
    120 CA        -2.8304  -16.8322  -54.8411 C.3       22 UNK         0.1400 
    121 C         -4.3366  -16.8781  -55.2245 C.2       22 UNK         0.5000 
    122 N         -4.8749  -15.8041  -55.7855 N.am      22 UNK        -0.7600 
    123 O         -5.0299  -17.8626  -54.9754 O.2       22 UNK        -0.5000 
    124 C124       -2.6775  -16.4160  -53.3557 C.3       23 UNK        -0.0398 
    125 S125       -0.9366  -16.3163  -52.8113 S.3       23 UNK        -0.2404 
    126 C126       -1.0113  -17.2736  -51.2653 C.3       23 UNK        -0.0205 
    127 H127       -1.7081  -10.9284  -46.5810 H         1 UNK         0.0600 
    128 H128       -1.6832  -12.6600  -46.2302 H         1 UNK         0.0600 
    129 H129       -1.4570  -12.0921  -47.8868 H         1 UNK         0.0600 
    130 H130        0.6575  -12.2045  -48.5273 H         1 UNK         0.3000 
    131 H131        2.8593  -12.1556  -48.6414 H         1 UNK         0.0600 
    132 H132        3.0005  -13.2454  -45.8038 H         1 UNK         0.0800 
    133 H133        4.1560  -13.4935  -47.0822 H         1 UNK         0.0800 
    134 H134        3.0172  -14.5686  -49.5506 H         1 UNK         0.0800 
    135 H135        4.0656  -15.6470  -48.6528 H         1 UNK         0.0800 
    136 H136        0.5844  -15.4224  -50.0571 H         1 UNK         0.1150 
    137 H137        0.4534  -19.5670  -51.1345 H         1 UNK         0.1150 
    138 H138        3.8378  -18.0136  -49.0103 H         1 UNK         0.1150 
    139 H139        2.5263  -20.8808  -50.9653 H         1 UNK         0.0800 
    140 H140        3.9359  -20.2191  -50.1818 H         1 UNK         0.0800 
    141 H141        0.4979  -21.7814  -49.8035 H         1 UNK         0.0800 
    142 H142        0.1701  -20.5950  -48.5599 H         1 UNK         0.0800 
    143 H143        0.7911  -23.5320  -47.9754 H         1 UNK         0.0600 
    144 H144        0.5055  -21.3456  -46.2010 H         1 UNK         0.3000 
    145 H145       -0.5718  -23.2546  -43.3361 H         1 UNK         0.0600 
    146 H146        1.3807  -22.0529  -42.4161 H         1 UNK         0.0600 
    147 H147        1.9182  -23.3385  -43.4864 H         1 UNK         0.0600 
    148 H148        1.9538  -21.6686  -44.0371 H         1 UNK         0.0600 
    149 H149       -0.2051  -20.4585  -43.6577 H         1 UNK         0.3000 
    150 H150       -3.5860  -19.6911  -44.6481 H         1 UNK         0.0600 
    151 H151       -3.5551  -19.8560  -42.1726 H         1 UNK         0.0600 
    152 H152       -3.2866  -18.1945  -42.6806 H         1 UNK         0.0600 
    153 H153       -1.9349  -19.1761  -42.1196 H         1 UNK         0.0600 
    154 H154       -1.3713  -17.9714  -44.2881 H         1 UNK         0.3000 
    155 H155       -0.0380  -18.1616  -47.6076 H         1 UNK         0.0600 
    156 H156       -2.0024  -16.5668  -47.5598 H         1 UNK         0.0600 
    157 H157       -0.4591  -15.7529  -47.4770 H         1 UNK         0.0600 
    158 H158       -1.4327  -15.9376  -46.0209 H         1 UNK         0.0600 
    159 H159        0.8171  -16.7083  -45.3197 H         1 UNK         0.3000 
    160 H160        2.9718  -19.2472  -43.9547 H         1 UNK         0.0600 
    161 H161        3.4951  -16.5339  -45.2674 H         1 UNK         0.0600 
    162 H162        4.2250  -18.0562  -45.7542 H         1 UNK         0.0600 
    163 H163        4.5694  -17.3860  -44.1650 H         1 UNK         0.0600 
    164 H164        2.2167  -16.5671  -43.1587 H         1 UNK         0.3000 
    165 H165       -0.4609  -17.5611  -41.0219 H         1 UNK         0.0600 
    166 H166        0.9132  -16.5750  -39.2075 H         1 UNK         0.0600 
    167 H167        1.5061  -18.1794  -39.6060 H         1 UNK         0.0600 
    168 H168        2.3763  -16.7601  -40.1762 H         1 UNK         0.0600 
    169 H169        0.9318  -15.0918  -41.2965 H         1 UNK         0.3000 
    170 H170       -0.2126  -13.9981  -44.3549 H         1 UNK         0.0600 
    171 H171       -2.4024  -13.6177  -43.2026 H         1 UNK         0.0600 
    172 H172       -1.5534  -13.0429  -41.7709 H         1 UNK         0.0600 
    173 H173       -1.4486  -12.1454  -43.2867 H         1 UNK         0.0600 
    174 H174        0.8231  -12.3701  -42.3585 H         1 UNK         0.3000 
    175 H175        3.3145  -12.6222  -41.5419 H         1 UNK         0.0600 
    176 H176        4.8372  -13.1649  -44.1418 H         1 UNK         0.0600 
    177 H177        5.5095  -12.4542  -42.6756 H         1 UNK         0.0600 
    178 H178        4.9504  -14.1176  -42.6664 H         1 UNK         0.0600 
    179 H179        3.7165  -11.0261  -43.9194 H         1 UNK         0.3000 
    180 H180        1.2404   -8.6129  -43.1775 H         1 UNK         0.0600 
    181 H181        4.2141   -8.3071  -42.4672 H         1 UNK         0.0600 
    182 H182        2.8813   -8.0358  -41.3502 H         1 UNK         0.0600 
    183 H183        3.0752   -6.9907  -42.7458 H         1 UNK         0.0600 
    184 H184        3.1340   -9.8091  -44.9789 H         1 UNK         0.3000 
    185 H185        2.2887   -7.6354  -47.6168 H         1 UNK         0.0600 
    186 H186        4.5145   -6.8188  -46.9560 H         1 UNK         0.0600 
    187 H187        5.0474   -8.4431  -46.5582 H         1 UNK         0.0600 
    188 H188        4.6722   -8.0198  -48.2284 H         1 UNK         0.0600 
    189 H189        1.8674   -9.7286  -48.1005 H         1 UNK         0.3000 
    190 H190       -2.0762  -21.4440  -47.3314 H         1 UNK         0.3000 
    191 H191       -3.8539  -22.6539  -49.1450 H         1 UNK         0.0600 
    192 H192       -4.3439  -20.5048  -48.0864 H         1 UNK         0.0600 
    193 H193       -5.6184  -21.6244  -47.6351 H         1 UNK         0.0600 
    194 H194       -4.3583  -21.2299  -46.4812 H         1 UNK         0.0600 
    195 H195       -3.1991  -23.4768  -45.7110 H         1 UNK         0.3000 
    196 H196       -5.0465  -25.6259  -45.5100 H         1 UNK         0.0600 
    197 H197       -3.7162  -26.2151  -43.4754 H         1 UNK         0.0600 
    198 H198       -4.0777  -24.4964  -43.5349 H         1 UNK         0.0600 
    199 H199       -2.4659  -25.0720  -43.9521 H         1 UNK         0.0600 
    200 H200       -1.5716  -25.5770  -46.4279 H         1 UNK         0.3000 
    201 H201       -1.2606  -28.3885  -46.7331 H         1 UNK         0.0600 
    202 H202        0.6537  -26.8435  -46.4666 H         1 UNK         0.0600 
    203 H203        0.2873  -26.0711  -48.0073 H         1 UNK         0.0600 
    204 H204        0.8169  -27.7484  -47.9640 H         1 UNK         0.0600 
    205 H205       -2.1673  -25.8344  -49.0849 H         1 UNK         0.3000 
    206 H206       -2.3737  -27.5574  -51.3647 H         1 UNK         0.0600 
    207 H207       -2.0875  -25.1037  -51.5501 H         1 UNK         0.0600 
    208 H208       -3.5658  -25.5927  -52.3628 H         1 UNK         0.0600 
    209 H209       -3.6506  -24.8313  -50.7783 H         1 UNK         0.0600 
    210 H210       -4.5795  -26.7798  -48.7711 H         1 UNK         0.3000 
    211 H211       -6.4706  -27.5438  -48.0093 H         1 UNK         0.0600 
    212 H212       -6.4400  -29.7253  -50.1603 H         1 UNK         0.0600 
    213 H213       -7.4414  -29.6970  -48.7177 H         1 UNK         0.0600 
    214 H214       -5.6969  -29.8429  -48.5649 H         1 UNK         0.0600 
    215 H215       -6.4571  -27.1235  -51.5019 H         1 UNK         0.3000 
    216 H216       -9.2500  -26.3813  -51.7795 H         1 UNK         0.0600 
    217 H217       -8.5216  -25.7912  -54.0919 H         1 UNK         0.0600 
    218 H218       -7.9045  -27.3705  -53.6377 H         1 UNK         0.0600 
    219 H219       -6.8333  -25.9698  -53.6273 H         1 UNK         0.0600 
    220 H220       -6.7487  -24.7892  -50.2975 H         1 UNK         0.3000 
    221 H221       -6.3795  -22.8452  -49.4223 H         1 UNK         0.0600 
    222 H222       -9.1138  -21.8984  -50.4110 H         1 UNK         0.0600 
    223 H223       -8.8005  -22.7331  -48.8890 H         1 UNK         0.0600 
    224 H224       -8.1307  -21.1339  -49.1727 H         1 UNK         0.0600 
    225 H225       -7.4405  -22.5998  -52.7675 H         1 UNK         0.3000 
    226 H226       -6.0544  -20.1318  -53.3954 H         1 UNK         0.0600 
    227 H227       -8.0731  -20.8710  -54.6283 H         1 UNK         0.0600 
    228 H228       -6.7072  -20.7285  -55.7226 H         1 UNK         0.0600 
    229 H229       -7.2377  -22.3203  -55.1854 H         1 UNK         0.0600 
    230 H230       -4.1121  -21.1179  -52.1634 H         1 UNK         0.3000 
    231 H231       -2.3073  -22.8992  -53.5670 H         1 UNK         0.0600 
    232 H232       -2.4022  -22.7099  -51.0848 H         1 UNK         0.0600 
    233 H233       -1.8673  -21.0372  -51.1657 H         1 UNK         0.0600 
    234 H234       -0.7973  -22.3373  -51.6906 H         1 UNK         0.0600 
    235 H235       -2.5703  -21.6166  -55.5844 H         1 UNK         0.3000 
    236 H236       -1.7158  -20.5317  -57.2951 H         1 UNK         0.0600 
    237 H237        0.5034  -19.4781  -57.3088 H         1 UNK         0.0600 
    238 H238        0.5997  -19.5305  -55.5574 H         1 UNK         0.0600 
    239 H239        0.5939  -21.0289  -56.4880 H         1 UNK         0.0600 
    240 H240       -1.7956  -18.6121  -54.3186 H         1 UNK         0.3000 
    241 H241       -2.3479  -16.0695  -55.4554 H         1 UNK         0.0600 
    242 H242       -4.3275  -14.9827  -55.9930 H         1 UNK         0.3800 
    243 H243       -5.8545  -15.8168  -56.0242 H         1 UNK         0.3800 
    244 H244       -3.2207  -17.1125  -52.7143 H         1 UNK         0.0800 
    245 H245       -3.1311  -15.4373  -53.1895 H         1 UNK         0.0800 
    246 H246       -1.6508  -16.7563  -50.5485 H         1 UNK         0.0800 
    247 H247       -1.4810  -18.2392  -51.4602 H         1 UNK         0.0800 
@<TRIPOS>BOND
     1    1    2 1    
     2    1  127 1    
     3    1  128 1    
     4    1  129 1    
     5    2    3 2    
     6    2    4 am   BACKBONE|DICT|INTERRES
     7    4    5 1    
     8    4  130 1    
     9    5    6 1    
    10    5   65 1    
    11    5  131 1    
    12    6    7 1    
    13    6  132 1    
    14    6  133 1    
    15    7    8 1    
    16    8    9 1    
    17    8  134 1    
    18    8  135 1    
    19    9   10 ar   
    20    9   14 ar   
    21   10   11 ar   
    22   10  136 1    
    23   11   12 ar   
    24   11  126 1    
    25   12   13 ar   
    26   12  137 1    
    27   13   14 ar   
    28   13   15 1    
    29   14  138 1    
    30   15   16 1    
    31   15  139 1    
    32   15  140 1    
    33   16   17 1    
    34   17   18 1    
    35   17  141 1    
    36   17  142 1    
    37   18   19 1    
    38   18   67 1    
    39   18  143 1    
    40   19   20 am   BACKBONE|DICT|INTERRES
    41   19  144 1    
    42   20   21 2    
    43   20   22 1    
    44   22   23 1    
    45   22   24 1    
    46   22  145 1    
    47   23  146 1    
    48   23  147 1    
    49   23  148 1    
    50   24   25 am   BACKBONE|DICT|INTERRES
    51   24  149 1    
    52   25   26 2    
    53   25   27 1    
    54   27   28 1    
    55   27   29 1    
    56   27  150 1    
    57   28  151 1    
    58   28  152 1    
    59   28  153 1    
    60   29   30 am   BACKBONE|DICT|INTERRES
    61   29  154 1    
    62   30   31 2    
    63   30   32 1    
    64   32   33 1    
    65   32   34 1    
    66   32  155 1    
    67   33  156 1    
    68   33  157 1    
    69   33  158 1    
    70   34   35 am   BACKBONE|DICT|INTERRES
    71   34  159 1    
    72   35   36 2    
    73   35   37 1    
    74   37   38 1    
    75   37   39 1    
    76   37  160 1    
    77   38  161 1    
    78   38  162 1    
    79   38  163 1    
    80   39   40 am   BACKBONE|DICT|INTERRES
    81   39  164 1    
    82   40   41 2    
    83   40   42 1    
    84   42   43 1    
    85   42   44 1    
    86   42  165 1    
    87   43  166 1    
    88   43  167 1    
    89   43  168 1    
    90   44   45 am   BACKBONE|DICT|INTERRES
    91   44  169 1    
    92   45   46 2    
    93   45   47 1    
    94   47   48 1    
    95   47   49 1    
    96   47  170 1    
    97   48  171 1    
    98   48  172 1    
    99   48  173 1    
   100   49   50 am   BACKBONE|DICT|INTERRES
   101   49  174 1    
   102   50   51 2    
   103   50   52 1    
   104   52   53 1    
   105   52   54 1    
   106   52  175 1    
   107   53  176 1    
   108   53  177 1    
   109   53  178 1    
   110   54   55 am   BACKBONE|DICT|INTERRES
   111   54  179 1    
   112   55   56 2    
   113   55   57 1    
   114   57   58 1    
   115   57   59 1    
   116   57  180 1    
   117   58  181 1    
   118   58  182 1    
   119   58  183 1    
   120   59   60 am   BACKBONE|DICT|INTERRES
   121   59  184 1    
   122   60   61 2    
   123   60   62 1    
   124   62   63 1    
   125   62   64 1    
   126   62  185 1    
   127   63  186 1    
   128   63  187 1    
   129   63  188 1    
   130   64   65 am   BACKBONE|DICT|INTERRES
   131   64  189 1    
   132   65   66 2    
   133   67   68 2    
   134   67   69 am   BACKBONE|DICT|INTERRES
   135   69   70 1    
   136   69  190 1    
   137   70   71 1    
   138   70   72 1    
   139   70  191 1    
   140   71  192 1    
   141   71  193 1    
   142   71  194 1    
   143   72   73 2    
   144   72   74 am   BACKBONE|DICT|INTERRES
   145   74   75 1    
   146   74  195 1    
   147   75   76 1    
   148   75   77 1    
   149   75  196 1    
   150   76  197 1    
   151   76  198 1    
   152   76  199 1    
   153   77   78 2    
   154   77   79 am   BACKBONE|DICT|INTERRES
   155   79   80 1    
   156   79  200 1    
   157   80   81 1    
   158   80   82 1    
   159   80  201 1    
   160   81  202 1    
   161   81  203 1    
   162   81  204 1    
   163   82   83 2    
   164   82   84 am   BACKBONE|DICT|INTERRES
   165   84   85 1    
   166   84  205 1    
   167   85   86 1    
   168   85   87 1    
   169   85  206 1    
   170   86  207 1    
   171   86  208 1    
   172   86  209 1    
   173   87   88 2    
   174   87   89 am   BACKBONE|DICT|INTERRES
   175   89   90 1    
   176   89  210 1    
   177   90   91 1    
   178   90   92 1    
   179   90  211 1    
   180   91  212 1    
   181   91  213 1    
   182   91  214 1    
   183   92   93 2    
   184   92   94 am   BACKBONE|DICT|INTERRES
   185   94   95 1    
   186   94  215 1    
   187   95   96 1    
   188   95   97 1    
   189   95  216 1    
   190   96  217 1    
   191   96  218 1    
   192   96  219 1    
   193   97   98 2    
   194   97   99 am   BACKBONE|DICT|INTERRES
   195   99  100 1    
   196   99  220 1    
   197  100  101 1    
   198  100  102 1    
   199  100  221 1    
   200  101  222 1    
   201  101  223 1    
   202  101  224 1    
   203  102  103 2    
   204  102  104 am   BACKBONE|DICT|INTERRES
   205  104  105 1    
   206  104  225 1    
   207  105  106 1    
   208  105  107 1    
   209  105  226 1    
   210  106  227 1    
   211  106  228 1    
   212  106  229 1    
   213  107  108 2    
   214  107  109 am   BACKBONE|DICT|INTERRES
   215  109  110 1    
   216  109  230 1    
   217  110  111 1    
   218  110  112 1    
   219  110  231 1    
   220  111  232 1    
   221  111  233 1    
   222  111  234 1    
   223  112  113 2    
   224  112  114 am   BACKBONE|DICT|INTERRES
   225  114  115 1    
   226  114  235 1    
   227  115  116 1    
   228  115  117 1    
   229  115  236 1    
   230  116  237 1    
   231  116  238 1    
   232  116  239 1    
   233  117  118 2    
   234  117  119 am   BACKBONE|DICT|INTERRES
   235  119  120 1    
   236  119  240 1    
   237  120  121 1    
   238  120  124 1    
   239  120  241 1    
   240  121  122 am   BACKBONE|DICT|INTERRES
   241  121  123 2    
   242  122  242 1    
   243  122  243 1    
   244  124  125 1    
   245  124  244 1    
   246  124  245 1    
   247  125  126 1    
   248  126  246 1    
   249  126  247 1    
@<TRIPOS>SUBSTRUCTURE
     1 UNK         1 GROUP             0       ****    0 ROOT    
