@<TRIPOS>MOLECULE
3R540
247   249    1
SMALL
USER_CHARGES


@<TRIPOS>ATOM
      1 CA          2.4980  -17.9789  -48.8684 C.3       0 UNK        -0.1800 
      2 C           3.1623  -16.7923  -48.1932 C.2       0 UNK         0.5000 
      3 O           3.2976  -16.7616  -46.9714 O.2       0 UNK        -0.5000 
      4 N           3.6271  -15.8359  -49.0018 N.am      1 UNK        -0.5000 
      5 CA          4.3268  -14.6022  -48.6149 C.3       1 UNK         0.1400 
      6 C6          4.3521  -13.5592  -49.7671 C.3       23 UNK        -0.0398 
      7 S7          4.6187  -14.2708  -51.4328 S.3       23 UNK        -0.2404 
      8 C8          3.0247  -13.9156  -52.2457 C.3       23 UNK        -0.0205 
      9 C9          1.8841  -14.8003  -51.7525 C.ar      23 UNK        -0.0193 
     10 C10         1.6174  -16.0190  -52.3828 C.ar      23 UNK        -0.1150 
     11 C11         0.5196  -16.7956  -51.9977 C.ar      23 UNK        -0.0193 
     12 C12        -0.3039  -16.3563  -50.9568 C.ar      23 UNK        -0.1150 
     13 C13        -0.0377  -15.1495  -50.3015 C.ar      23 UNK        -0.0193 
     14 C14         1.0536  -14.3758  -50.7101 C.ar      23 UNK        -0.1150 
     15 C15        -0.9549  -14.6415  -49.1952 C.3       23 UNK        -0.0205 
     16 S16        -0.7746  -15.5725  -47.6372 S.3       23 UNK        -0.2404 
     17 C17        -1.9995  -16.9104  -47.8562 C.3       23 UNK        -0.0398 
     18 CA         -1.3496  -18.3098  -47.8791 C.3       11 UNK         0.1400 
     19 N          -0.6346  -18.6214  -46.6376 N.am      11 UNK        -0.5000 
     20 C           0.1956  -19.6619  -46.4927 C.2       10 UNK         0.5000 
     21 O           0.4507  -20.4629  -47.3891 O.2       10 UNK        -0.5000 
     22 CA          0.8038  -19.8794  -45.1016 C.3       10 UNK         0.1400 
     23 CB          2.0807  -19.0539  -44.9186 C.3       10 UNK        -0.1800 
     24 N          -0.1181  -19.5915  -44.0051 N.am      10 UNK        -0.5000 
     25 C          -1.2338  -20.2892  -43.7461 C.2       9 UNK         0.5000 
     26 O          -1.7154  -21.1102  -44.5290 O.2       9 UNK        -0.5000 
     27 CA         -1.9098  -20.0268  -42.3813 C.3       9 UNK         0.1400 
     28 CB         -2.7015  -21.2476  -41.8676 C.3       9 UNK        -0.1800 
     29 N          -0.9695  -19.5293  -41.3603 N.am      9 UNK        -0.5000 
     30 C           0.1078  -20.1826  -40.8916 C.2       8 UNK         0.5000 
     31 O           0.3853  -21.3398  -41.2099 O.2       8 UNK        -0.5000 
     32 CA          1.0581  -19.4335  -39.9397 C.3       8 UNK         0.1400 
     33 CB          2.5374  -19.7198  -40.2764 C.3       8 UNK        -0.1800 
     34 N           0.8500  -17.9820  -39.9149 N.am      8 UNK        -0.5000 
     35 C           1.1497  -17.2239  -38.8497 C.2       7 UNK         0.5000 
     36 O           1.4667  -17.6802  -37.7501 O.2       7 UNK        -0.5000 
     37 CA          1.1263  -15.7003  -39.0445 C.3       7 UNK         0.1400 
     38 CB          2.3484  -15.2380  -39.8534 C.3       7 UNK        -0.1800 
     39 N          -0.0976  -15.2408  -39.6938 N.am      7 UNK        -0.5000 
     40 C          -1.2681  -15.0741  -39.0632 C.2       6 UNK         0.5000 
     41 O          -1.4412  -15.3063  -37.8663 O.2       6 UNK        -0.5000 
     42 CA         -2.4422  -14.5397  -39.9058 C.3       6 UNK         0.1400 
     43 CB         -2.5703  -13.0174  -39.7407 C.3       6 UNK        -0.1800 
     44 N          -2.3189  -14.8524  -41.3306 N.am      6 UNK        -0.5000 
     45 C          -2.4792  -16.0770  -41.8481 C.2       5 UNK         0.5000 
     46 O          -2.7347  -17.0756  -41.1775 O.2       5 UNK        -0.5000 
     47 CA         -2.2629  -16.2076  -43.3665 C.3       5 UNK         0.1400 
     48 CB         -3.4764  -15.6503  -44.1259 C.3       5 UNK        -0.1800 
     49 N          -1.0476  -15.5273  -43.8160 N.am      5 UNK        -0.5000 
     50 C           0.1951  -15.8256  -43.4154 C.2       4 UNK         0.5000 
     51 O           0.4734  -16.7717  -42.6672 O.2       4 UNK        -0.5000 
     52 CA          1.2936  -14.8682  -43.8937 C.3       4 UNK         0.1400 
     53 CB          1.1688  -13.5071  -43.1782 C.3       4 UNK        -0.1800 
     54 N           2.6003  -15.4640  -43.6362 N.am      4 UNK        -0.5000 
     55 C           3.7544  -15.0520  -44.1717 C.2       3 UNK         0.5000 
     56 O           3.8436  -14.0765  -44.9205 O.2       3 UNK        -0.5000 
     57 CA          5.0284  -15.8523  -43.8479 C.3       3 UNK         0.1400 
     58 CB          4.8250  -17.0693  -42.9234 C.3       3 UNK        -0.1800 
     59 N           5.5949  -16.2769  -45.1210 N.am      3 UNK        -0.5000 
     60 C           6.8939  -16.2690  -45.4456 C.2       2 UNK         0.5000 
     61 O           7.8011  -16.0644  -44.6380 O.2       2 UNK        -0.5000 
     62 CA          7.2389  -16.4931  -46.9358 C.3       2 UNK         0.1400 
     63 CB          7.5651  -17.9712  -47.1975 C.3       2 UNK        -0.1800 
     64 N           6.1529  -16.0802  -47.8284 N.am      2 UNK        -0.5000 
     65 C           5.7213  -14.8188  -47.9755 C.2       1 UNK         0.5000 
     66 O           6.3603  -13.8439  -47.5761 O.2       1 UNK        -0.5000 
     67 C          -2.3903  -19.3879  -48.2296 C.2       11 UNK         0.5000 
     68 O          -2.5157  -19.7402  -49.4010 O.2       11 UNK        -0.5000 
     69 N          -3.0859  -19.9188  -47.2130 N.am      12 UNK        -0.5000 
     70 CA         -4.0382  -21.0170  -47.3678 C.3       12 UNK         0.1400 
     71 CB         -4.8968  -21.1547  -46.1021 C.3       12 UNK        -0.1800 
     72 C          -3.3286  -22.3380  -47.7016 C.2       12 UNK         0.5000 
     73 O          -3.7914  -23.0600  -48.5841 O.2       12 UNK        -0.5000 
     74 N          -2.2044  -22.6081  -47.0229 N.am      13 UNK        -0.5000 
     75 CA         -1.3479  -23.7718  -47.2533 C.3       13 UNK         0.1400 
     76 CB         -0.2630  -23.8366  -46.1681 C.3       13 UNK        -0.1800 
     77 C          -0.7246  -23.7800  -48.6612 C.2       13 UNK         0.5000 
     78 O          -0.7954  -24.7999  -49.3478 O.2       13 UNK        -0.5000 
     79 N          -0.1782  -22.6322  -49.0891 N.am      14 UNK        -0.5000 
     80 CA          0.3752  -22.4119  -50.4289 C.3       14 UNK         0.1400 
     81 CB          1.0546  -21.0350  -50.4819 C.3       14 UNK        -0.1800 
     82 C          -0.6794  -22.5391  -51.5440 C.2       14 UNK         0.5000 
     83 O          -0.3610  -23.0187  -52.6308 O.2       14 UNK        -0.5000 
     84 N          -1.9230  -22.1550  -51.2339 N.am      15 UNK        -0.5000 
     85 CA         -3.0991  -22.3161  -52.0849 C.3       15 UNK         0.1400 
     86 CB         -4.0732  -21.1614  -51.7989 C.3       15 UNK        -0.1800 
     87 C          -3.7768  -23.6948  -51.9455 C.2       15 UNK         0.5000 
     88 O          -4.9123  -23.8389  -52.3919 O.2       15 UNK        -0.5000 
     89 N          -3.0981  -24.6820  -51.3393 N.am      16 UNK        -0.5000 
     90 CA         -3.5188  -26.0810  -51.1954 C.3       16 UNK         0.1400 
     91 CB         -3.5185  -26.7845  -52.5691 C.3       16 UNK        -0.1800 
     92 C          -4.8564  -26.2306  -50.4410 C.2       16 UNK         0.5000 
     93 O          -5.7865  -26.8671  -50.9392 O.2       16 UNK        -0.5000 
     94 N          -4.9143  -25.6120  -49.2543 N.am      17 UNK        -0.5000 
     95 CA         -6.0808  -25.4602  -48.3798 C.3       17 UNK         0.1400 
     96 CB         -6.6771  -26.8203  -47.9573 C.3       17 UNK        -0.1800 
     97 C          -7.1113  -24.4812  -48.9761 C.2       17 UNK         0.5000 
     98 O          -8.3119  -24.7589  -48.9719 O.2       17 UNK        -0.5000 
     99 N          -6.5999  -23.3372  -49.4555 N.am      18 UNK        -0.5000 
    100 CA        -7.3352  -22.1876  -49.9920 C.3       18 UNK         0.1400 
    101 CB        -8.1208  -21.4815  -48.8673 C.3       18 UNK        -0.1800 
    102 C         -8.2058  -22.5229  -51.2218 C.2       18 UNK         0.5000 
    103 O         -9.3517  -22.0760  -51.3121 O.2       18 UNK        -0.5000 
    104 N         -7.6431  -23.2786  -52.1734 N.am      19 UNK        -0.5000 
    105 CA        -8.2729  -23.6705  -53.4357 C.3       19 UNK         0.1400 
    106 CB        -7.6130  -24.9649  -53.9452 C.3       19 UNK        -0.1800 
    107 C         -8.2338  -22.5284  -54.4753 C.2       19 UNK         0.5000 
    108 O         -7.6792  -22.6902  -55.5633 O.2       19 UNK        -0.5000 
    109 N         -8.8250  -21.3851  -54.1051 N.am      20 UNK        -0.5000 
    110 CA        -9.0536  -20.1511  -54.8687 C.3       20 UNK         0.1400 
    111 CB        -9.9079  -20.4265  -56.1212 C.3       20 UNK        -0.1800 
    112 C         -7.8019  -19.3244  -55.2320 C.2       20 UNK         0.5000 
    113 O         -7.9079  -18.0983  -55.2927 O.2       20 UNK        -0.5000 
    114 N         -6.6540  -19.9668  -55.4691 N.am      21 UNK        -0.5000 
    115 CA        -5.4076  -19.3284  -55.8881 C.3       21 UNK         0.1400 
    116 CB        -5.4465  -19.0743  -57.4078 C.3       21 UNK        -0.1800 
    117 C         -4.2013  -20.1976  -55.5049 C.2       21 UNK         0.5000 
    118 O         -4.3697  -21.3635  -55.1437 O.2       21 UNK        -0.5000 
    119 N         -3.0032  -19.6103  -55.6154 N.am      22 UNK        -0.5000 
    120 CA        -1.6995  -20.2319  -55.3135 C.3       22 UNK         0.1400 
    121 C         -1.2817  -21.4062  -56.2532 C.2       22 UNK         0.5000 
    122 N         -1.9785  -21.6698  -57.3517 N.am      22 UNK        -0.7600 
    123 O         -0.2958  -22.0865  -55.9864 O.2       22 UNK        -0.5000 
    124 C124       -0.5615  -19.1788  -55.2468 C.3       23 UNK        -0.0398 
    125 S125       -0.9107  -17.7694  -54.1371 S.3       23 UNK        -0.2404 
    126 C126        0.2066  -18.0880  -52.7356 C.3       23 UNK        -0.0205 
    127 H127        2.9388  -18.1791  -49.8452 H         1 UNK         0.0600 
    128 H128        1.4422  -17.7693  -49.0112 H         1 UNK         0.0600 
    129 H129        2.5995  -18.8773  -48.2605 H         1 UNK         0.0600 
    130 H130        3.4863  -15.9296  -49.9988 H         1 UNK         0.3000 
    131 H131        3.7323  -14.1612  -47.8117 H         1 UNK         0.0600 
    132 H132        3.4116  -13.0109  -49.7639 H         1 UNK         0.0800 
    133 H133        5.1076  -12.7894  -49.6008 H         1 UNK         0.0800 
    134 H134        3.1495  -14.0541  -53.3208 H         1 UNK         0.0800 
    135 H135        2.7720  -12.8626  -52.1123 H         1 UNK         0.0800 
    136 H136        2.2451  -16.3475  -53.1995 H         1 UNK         0.1150 
    137 H137       -1.1628  -16.9471  -50.6749 H         1 UNK         0.1150 
    138 H138        1.2392  -13.4262  -50.2301 H         1 UNK         0.1150 
    139 H139       -0.7354  -13.5941  -48.9829 H         1 UNK         0.0800 
    140 H140       -1.9909  -14.6577  -49.5357 H         1 UNK         0.0800 
    141 H141       -2.5654  -16.7394  -48.7731 H         1 UNK         0.0800 
    142 H142       -2.7275  -16.8469  -47.0486 H         1 UNK         0.0800 
    143 H143       -0.6256  -18.3250  -48.6924 H         1 UNK         0.0600 
    144 H144       -0.7771  -17.9990  -45.8573 H         1 UNK         0.3000 
    145 H145        1.0775  -20.9338  -45.0281 H         1 UNK         0.0600 
    146 H146        2.5511  -19.2862  -43.9641 H         1 UNK         0.0600 
    147 H147        2.8074  -19.2738  -45.7017 H         1 UNK         0.0600 
    148 H148        1.8780  -17.9835  -44.9494 H         1 UNK         0.0600 
    149 H149        0.1850  -18.9024  -43.3291 H         1 UNK         0.3000 
    150 H150       -2.6388  -19.2384  -42.5563 H         1 UNK         0.0600 
    151 H151       -3.5063  -21.5079  -42.5562 H         1 UNK         0.0600 
    152 H152       -3.1587  -21.0415  -40.9000 H         1 UNK         0.0600 
    153 H153       -2.0701  -22.1299  -41.7610 H         1 UNK         0.0600 
    154 H154       -1.1674  -18.5977  -41.0157 H         1 UNK         0.3000 
    155 H155        0.8474  -19.8431  -38.9497 H         1 UNK         0.0600 
    156 H156        2.7980  -19.3485  -41.2683 H         1 UNK         0.0600 
    157 H157        2.7528  -20.7887  -40.2569 H         1 UNK         0.0600 
    158 H158        3.2087  -19.2496  -39.5578 H         1 UNK         0.0600 
    159 H159        0.6261  -17.5355  -40.7986 H         1 UNK         0.3000 
    160 H160        1.1923  -15.2372  -38.0573 H         1 UNK         0.0600 
    161 H161        2.3434  -15.6471  -40.8623 H         1 UNK         0.0600 
    162 H162        3.2754  -15.5589  -39.3764 H         1 UNK         0.0600 
    163 H163        2.3837  -14.1512  -39.9291 H         1 UNK         0.0600 
    164 H164       -0.0528  -15.0536  -40.6828 H         1 UNK         0.3000 
    165 H165       -3.3567  -15.0025  -39.5286 H         1 UNK         0.0600 
    166 H166       -3.4398  -12.6343  -40.2751 H         1 UNK         0.0600 
    167 H167       -2.6912  -12.7470  -38.6908 H         1 UNK         0.0600 
    168 H168       -1.6883  -12.4958  -40.1145 H         1 UNK         0.0600 
    169 H169       -2.1079  -14.0840  -41.9499 H         1 UNK         0.3000 
    170 H170       -2.1607  -17.2638  -43.6141 H         1 UNK         0.0600 
    171 H171       -4.3844  -16.1937  -43.8614 H         1 UNK         0.0600 
    172 H172       -3.6478  -14.5970  -43.9003 H         1 UNK         0.0600 
    173 H173       -3.3490  -15.7365  -45.2027 H         1 UNK         0.0600 
    174 H174       -1.1816  -14.7416  -44.4367 H         1 UNK         0.3000 
    175 H175        1.1768  -14.7323  -44.9713 H         1 UNK         0.0600 
    176 H176        1.2926  -13.6046  -42.1000 H         1 UNK         0.0600 
    177 H177        1.9160  -12.7977  -43.5331 H         1 UNK         0.0600 
    178 H178        0.1946  -13.0508  -43.3562 H         1 UNK         0.0600 
    179 H179        2.5725  -16.2998  -43.0673 H         1 UNK         0.3000 
    180 H180        5.7094  -15.1557  -43.3546 H         1 UNK         0.0600 
    181 H181        4.1755  -17.8157  -43.3757 H         1 UNK         0.0600 
    182 H182        4.3933  -16.7766  -41.9657 H         1 UNK         0.0600 
    183 H183        5.7774  -17.5538  -42.7079 H         1 UNK         0.0600 
    184 H184        4.9084  -16.4229  -45.8572 H         1 UNK         0.3000 
    185 H185        8.1225  -15.8956  -47.1694 H         1 UNK         0.0600 
    186 H186        8.3881  -18.3066  -46.5651 H         1 UNK         0.0600 
    187 H187        6.7089  -18.6148  -46.9912 H         1 UNK         0.0600 
    188 H188        7.8655  -18.1319  -48.2331 H         1 UNK         0.0600 
    189 H189        5.5654  -16.8161  -48.1914 H         1 UNK         0.3000 
    190 H190       -2.8787  -19.6258  -46.2699 H         1 UNK         0.3000 
    191 H191       -4.7042  -20.7777  -48.1996 H         1 UNK         0.0600 
    192 H192       -4.2948  -21.3884  -45.2238 H         1 UNK         0.0600 
    193 H193       -5.6313  -21.9531  -46.2168 H         1 UNK         0.0600 
    194 H194       -5.4464  -20.2359  -45.8975 H         1 UNK         0.0600 
    195 H195       -1.9236  -21.9772  -46.2778 H         1 UNK         0.3000 
    196 H196       -1.9714  -24.6635  -47.1610 H         1 UNK         0.0600 
    197 H197        0.3558  -24.7266  -46.2881 H         1 UNK         0.0600 
    198 H198       -0.7038  -23.8770  -45.1717 H         1 UNK         0.0600 
    199 H199        0.3974  -22.9706  -46.2054 H         1 UNK         0.0600 
    200 H200       -0.1168  -21.8457  -48.4451 H         1 UNK         0.3000 
    201 H201        1.1354  -23.1753  -50.6060 H         1 UNK         0.0600 
    202 H202        1.8865  -20.9813  -49.7797 H         1 UNK         0.0600 
    203 H203        0.3570  -20.2352  -50.2315 H         1 UNK         0.0600 
    204 H204        1.4544  -20.8295  -51.4756 H         1 UNK         0.0600 
    205 H205       -2.0877  -21.7379  -50.3260 H         1 UNK         0.3000 
    206 H206       -2.7967  -22.2476  -53.1292 H         1 UNK         0.0600 
    207 H207       -3.6114  -20.1993  -52.0218 H         1 UNK         0.0600 
    208 H208       -4.9749  -21.2322  -52.4082 H         1 UNK         0.0600 
    209 H209       -4.3743  -21.1508  -50.7525 H         1 UNK         0.0600 
    210 H210       -2.1951  -24.4626  -50.9364 H         1 UNK         0.3000 
    211 H211       -2.7621  -26.5674  -50.5782 H         1 UNK         0.0600 
    212 H212       -4.2731  -26.3693  -53.2382 H         1 UNK         0.0600 
    213 H213       -3.7271  -27.8495  -52.4620 H         1 UNK         0.0600 
    214 H214       -2.5492  -26.6914  -53.0586 H         1 UNK         0.0600 
    215 H215       -4.1227  -25.0324  -48.9969 H         1 UNK         0.3000 
    216 H216       -5.7082  -24.9823  -47.4724 H         1 UNK         0.0600 
    217 H217       -7.4266  -26.6865  -47.1766 H         1 UNK         0.0600 
    218 H218       -5.9082  -27.4820  -47.5588 H         1 UNK         0.0600 
    219 H219       -7.1653  -27.3316  -48.7869 H         1 UNK         0.0600 
    220 H220       -5.5915  -23.2325  -49.4055 H         1 UNK         0.3000 
    221 H221       -6.5871  -21.4805  -50.3462 H         1 UNK         0.0600 
    222 H222       -8.9247  -22.1080  -48.4796 H         1 UNK         0.0600 
    223 H223       -7.4682  -21.2199  -48.0344 H         1 UNK         0.0600 
    224 H224       -8.5720  -20.5558  -49.2261 H         1 UNK         0.0600 
    225 H225       -6.6675  -23.5571  -52.0736 H         1 UNK         0.3000 
    226 H226       -9.3241  -23.8963  -53.2449 H         1 UNK         0.0600 
    227 H227       -7.6483  -25.7504  -53.1899 H         1 UNK         0.0600 
    228 H228       -8.1250  -25.3408  -54.8316 H         1 UNK         0.0600 
    229 H229       -6.5677  -24.8080  -54.2134 H         1 UNK         0.0600 
    230 H230       -9.2024  -21.3753  -53.1619 H         1 UNK         0.3000 
    231 H231       -9.6485  -19.5184  -54.2081 H         1 UNK         0.0600 
    232 H232      -10.8365  -20.9352  -55.8623 H         1 UNK         0.0600 
    233 H233       -9.3779  -21.0424  -56.8483 H         1 UNK         0.0600 
    234 H234      -10.1768  -19.4951  -56.6211 H         1 UNK         0.0600 
    235 H235       -6.6270  -20.9807  -55.3999 H         1 UNK         0.3000 
    236 H236       -5.3002  -18.3760  -55.3645 H         1 UNK         0.0600 
    237 H237       -4.5321  -18.5928  -57.7559 H         1 UNK         0.0600 
    238 H238       -5.5621  -20.0050  -57.9647 H         1 UNK         0.0600 
    239 H239       -6.2744  -18.4192  -57.6795 H         1 UNK         0.0600 
    240 H240       -2.9594  -18.6482  -55.9186 H         1 UNK         0.3000 
    241 H241       -1.7826  -20.6642  -54.3171 H         1 UNK         0.0600 
    242 H242       -2.7968  -21.1306  -57.5822 H         1 UNK         0.3800 
    243 H243       -1.6941  -22.4308  -57.9483 H         1 UNK         0.3800 
    244 H244        0.3738  -19.6512  -54.9425 H         1 UNK         0.0800 
    245 H245       -0.3754  -18.7707  -56.2417 H         1 UNK         0.0800 
    246 H246       -0.2621  -18.8082  -52.0640 H         1 UNK         0.0800 
    247 H247        1.1364  -18.5409  -53.0823 H         1 UNK         0.0800 
@<TRIPOS>BOND
     1    1    2 1    
     2    1  127 1    
     3    1  128 1    
     4    1  129 1    
     5    2    3 2    
     6    2    4 am   BACKBONE|DICT|INTERRES
     7    4    5 1    
     8    4  130 1    
     9    5    6 1    
    10    5   65 1    
    11    5  131 1    
    12    6    7 1    
    13    6  132 1    
    14    6  133 1    
    15    7    8 1    
    16    8    9 1    
    17    8  134 1    
    18    8  135 1    
    19    9   10 ar   
    20    9   14 ar   
    21   10   11 ar   
    22   10  136 1    
    23   11   12 ar   
    24   11  126 1    
    25   12   13 ar   
    26   12  137 1    
    27   13   14 ar   
    28   13   15 1    
    29   14  138 1    
    30   15   16 1    
    31   15  139 1    
    32   15  140 1    
    33   16   17 1    
    34   17   18 1    
    35   17  141 1    
    36   17  142 1    
    37   18   19 1    
    38   18   67 1    
    39   18  143 1    
    40   19   20 am   BACKBONE|DICT|INTERRES
    41   19  144 1    
    42   20   21 2    
    43   20   22 1    
    44   22   23 1    
    45   22   24 1    
    46   22  145 1    
    47   23  146 1    
    48   23  147 1    
    49   23  148 1    
    50   24   25 am   BACKBONE|DICT|INTERRES
    51   24  149 1    
    52   25   26 2    
    53   25   27 1    
    54   27   28 1    
    55   27   29 1    
    56   27  150 1    
    57   28  151 1    
    58   28  152 1    
    59   28  153 1    
    60   29   30 am   BACKBONE|DICT|INTERRES
    61   29  154 1    
    62   30   31 2    
    63   30   32 1    
    64   32   33 1    
    65   32   34 1    
    66   32  155 1    
    67   33  156 1    
    68   33  157 1    
    69   33  158 1    
    70   34   35 am   BACKBONE|DICT|INTERRES
    71   34  159 1    
    72   35   36 2    
    73   35   37 1    
    74   37   38 1    
    75   37   39 1    
    76   37  160 1    
    77   38  161 1    
    78   38  162 1    
    79   38  163 1    
    80   39   40 am   BACKBONE|DICT|INTERRES
    81   39  164 1    
    82   40   41 2    
    83   40   42 1    
    84   42   43 1    
    85   42   44 1    
    86   42  165 1    
    87   43  166 1    
    88   43  167 1    
    89   43  168 1    
    90   44   45 am   BACKBONE|DICT|INTERRES
    91   44  169 1    
    92   45   46 2    
    93   45   47 1    
    94   47   48 1    
    95   47   49 1    
    96   47  170 1    
    97   48  171 1    
    98   48  172 1    
    99   48  173 1    
   100   49   50 am   BACKBONE|DICT|INTERRES
   101   49  174 1    
   102   50   51 2    
   103   50   52 1    
   104   52   53 1    
   105   52   54 1    
   106   52  175 1    
   107   53  176 1    
   108   53  177 1    
   109   53  178 1    
   110   54   55 am   BACKBONE|DICT|INTERRES
   111   54  179 1    
   112   55   56 2    
   113   55   57 1    
   114   57   58 1    
   115   57   59 1    
   116   57  180 1    
   117   58  181 1    
   118   58  182 1    
   119   58  183 1    
   120   59   60 am   BACKBONE|DICT|INTERRES
   121   59  184 1    
   122   60   61 2    
   123   60   62 1    
   124   62   63 1    
   125   62   64 1    
   126   62  185 1    
   127   63  186 1    
   128   63  187 1    
   129   63  188 1    
   130   64   65 am   BACKBONE|DICT|INTERRES
   131   64  189 1    
   132   65   66 2    
   133   67   68 2    
   134   67   69 am   BACKBONE|DICT|INTERRES
   135   69   70 1    
   136   69  190 1    
   137   70   71 1    
   138   70   72 1    
   139   70  191 1    
   140   71  192 1    
   141   71  193 1    
   142   71  194 1    
   143   72   73 2    
   144   72   74 am   BACKBONE|DICT|INTERRES
   145   74   75 1    
   146   74  195 1    
   147   75   76 1    
   148   75   77 1    
   149   75  196 1    
   150   76  197 1    
   151   76  198 1    
   152   76  199 1    
   153   77   78 2    
   154   77   79 am   BACKBONE|DICT|INTERRES
   155   79   80 1    
   156   79  200 1    
   157   80   81 1    
   158   80   82 1    
   159   80  201 1    
   160   81  202 1    
   161   81  203 1    
   162   81  204 1    
   163   82   83 2    
   164   82   84 am   BACKBONE|DICT|INTERRES
   165   84   85 1    
   166   84  205 1    
   167   85   86 1    
   168   85   87 1    
   169   85  206 1    
   170   86  207 1    
   171   86  208 1    
   172   86  209 1    
   173   87   88 2    
   174   87   89 am   BACKBONE|DICT|INTERRES
   175   89   90 1    
   176   89  210 1    
   177   90   91 1    
   178   90   92 1    
   179   90  211 1    
   180   91  212 1    
   181   91  213 1    
   182   91  214 1    
   183   92   93 2    
   184   92   94 am   BACKBONE|DICT|INTERRES
   185   94   95 1    
   186   94  215 1    
   187   95   96 1    
   188   95   97 1    
   189   95  216 1    
   190   96  217 1    
   191   96  218 1    
   192   96  219 1    
   193   97   98 2    
   194   97   99 am   BACKBONE|DICT|INTERRES
   195   99  100 1    
   196   99  220 1    
   197  100  101 1    
   198  100  102 1    
   199  100  221 1    
   200  101  222 1    
   201  101  223 1    
   202  101  224 1    
   203  102  103 2    
   204  102  104 am   BACKBONE|DICT|INTERRES
   205  104  105 1    
   206  104  225 1    
   207  105  106 1    
   208  105  107 1    
   209  105  226 1    
   210  106  227 1    
   211  106  228 1    
   212  106  229 1    
   213  107  108 2    
   214  107  109 am   BACKBONE|DICT|INTERRES
   215  109  110 1    
   216  109  230 1    
   217  110  111 1    
   218  110  112 1    
   219  110  231 1    
   220  111  232 1    
   221  111  233 1    
   222  111  234 1    
   223  112  113 2    
   224  112  114 am   BACKBONE|DICT|INTERRES
   225  114  115 1    
   226  114  235 1    
   227  115  116 1    
   228  115  117 1    
   229  115  236 1    
   230  116  237 1    
   231  116  238 1    
   232  116  239 1    
   233  117  118 2    
   234  117  119 am   BACKBONE|DICT|INTERRES
   235  119  120 1    
   236  119  240 1    
   237  120  121 1    
   238  120  124 1    
   239  120  241 1    
   240  121  122 am   BACKBONE|DICT|INTERRES
   241  121  123 2    
   242  122  242 1    
   243  122  243 1    
   244  124  125 1    
   245  124  244 1    
   246  124  245 1    
   247  125  126 1    
   248  126  246 1    
   249  126  247 1    
@<TRIPOS>SUBSTRUCTURE
     1 UNK         1 GROUP             0       ****    0 ROOT    
