@<TRIPOS>MOLECULE
3R540
247   249    1
SMALL
USER_CHARGES


@<TRIPOS>ATOM
      1 CA          5.3884  -11.8822  -45.7859 C.3       0 UNK        -0.1800 
      2 C           5.4416  -13.3805  -46.0451 C.2       0 UNK         0.5000 
      3 O           6.5279  -13.9436  -46.1838 O.2       0 UNK        -0.5000 
      4 N           4.2773  -14.0361  -46.0978 N.am      1 UNK        -0.5000 
      5 CA          4.1162  -15.4663  -46.3700 C.3       1 UNK         0.1400 
      6 C6          2.7800  -15.7676  -47.0965 C.3       23 UNK        -0.0398 
      7 S7          2.6098  -14.8413  -48.6626 S.3       23 UNK        -0.2404 
      8 C8          3.6303  -15.8099  -49.8176 C.3       23 UNK        -0.0205 
      9 C9          2.9320  -17.0729  -50.2979 C.ar      23 UNK        -0.0193 
     10 C10         2.1032  -17.0354  -51.4236 C.ar      23 UNK        -0.1150 
     11 C11         1.5071  -18.2046  -51.9060 C.ar      23 UNK        -0.0193 
     12 C12         1.7187  -19.4108  -51.2302 C.ar      23 UNK        -0.1150 
     13 C13         2.5345  -19.4608  -50.0957 C.ar      23 UNK        -0.0193 
     14 C14         3.1529  -18.2892  -49.6475 C.ar      23 UNK        -0.1150 
     15 C15         2.7651  -20.7909  -49.3852 C.3       23 UNK        -0.0205 
     16 S16         2.6469  -20.6899  -47.5652 S.3       23 UNK        -0.2404 
     17 C17         0.9589  -20.0436  -47.3205 C.3       23 UNK        -0.0398 
     18 CA         -0.0726  -21.1498  -46.9946 C.3       11 UNK         0.1400 
     19 N          -1.2034  -20.6219  -46.2273 N.am      11 UNK        -0.5000 
     20 C          -2.1928  -21.3570  -45.7028 C.2       10 UNK         0.5000 
     21 O          -2.2272  -22.5847  -45.7510 O.2       10 UNK        -0.5000 
     22 CA         -3.3656  -20.5939  -45.0677 C.3       10 UNK         0.1400 
     23 CB         -3.0538  -20.2260  -43.6094 C.3       10 UNK        -0.1800 
     24 N          -3.6905  -19.3834  -45.8192 N.am      10 UNK        -0.5000 
     25 C          -4.3278  -19.3613  -46.9979 C.2       9 UNK         0.5000 
     26 O          -4.7729  -20.3586  -47.5706 O.2       9 UNK        -0.5000 
     27 CA         -4.4646  -17.9816  -47.6655 C.3       9 UNK         0.1400 
     28 CB         -5.6836  -17.2308  -47.1081 C.3       9 UNK        -0.1800 
     29 N          -3.2765  -17.1429  -47.5171 N.am      9 UNK        -0.5000 
     30 C          -2.0739  -17.4313  -48.0331 C.2       8 UNK         0.5000 
     31 O          -1.8333  -18.4505  -48.6768 O.2       8 UNK        -0.5000 
     32 CA         -0.9396  -16.4379  -47.7291 C.3       8 UNK         0.1400 
     33 CB         -1.0072  -15.2574  -48.7079 C.3       8 UNK        -0.1800 
     34 N          -0.9645  -15.9382  -46.3498 N.am      8 UNK        -0.5000 
     35 C          -0.9321  -16.7131  -45.2529 C.2       7 UNK         0.5000 
     36 O          -0.8898  -17.9421  -45.2989 O.2       7 UNK        -0.5000 
     37 CA         -0.9825  -16.0342  -43.8726 C.3       7 UNK         0.1400 
     38 CB          0.3240  -16.2598  -43.1043 C.3       7 UNK        -0.1800 
     39 N          -1.2591  -14.6003  -43.9252 N.am      7 UNK        -0.5000 
     40 C          -2.4699  -14.0646  -44.1296 C.2       6 UNK         0.5000 
     41 O          -3.4906  -14.7322  -44.2995 O.2       6 UNK        -0.5000 
     42 CA         -2.5494  -12.5257  -44.1770 C.3       6 UNK         0.1400 
     43 CB         -2.9079  -11.9651  -42.7925 C.3       6 UNK        -0.1800 
     44 N          -1.3133  -11.8903  -44.6413 N.am      6 UNK        -0.5000 
     45 C          -0.7895  -12.0349  -45.8670 C.2       5 UNK         0.5000 
     46 O          -1.3072  -12.7189  -46.7481 O.2       5 UNK        -0.5000 
     47 CA          0.5483  -11.3231  -46.1463 C.3       5 UNK         0.1400 
     48 CB          0.3064   -9.9761  -46.8430 C.3       5 UNK        -0.1800 
     49 N           1.3518  -11.1024  -44.9394 N.am      5 UNK        -0.5000 
     50 C           1.9412  -12.0785  -44.2377 C.2       4 UNK         0.5000 
     51 O           1.8831  -13.2658  -44.5656 O.2       4 UNK        -0.5000 
     52 CA          2.7701  -11.6406  -43.0114 C.3       4 UNK         0.1400 
     53 CB          1.9931  -10.6780  -42.0860 C.3       4 UNK        -0.1800 
     54 N           3.3193  -12.7768  -42.2600 N.am      4 UNK        -0.5000 
     55 C           2.6461  -13.6762  -41.5272 C.2       3 UNK         0.5000 
     56 O           1.4295  -13.6459  -41.3365 O.2       3 UNK        -0.5000 
     57 CA          3.5004  -14.8086  -40.9353 C.3       3 UNK         0.1400 
     58 CB          2.7090  -15.8045  -40.0657 C.3       3 UNK        -0.1800 
     59 N           4.1752  -15.5177  -42.0197 N.am      3 UNK        -0.5000 
     60 C           5.3790  -16.0938  -41.9406 C.2       2 UNK         0.5000 
     61 O           6.0635  -16.0882  -40.9166 O.2       2 UNK        -0.5000 
     62 CA          5.9453  -16.7662  -43.2094 C.3       2 UNK         0.1400 
     63 CB          5.7386  -18.2930  -43.1714 C.3       2 UNK        -0.1800 
     64 N           5.4815  -16.1868  -44.4788 N.am      2 UNK        -0.5000 
     65 C           4.2732  -16.2546  -45.0549 C.2       1 UNK         0.5000 
     66 O           3.3119  -16.8423  -44.5614 O.2       1 UNK        -0.5000 
     67 C          -0.5445  -21.8839  -48.2681 C.2       11 UNK         0.5000 
     68 O          -0.0601  -22.9764  -48.5592 O.2       11 UNK        -0.5000 
     69 N          -1.5247  -21.2986  -48.9694 N.am      12 UNK        -0.5000 
     70 CA         -2.1699  -21.8760  -50.1479 C.3       12 UNK         0.1400 
     71 CB         -3.0846  -20.8168  -50.7770 C.3       12 UNK        -0.1800 
     72 C          -2.9527  -23.1678  -49.8329 C.2       12 UNK         0.5000 
     73 O          -2.9672  -24.0852  -50.6539 O.2       12 UNK        -0.5000 
     74 N          -3.5577  -23.2366  -48.6372 N.am      13 UNK        -0.5000 
     75 CA         -4.2110  -24.4381  -48.1164 C.3       13 UNK         0.1400 
     76 CB         -5.0977  -24.0740  -46.9144 C.3       13 UNK        -0.1800 
     77 C          -3.1841  -25.5211  -47.7358 C.2       13 UNK         0.5000 
     78 O          -3.3531  -26.6807  -48.1128 O.2       13 UNK        -0.5000 
     79 N          -2.1150  -25.1177  -47.0340 N.am      14 UNK        -0.5000 
     80 CA         -1.0013  -25.9741  -46.6128 C.3       14 UNK         0.1400 
     81 CB         -0.0725  -25.1791  -45.6831 C.3       14 UNK        -0.1800 
     82 C          -0.2053  -26.5796  -47.7860 C.2       14 UNK         0.5000 
     83 O           0.3566  -27.6654  -47.6402 O.2       14 UNK        -0.5000 
     84 N          -0.2068  -25.8922  -48.9363 N.am      15 UNK        -0.5000 
     85 CA          0.3618  -26.3467  -50.2068 C.3       15 UNK         0.1400 
     86 CB          0.4474  -25.1517  -51.1704 C.3       15 UNK        -0.1800 
     87 C          -0.3966  -27.5265  -50.8575 C.2       15 UNK         0.5000 
     88 O           0.1221  -28.0945  -51.8189 O.2       15 UNK        -0.5000 
     89 N          -1.5757  -27.8811  -50.3191 N.am      16 UNK        -0.5000 
     90 CA         -2.4535  -28.9931  -50.6942 C.3       16 UNK         0.1400 
     91 CB         -1.7251  -30.3491  -50.5798 C.3       16 UNK        -0.1800 
     92 C          -3.0950  -28.7820  -52.0857 C.2       16 UNK         0.5000 
     93 O          -2.5174  -29.2000  -53.0888 O.2       16 UNK        -0.5000 
     94 N          -4.2670  -28.1410  -52.1904 N.am      17 UNK        -0.5000 
     95 CA         -5.1088  -27.6017  -51.1213 C.3       17 UNK         0.1400 
     96 CB         -5.9908  -28.7166  -50.5198 C.3       17 UNK        -0.1800 
     97 C          -5.9342  -26.4259  -51.6676 C.2       17 UNK         0.5000 
     98 O          -7.1419  -26.3470  -51.4345 O.2       17 UNK        -0.5000 
     99 N          -5.2698  -25.5296  -52.4061 N.am      18 UNK        -0.5000 
    100 CA        -5.8527  -24.3485  -53.0442 C.3       18 UNK         0.1400 
    101 CB        -4.9406  -23.9297  -54.2116 C.3       18 UNK        -0.1800 
    102 C         -6.0850  -23.2051  -52.0346 C.2       18 UNK         0.5000 
    103 O         -5.5545  -22.1095  -52.2103 O.2       18 UNK        -0.5000 
    104 N         -6.8539  -23.4844  -50.9748 N.am      19 UNK        -0.5000 
    105 CA        -7.1493  -22.5744  -49.8682 C.3       19 UNK         0.1400 
    106 CB        -8.1267  -23.2599  -48.9018 C.3       19 UNK        -0.1800 
    107 C         -7.7033  -21.2172  -50.3400 C.2       19 UNK         0.5000 
    108 O         -8.6537  -21.1855  -51.1245 O.2       19 UNK        -0.5000 
    109 N         -7.0727  -20.1361  -49.8629 N.am      20 UNK        -0.5000 
    110 CA        -7.3566  -18.7296  -50.1717 C.3       20 UNK         0.1400 
    111 CB        -8.8021  -18.3481  -49.7905 C.3       20 UNK        -0.1800 
    112 C         -6.9890  -18.2667  -51.5986 C.2       20 UNK         0.5000 
    113 O         -7.1904  -17.0880  -51.8961 O.2       20 UNK        -0.5000 
    114 N         -6.4168  -19.1375  -52.4473 N.am      21 UNK        -0.5000 
    115 CA        -6.0517  -18.8047  -53.8329 C.3       21 UNK         0.1400 
    116 CB        -5.6461  -20.0768  -54.5900 C.3       21 UNK        -0.1800 
    117 C         -4.9441  -17.7388  -53.9475 C.2       21 UNK         0.5000 
    118 O         -4.9389  -16.9710  -54.9106 O.2       21 UNK        -0.5000 
    119 N         -4.0504  -17.6952  -52.9526 N.am      22 UNK        -0.5000 
    120 CA        -2.9980  -16.6754  -52.8093 C.3       22 UNK         0.1400 
    121 C         -3.4885  -15.3577  -52.1353 C.2       22 UNK         0.5000 
    122 N         -4.7525  -15.2234  -51.7469 N.am      22 UNK        -0.7600 
    123 O         -2.7059  -14.4267  -51.9700 O.2       22 UNK        -0.5000 
    124 C124       -1.7452  -17.2396  -52.0912 C.3       23 UNK        -0.0398 
    125 S125       -1.0377  -18.6912  -52.9424 S.3       23 UNK        -0.2404 
    126 C126        0.6901  -18.1790  -53.1923 C.3       23 UNK        -0.0205 
    127 H127        6.0550  -11.3598  -46.4721 H         1 UNK         0.0600 
    128 H128        5.7089  -11.6650  -44.7673 H         1 UNK         0.0600 
    129 H129        4.3841  -11.4838  -45.9288 H         1 UNK         0.0600 
    130 H130        3.4122  -13.5532  -45.8834 H         1 UNK         0.3000 
    131 H131        4.9230  -15.7966  -47.0270 H         1 UNK         0.0600 
    132 H132        2.6710  -16.8347  -47.2909 H         1 UNK         0.0800 
    133 H133        1.9373  -15.4916  -46.4601 H         1 UNK         0.0800 
    134 H134        3.8672  -15.1805  -50.6766 H         1 UNK         0.0800 
    135 H135        4.5882  -16.0540  -49.3573 H         1 UNK         0.0800 
    136 H136        1.9484  -16.0987  -51.9405 H         1 UNK         0.1150 
    137 H137        1.2560  -20.3147  -51.6015 H         1 UNK         0.1150 
    138 H138        3.8089  -18.3258  -48.7895 H         1 UNK         0.1150 
    139 H139        2.0602  -21.5440  -49.7402 H         1 UNK         0.0800 
    140 H140        3.7585  -21.1555  -49.6490 H         1 UNK         0.0800 
    141 H141        0.6437  -19.4364  -48.1698 H         1 UNK         0.0800 
    142 H142        1.0313  -19.3501  -46.4819 H         1 UNK         0.0800 
    143 H143        0.4098  -21.8881  -46.3511 H         1 UNK         0.0600 
    144 H144       -1.2199  -19.6160  -46.0805 H         1 UNK         0.3000 
    145 H145       -4.2375  -21.2517  -45.0752 H         1 UNK         0.0600 
    146 H146       -3.9009  -19.7261  -43.1396 H         1 UNK         0.0600 
    147 H147       -2.8367  -21.1189  -43.0216 H         1 UNK         0.0600 
    148 H148       -2.1896  -19.5654  -43.5324 H         1 UNK         0.0600 
    149 H149       -3.3221  -18.5162  -45.4569 H         1 UNK         0.3000 
    150 H150       -4.6073  -18.1511  -48.7336 H         1 UNK         0.0600 
    151 H151       -6.5831  -17.8467  -47.1500 H         1 UNK         0.0600 
    152 H152       -5.8824  -16.3241  -47.6800 H         1 UNK         0.0600 
    153 H153       -5.5364  -16.9433  -46.0661 H         1 UNK         0.0600 
    154 H154       -3.3788  -16.2940  -46.9792 H         1 UNK         0.3000 
    155 H155        0.0109  -16.9542  -47.8764 H         1 UNK         0.0600 
    156 H156       -0.2434  -14.5130  -48.4897 H         1 UNK         0.0600 
    157 H157       -1.9742  -14.7538  -48.6719 H         1 UNK         0.0600 
    158 H158       -0.8473  -15.5913  -49.7328 H         1 UNK         0.0600 
    159 H159       -1.0204  -14.9341  -46.2358 H         1 UNK         0.3000 
    160 H160       -1.7833  -16.5228  -43.3136 H         1 UNK         0.0600 
    161 H161        1.1490  -15.7010  -43.5453 H         1 UNK         0.0600 
    162 H162        0.6076  -17.3131  -43.0907 H         1 UNK         0.0600 
    163 H163        0.2151  -15.9401  -42.0691 H         1 UNK         0.0600 
    164 H164       -0.4638  -13.9854  -43.8143 H         1 UNK         0.3000 
    165 H165       -3.3469  -12.2591  -44.8737 H         1 UNK         0.0600 
    166 H166       -2.1304  -12.1803  -42.0581 H         1 UNK         0.0600 
    167 H167       -3.0479  -10.8845  -42.8278 H         1 UNK         0.0600 
    168 H168       -3.8378  -12.4000  -42.4235 H         1 UNK         0.0600 
    169 H169       -0.8216  -11.3127  -43.9759 H         1 UNK         0.3000 
    170 H170        1.1200  -11.9597  -46.8257 H         1 UNK         0.0600 
    171 H171       -0.2687  -10.1092  -47.7605 H         1 UNK         0.0600 
    172 H172       -0.2474   -9.2860  -46.2054 H         1 UNK         0.0600 
    173 H173        1.2476   -9.4996  -47.1180 H         1 UNK         0.0600 
    174 H174        1.4555  -10.1444  -44.6372 H         1 UNK         0.3000 
    175 H175        3.6323  -11.0980  -43.4000 H         1 UNK         0.0600 
    176 H176        2.5618  -10.4562  -41.1829 H         1 UNK         0.0600 
    177 H177        1.7969   -9.7251  -42.5782 H         1 UNK         0.0600 
    178 H178        1.0306  -11.0898  -41.7810 H         1 UNK         0.0600 
    179 H179        4.3122  -12.9247  -42.3705 H         1 UNK         0.3000 
    180 H180        4.2434  -14.3242  -40.2981 H         1 UNK         0.0600 
    181 H181        2.0048  -16.3869  -40.6582 H         1 UNK         0.0600 
    182 H182        2.1443  -15.2879  -39.2887 H         1 UNK         0.0600 
    183 H183        3.3783  -16.5051  -39.5664 H         1 UNK         0.0600 
    184 H184        3.6617  -15.6025  -42.8900 H         1 UNK         0.3000 
    185 H185        7.0213  -16.5867  -43.1910 H         1 UNK         0.0600 
    186 H186        6.1739  -18.7731  -44.0478 H         1 UNK         0.0600 
    187 H187        6.2171  -18.7262  -42.2922 H         1 UNK         0.0600 
    188 H188        4.6831  -18.5627  -43.1287 H         1 UNK         0.0600 
    189 H189        6.1654  -15.6063  -44.9538 H         1 UNK         0.3000 
    190 H190       -1.8185  -20.3620  -48.7049 H         1 UNK         0.3000 
    191 H191       -1.3829  -22.1197  -50.8645 H         1 UNK         0.0600 
    192 H192       -2.6128  -19.8373  -50.7851 H         1 UNK         0.0600 
    193 H193       -3.3008  -21.0697  -51.8141 H         1 UNK         0.0600 
    194 H194       -4.0314  -20.7224  -50.2447 H         1 UNK         0.0600 
    195 H195       -3.5031  -22.4379  -48.0198 H         1 UNK         0.3000 
    196 H196       -4.8557  -24.8396  -48.9011 H         1 UNK         0.0600 
    197 H197       -5.7171  -24.9228  -46.6227 H         1 UNK         0.0600 
    198 H198       -5.7662  -23.2451  -47.1429 H         1 UNK         0.0600 
    199 H199       -4.5109  -23.7884  -46.0422 H         1 UNK         0.0600 
    200 H200       -2.0777  -24.1492  -46.7236 H         1 UNK         0.3000 
    201 H201       -1.4239  -26.8040  -46.0431 H         1 UNK         0.0600 
    202 H202       -0.6136  -24.7929  -44.8191 H         1 UNK         0.0600 
    203 H203        0.3830  -24.3339  -46.1989 H         1 UNK         0.0600 
    204 H204        0.7355  -25.8078  -45.3071 H         1 UNK         0.0600 
    205 H205       -0.6092  -24.9616  -48.9298 H         1 UNK         0.3000 
    206 H206        1.3784  -26.6922  -50.0089 H         1 UNK         0.0600 
    207 H207        1.0293  -24.3365  -50.7400 H         1 UNK         0.0600 
    208 H208        0.9322  -25.4359  -52.1051 H         1 UNK         0.0600 
    209 H209       -0.5399  -24.7644  -51.4199 H         1 UNK         0.0600 
    210 H210       -1.9172  -27.3216  -49.5459 H         1 UNK         0.3000 
    211 H211       -3.2317  -29.0197  -49.9350 H         1 UNK         0.0600 
    212 H212       -0.9164  -30.4512  -51.3036 H         1 UNK         0.0600 
    213 H213       -2.4181  -31.1732  -50.7528 H         1 UNK         0.0600 
    214 H214       -1.3012  -30.4845  -49.5846 H         1 UNK         0.0600 
    215 H215       -4.6423  -28.0003  -53.1181 H         1 UNK         0.3000 
    216 H216       -4.4814  -27.1768  -50.3397 H         1 UNK         0.0600 
    217 H217       -5.4048  -29.5524  -50.1408 H         1 UNK         0.0600 
    218 H218       -6.6861  -29.1148  -51.2598 H         1 UNK         0.0600 
    219 H219       -6.5819  -28.3369  -49.6855 H         1 UNK         0.0600 
    220 H220       -4.2660  -25.6200  -52.4814 H         1 UNK         0.3000 
    221 H221       -6.8261  -24.6149  -53.4612 H         1 UNK         0.0600 
    222 H222       -3.9527  -23.6274  -53.8608 H         1 UNK         0.0600 
    223 H223       -4.8095  -24.7450  -54.9232 H         1 UNK         0.0600 
    224 H224       -5.3671  -23.0895  -54.7600 H         1 UNK         0.0600 
    225 H225       -7.2530  -24.4155  -50.9239 H         1 UNK         0.3000 
    226 H226       -6.2097  -22.3999  -49.3421 H         1 UNK         0.0600 
    227 H227       -7.7222  -24.2014  -48.5300 H         1 UNK         0.0600 
    228 H228       -8.3278  -22.6270  -48.0365 H         1 UNK         0.0600 
    229 H229       -9.0819  -23.4737  -49.3830 H         1 UNK         0.0600 
    230 H230       -6.3023  -20.2875  -49.2219 H         1 UNK         0.3000 
    231 H231       -6.7072  -18.1507  -49.5216 H         1 UNK         0.0600 
    232 H232       -8.9487  -17.2687  -49.8458 H         1 UNK         0.0600 
    233 H233       -9.0346  -18.6519  -48.7698 H         1 UNK         0.0600 
    234 H234       -9.5351  -18.8063  -50.4544 H         1 UNK         0.0600 
    235 H235       -6.2569  -20.0959  -52.1554 H         1 UNK         0.3000 
    236 H236       -6.9428  -18.3994  -54.3169 H         1 UNK         0.0600 
    237 H237       -5.4473  -19.8596  -55.6401 H         1 UNK         0.0600 
    238 H238       -4.7418  -20.5211  -54.1724 H         1 UNK         0.0600 
    239 H239       -6.4388  -20.8241  -54.5575 H         1 UNK         0.0600 
    240 H240       -4.1249  -18.3734  -52.2101 H         1 UNK         0.3000 
    241 H241       -2.6786  -16.3805  -53.8106 H         1 UNK         0.0600 
    242 H242       -5.0418  -14.3563  -51.3235 H         1 UNK         0.3800 
    243 H243       -5.4397  -15.9486  -51.9104 H         1 UNK         0.3800 
    244 H244       -0.9752  -16.4710  -52.0094 H         1 UNK         0.0800 
    245 H245       -1.9931  -17.5276  -51.0714 H         1 UNK         0.0800 
    246 H246        1.1521  -18.8596  -53.9086 H         1 UNK         0.0800 
    247 H247        0.7122  -17.1914  -53.6557 H         1 UNK         0.0800 
@<TRIPOS>BOND
     1    1    2 1    
     2    1  127 1    
     3    1  128 1    
     4    1  129 1    
     5    2    3 2    
     6    2    4 am   BACKBONE|DICT|INTERRES
     7    4    5 1    
     8    4  130 1    
     9    5    6 1    
    10    5   65 1    
    11    5  131 1    
    12    6    7 1    
    13    6  132 1    
    14    6  133 1    
    15    7    8 1    
    16    8    9 1    
    17    8  134 1    
    18    8  135 1    
    19    9   10 ar   
    20    9   14 ar   
    21   10   11 ar   
    22   10  136 1    
    23   11   12 ar   
    24   11  126 1    
    25   12   13 ar   
    26   12  137 1    
    27   13   14 ar   
    28   13   15 1    
    29   14  138 1    
    30   15   16 1    
    31   15  139 1    
    32   15  140 1    
    33   16   17 1    
    34   17   18 1    
    35   17  141 1    
    36   17  142 1    
    37   18   19 1    
    38   18   67 1    
    39   18  143 1    
    40   19   20 am   BACKBONE|DICT|INTERRES
    41   19  144 1    
    42   20   21 2    
    43   20   22 1    
    44   22   23 1    
    45   22   24 1    
    46   22  145 1    
    47   23  146 1    
    48   23  147 1    
    49   23  148 1    
    50   24   25 am   BACKBONE|DICT|INTERRES
    51   24  149 1    
    52   25   26 2    
    53   25   27 1    
    54   27   28 1    
    55   27   29 1    
    56   27  150 1    
    57   28  151 1    
    58   28  152 1    
    59   28  153 1    
    60   29   30 am   BACKBONE|DICT|INTERRES
    61   29  154 1    
    62   30   31 2    
    63   30   32 1    
    64   32   33 1    
    65   32   34 1    
    66   32  155 1    
    67   33  156 1    
    68   33  157 1    
    69   33  158 1    
    70   34   35 am   BACKBONE|DICT|INTERRES
    71   34  159 1    
    72   35   36 2    
    73   35   37 1    
    74   37   38 1    
    75   37   39 1    
    76   37  160 1    
    77   38  161 1    
    78   38  162 1    
    79   38  163 1    
    80   39   40 am   BACKBONE|DICT|INTERRES
    81   39  164 1    
    82   40   41 2    
    83   40   42 1    
    84   42   43 1    
    85   42   44 1    
    86   42  165 1    
    87   43  166 1    
    88   43  167 1    
    89   43  168 1    
    90   44   45 am   BACKBONE|DICT|INTERRES
    91   44  169 1    
    92   45   46 2    
    93   45   47 1    
    94   47   48 1    
    95   47   49 1    
    96   47  170 1    
    97   48  171 1    
    98   48  172 1    
    99   48  173 1    
   100   49   50 am   BACKBONE|DICT|INTERRES
   101   49  174 1    
   102   50   51 2    
   103   50   52 1    
   104   52   53 1    
   105   52   54 1    
   106   52  175 1    
   107   53  176 1    
   108   53  177 1    
   109   53  178 1    
   110   54   55 am   BACKBONE|DICT|INTERRES
   111   54  179 1    
   112   55   56 2    
   113   55   57 1    
   114   57   58 1    
   115   57   59 1    
   116   57  180 1    
   117   58  181 1    
   118   58  182 1    
   119   58  183 1    
   120   59   60 am   BACKBONE|DICT|INTERRES
   121   59  184 1    
   122   60   61 2    
   123   60   62 1    
   124   62   63 1    
   125   62   64 1    
   126   62  185 1    
   127   63  186 1    
   128   63  187 1    
   129   63  188 1    
   130   64   65 am   BACKBONE|DICT|INTERRES
   131   64  189 1    
   132   65   66 2    
   133   67   68 2    
   134   67   69 am   BACKBONE|DICT|INTERRES
   135   69   70 1    
   136   69  190 1    
   137   70   71 1    
   138   70   72 1    
   139   70  191 1    
   140   71  192 1    
   141   71  193 1    
   142   71  194 1    
   143   72   73 2    
   144   72   74 am   BACKBONE|DICT|INTERRES
   145   74   75 1    
   146   74  195 1    
   147   75   76 1    
   148   75   77 1    
   149   75  196 1    
   150   76  197 1    
   151   76  198 1    
   152   76  199 1    
   153   77   78 2    
   154   77   79 am   BACKBONE|DICT|INTERRES
   155   79   80 1    
   156   79  200 1    
   157   80   81 1    
   158   80   82 1    
   159   80  201 1    
   160   81  202 1    
   161   81  203 1    
   162   81  204 1    
   163   82   83 2    
   164   82   84 am   BACKBONE|DICT|INTERRES
   165   84   85 1    
   166   84  205 1    
   167   85   86 1    
   168   85   87 1    
   169   85  206 1    
   170   86  207 1    
   171   86  208 1    
   172   86  209 1    
   173   87   88 2    
   174   87   89 am   BACKBONE|DICT|INTERRES
   175   89   90 1    
   176   89  210 1    
   177   90   91 1    
   178   90   92 1    
   179   90  211 1    
   180   91  212 1    
   181   91  213 1    
   182   91  214 1    
   183   92   93 2    
   184   92   94 am   BACKBONE|DICT|INTERRES
   185   94   95 1    
   186   94  215 1    
   187   95   96 1    
   188   95   97 1    
   189   95  216 1    
   190   96  217 1    
   191   96  218 1    
   192   96  219 1    
   193   97   98 2    
   194   97   99 am   BACKBONE|DICT|INTERRES
   195   99  100 1    
   196   99  220 1    
   197  100  101 1    
   198  100  102 1    
   199  100  221 1    
   200  101  222 1    
   201  101  223 1    
   202  101  224 1    
   203  102  103 2    
   204  102  104 am   BACKBONE|DICT|INTERRES
   205  104  105 1    
   206  104  225 1    
   207  105  106 1    
   208  105  107 1    
   209  105  226 1    
   210  106  227 1    
   211  106  228 1    
   212  106  229 1    
   213  107  108 2    
   214  107  109 am   BACKBONE|DICT|INTERRES
   215  109  110 1    
   216  109  230 1    
   217  110  111 1    
   218  110  112 1    
   219  110  231 1    
   220  111  232 1    
   221  111  233 1    
   222  111  234 1    
   223  112  113 2    
   224  112  114 am   BACKBONE|DICT|INTERRES
   225  114  115 1    
   226  114  235 1    
   227  115  116 1    
   228  115  117 1    
   229  115  236 1    
   230  116  237 1    
   231  116  238 1    
   232  116  239 1    
   233  117  118 2    
   234  117  119 am   BACKBONE|DICT|INTERRES
   235  119  120 1    
   236  119  240 1    
   237  120  121 1    
   238  120  124 1    
   239  120  241 1    
   240  121  122 am   BACKBONE|DICT|INTERRES
   241  121  123 2    
   242  122  242 1    
   243  122  243 1    
   244  124  125 1    
   245  124  244 1    
   246  124  245 1    
   247  125  126 1    
   248  126  246 1    
   249  126  247 1    
@<TRIPOS>SUBSTRUCTURE
     1 UNK         1 GROUP             0       ****    0 ROOT    
