@<TRIPOS>MOLECULE
3R540
247   249    1
SMALL
USER_CHARGES


@<TRIPOS>ATOM
      1 CA          3.1299  -15.7792  -52.8437 C.3       0 UNK        -0.1800 
      2 C           3.9118  -14.5513  -52.4013 C.2       0 UNK         0.5000 
      3 O           4.4264  -13.8239  -53.2505 O.2       0 UNK        -0.5000 
      4 N           4.0191  -14.3373  -51.0826 N.am      1 UNK        -0.5000 
      5 CA          4.7793  -13.2497  -50.4537 C.3       1 UNK         0.1400 
      6 C6          4.8907  -13.3819  -48.9147 C.3       23 UNK        -0.0398 
      7 S7          5.7251  -14.9128  -48.3816 S.3       23 UNK        -0.2404 
      8 C8          4.4187  -15.7447  -47.4223 C.3       23 UNK        -0.0205 
      9 C9          3.4789  -16.5416  -48.3126 C.ar      23 UNK        -0.0193 
     10 C10         2.3237  -15.9598  -48.8425 C.ar      23 UNK        -0.1150 
     11 C11         1.4712  -16.6938  -49.6786 C.ar      23 UNK        -0.0193 
     12 C12         1.7852  -18.0279  -49.9647 C.ar      23 UNK        -0.1150 
     13 C13         2.9379  -18.6198  -49.4392 C.ar      23 UNK        -0.0193 
     14 C14         3.7771  -17.8713  -48.6127 C.ar      23 UNK        -0.1150 
     15 C15         3.3144  -20.0509  -49.7912 C.3       23 UNK        -0.0205 
     16 S16         2.8886  -21.2149  -48.4592 S.3       23 UNK        -0.2404 
     17 C17         1.1155  -21.4681  -48.7819 C.3       23 UNK        -0.0398 
     18 CA          0.5507  -22.7042  -48.0460 C.3       11 UNK         0.1400 
     19 N           0.6391  -22.5934  -46.5867 N.am      11 UNK        -0.5000 
     20 C           0.3502  -23.5843  -45.7307 C.2       10 UNK         0.5000 
     21 O           0.0463  -24.7252  -46.0799 O.2       10 UNK        -0.5000 
     22 CA          0.3366  -23.2240  -44.2359 C.3       10 UNK         0.1400 
     23 CB          1.7500  -23.2759  -43.6363 C.3       10 UNK        -0.1800 
     24 N          -0.2602  -21.9072  -44.0090 N.am      10 UNK        -0.5000 
     25 C          -1.5712  -21.6521  -44.1305 C.2       9 UNK         0.5000 
     26 O          -2.4099  -22.5141  -44.3905 O.2       9 UNK        -0.5000 
     27 CA         -2.0209  -20.1874  -43.9763 C.3       9 UNK         0.1400 
     28 CB         -2.3059  -19.8613  -42.5034 C.3       9 UNK        -0.1800 
     29 N          -1.0527  -19.2305  -44.5138 N.am      9 UNK        -0.5000 
     30 C          -0.7381  -19.1308  -45.8140 C.2       8 UNK         0.5000 
     31 O          -1.2504  -19.8264  -46.6872 O.2       8 UNK        -0.5000 
     32 CA          0.3610  -18.1256  -46.2007 C.3       8 UNK         0.1400 
     33 CB         -0.2449  -16.7253  -46.3602 C.3       8 UNK        -0.1800 
     34 N           1.4611  -18.0590  -45.2402 N.am      8 UNK        -0.5000 
     35 C           2.2019  -19.0820  -44.7977 C.2       7 UNK         0.5000 
     36 O           2.0493  -20.2416  -45.1809 O.2       7 UNK        -0.5000 
     37 CA          3.2389  -18.7876  -43.6912 C.3       7 UNK         0.1400 
     38 CB          4.6382  -18.5312  -44.2772 C.3       7 UNK        -0.1800 
     39 N           2.8403  -17.7342  -42.7429 N.am      7 UNK        -0.5000 
     40 C           2.6559  -16.4244  -42.9643 C.2       6 UNK         0.5000 
     41 O           2.8824  -15.8647  -44.0381 O.2       6 UNK        -0.5000 
     42 CA          2.0012  -15.6297  -41.8189 C.3       6 UNK         0.1400 
     43 CB          2.7648  -14.3265  -41.5348 C.3       6 UNK        -0.1800 
     44 N           0.6032  -15.3061  -42.1161 N.am      6 UNK        -0.5000 
     45 C          -0.3715  -16.1756  -42.4133 C.2       5 UNK         0.5000 
     46 O          -0.2049  -17.3947  -42.4507 O.2       5 UNK        -0.5000 
     47 CA         -1.7711  -15.6189  -42.7466 C.3       5 UNK         0.1400 
     48 CB         -2.6795  -15.6405  -41.5028 C.3       5 UNK        -0.1800 
     49 N          -1.7997  -14.3052  -43.4080 N.am      5 UNK        -0.5000 
     50 C          -1.4722  -13.1046  -42.9138 C.2       4 UNK         0.5000 
     51 O          -0.9732  -12.9292  -41.8009 O.2       4 UNK        -0.5000 
     52 CA         -1.6960  -11.9038  -43.8495 C.3       4 UNK         0.1400 
     53 CB         -2.0897  -10.6345  -43.0741 C.3       4 UNK        -0.1800 
     54 N          -0.4838  -11.6337  -44.6154 N.am      4 UNK        -0.5000 
     55 C          -0.0946  -12.3198  -45.6952 C.2       3 UNK         0.5000 
     56 O          -0.7420  -13.2398  -46.1977 O.2       3 UNK        -0.5000 
     57 CA          1.2627  -11.9252  -46.2861 C.3       3 UNK         0.1400 
     58 CB          2.3955  -12.6977  -45.5909 C.3       3 UNK        -0.1800 
     59 N           1.2848  -12.2103  -47.7183 N.am      3 UNK        -0.5000 
     60 C           1.9754  -11.4977  -48.6145 C.2       2 UNK         0.5000 
     61 O           2.6426  -10.5020  -48.3224 O.2       2 UNK        -0.5000 
     62 CA          1.9364  -11.9890  -50.0752 C.3       2 UNK         0.1400 
     63 CB          0.6304  -11.5383  -50.7459 C.3       2 UNK        -0.1800 
     64 N           3.0556  -11.4296  -50.8375 N.am      2 UNK        -0.5000 
     65 C           4.3374  -11.8292  -50.8966 C.2       1 UNK         0.5000 
     66 O           5.1956  -11.0798  -51.3619 O.2       1 UNK        -0.5000 
     67 C          -0.8933  -22.9942  -48.5017 C.2       11 UNK         0.5000 
     68 O          -1.1008  -23.8948  -49.3141 O.2       11 UNK        -0.5000 
     69 N          -1.8653  -22.2626  -47.9390 N.am      12 UNK        -0.5000 
     70 CA         -3.2946  -22.4546  -48.1746 C.3       12 UNK         0.1400 
     71 CB         -4.0918  -21.3420  -47.4824 C.3       12 UNK        -0.1800 
     72 C          -3.7888  -23.8377  -47.7240 C.2       12 UNK         0.5000 
     73 O          -4.5441  -24.4697  -48.4592 O.2       12 UNK        -0.5000 
     74 N          -3.3309  -24.3038  -46.5528 N.am      13 UNK        -0.5000 
     75 CA         -3.6218  -25.6385  -46.0267 C.3       13 UNK         0.1400 
     76 CB         -3.0936  -25.7646  -44.5902 C.3       13 UNK        -0.1800 
     77 C          -3.0638  -26.7613  -46.9198 C.2       13 UNK         0.5000 
     78 O          -3.7846  -27.7178  -47.2057 O.2       13 UNK        -0.5000 
     79 N          -1.8179  -26.6029  -47.3905 N.am      14 UNK        -0.5000 
     80 CA         -1.1649  -27.5117  -48.3379 C.3       14 UNK         0.1400 
     81 CB          0.3117  -27.1172  -48.4912 C.3       14 UNK        -0.1800 
     82 C          -1.8665  -27.5568  -49.7104 C.2       14 UNK         0.5000 
     83 O          -1.9536  -28.6249  -50.3166 O.2       14 UNK        -0.5000 
     84 N          -2.3911  -26.4065  -50.1509 N.am      15 UNK        -0.5000 
     85 CA         -3.1990  -26.2451  -51.3606 C.3       15 UNK         0.1400 
     86 CB         -3.0879  -24.7846  -51.8263 C.3       15 UNK        -0.1800 
     87 C          -4.6795  -26.6461  -51.1779 C.2       15 UNK         0.5000 
     88 O          -5.4528  -26.5062  -52.1259 O.2       15 UNK        -0.5000 
     89 N          -5.0684  -27.0991  -49.9749 N.am      16 UNK        -0.5000 
     90 CA         -6.4225  -27.4972  -49.5669 C.3       16 UNK         0.1400 
     91 CB         -6.8349  -28.8030  -50.2769 C.3       16 UNK        -0.1800 
     92 C          -7.4684  -26.3702  -49.7280 C.2       16 UNK         0.5000 
     93 O          -8.6274  -26.6401  -50.0471 O.2       16 UNK        -0.5000 
     94 N          -7.0205  -25.1225  -49.5267 N.am      17 UNK        -0.5000 
     95 CA         -7.7397  -23.8539  -49.6760 C.3       17 UNK         0.1400 
     96 CB         -8.9000  -23.7575  -48.6646 C.3       17 UNK        -0.1800 
     97 C          -8.1865  -23.5294  -51.1192 C.2       17 UNK         0.5000 
     98 O          -8.9498  -22.5815  -51.3109 O.2       17 UNK        -0.5000 
     99 N          -7.6982  -24.2833  -52.1158 N.am      18 UNK        -0.5000 
    100 CA        -7.9955  -24.0662  -53.5345 C.3       18 UNK         0.1400 
    101 CB        -7.7842  -25.3823  -54.2986 C.3       18 UNK        -0.1800 
    102 C         -7.1461  -22.9404  -54.1560 C.2       18 UNK         0.5000 
    103 O         -7.5027  -22.4285  -55.2182 O.2       18 UNK        -0.5000 
    104 N         -6.0434  -22.5783  -53.4927 N.am      19 UNK        -0.5000 
    105 CA        -5.0929  -21.5455  -53.8822 C.3       19 UNK         0.1400 
    106 CB        -4.1617  -22.0855  -54.9862 C.3       19 UNK        -0.1800 
    107 C         -4.2998  -21.1180  -52.6369 C.2       19 UNK         0.5000 
    108 O         -4.4817  -21.7001  -51.5651 O.2       19 UNK        -0.5000 
    109 N         -3.4317  -20.1117  -52.8092 N.am      20 UNK        -0.5000 
    110 CA        -2.4277  -19.6146  -51.8557 C.3       20 UNK         0.1400 
    111 CB        -1.4009  -20.7143  -51.5251 C.3       20 UNK        -0.1800 
    112 C         -2.9764  -18.9419  -50.5789 C.2       20 UNK         0.5000 
    113 O         -2.1874  -18.5489  -49.7199 O.2       20 UNK        -0.5000 
    114 N         -4.2981  -18.7578  -50.4852 N.am      21 UNK        -0.5000 
    115 CA        -4.9815  -18.0588  -49.3972 C.3       21 UNK         0.1400 
    116 CB        -6.4211  -18.5953  -49.2990 C.3       21 UNK        -0.1800 
    117 C         -4.9176  -16.5310  -49.5990 C.2       21 UNK         0.5000 
    118 O         -5.9511  -15.8847  -49.7804 O.2       21 UNK        -0.5000 
    119 N         -3.6946  -15.9867  -49.6033 N.am      22 UNK        -0.5000 
    120 CA        -3.4073  -14.5612  -49.8312 C.3       22 UNK         0.1400 
    121 C         -3.6951  -13.6162  -48.6250 C.2       22 UNK         0.5000 
    122 N         -4.0369  -14.1230  -47.4465 N.am      22 UNK        -0.7600 
    123 O         -3.6349  -12.3983  -48.7716 O.2       22 UNK        -0.5000 
    124 C124       -1.9952  -14.3477  -50.4349 C.3       23 UNK        -0.0398 
    125 S125       -0.6181  -14.8241  -49.3298 S.3       23 UNK        -0.2404 
    126 C126        0.2534  -16.0575  -50.3489 C.3       23 UNK        -0.0205 
    127 H127        3.6316  -16.2636  -53.6814 H         1 UNK         0.0600 
    128 H128        3.0456  -16.5109  -52.0417 H         1 UNK         0.0600 
    129 H129        2.1288  -15.4937  -53.1654 H         1 UNK         0.0600 
    130 H130        3.6101  -15.0065  -50.4452 H         1 UNK         0.3000 
    131 H131        5.7968  -13.3633  -50.8351 H         1 UNK         0.0600 
    132 H132        5.4550  -12.5439  -48.5015 H         1 UNK         0.0800 
    133 H133        3.9124  -13.3451  -48.4464 H         1 UNK         0.0800 
    134 H134        4.9034  -16.4167  -46.7160 H         1 UNK         0.0800 
    135 H135        3.8662  -15.0278  -46.8155 H         1 UNK         0.0800 
    136 H136        2.0966  -14.9319  -48.6064 H         1 UNK         0.1150 
    137 H137        1.1437  -18.6004  -50.6193 H         1 UNK         0.1150 
    138 H138        4.6722  -18.3244  -48.2099 H         1 UNK         0.1150 
    139 H139        2.8440  -20.3578  -50.7265 H         1 UNK         0.0800 
    140 H140        4.3898  -20.1041  -49.9667 H         1 UNK         0.0800 
    141 H141        0.9950  -21.5982  -49.8580 H         1 UNK         0.0800 
    142 H142        0.5721  -20.5615  -48.5118 H         1 UNK         0.0800 
    143 H143        1.1528  -23.5677  -48.3375 H         1 UNK         0.0600 
    144 H144        0.9283  -21.6953  -46.2143 H         1 UNK         0.3000 
    145 H145       -0.2718  -23.9683  -43.7178 H         1 UNK         0.0600 
    146 H146        1.7383  -23.0274  -42.5751 H         1 UNK         0.0600 
    147 H147        2.1719  -24.2772  -43.7311 H         1 UNK         0.0600 
    148 H148        2.4329  -22.5888  -44.1352 H         1 UNK         0.0600 
    149 H149        0.3778  -21.1347  -43.8773 H         1 UNK         0.3000 
    150 H150       -2.9521  -20.0687  -44.5337 H         1 UNK         0.0600 
    151 H151       -3.0328  -20.5568  -42.0819 H         1 UNK         0.0600 
    152 H152       -2.7170  -18.8578  -42.3956 H         1 UNK         0.0600 
    153 H153       -1.4020  -19.9207  -41.8958 H         1 UNK         0.0600 
    154 H154       -0.5891  -18.6244  -43.8416 H         1 UNK         0.3000 
    155 H155        0.7800  -18.4362  -47.1593 H         1 UNK         0.0600 
    156 H156        0.5022  -16.0019  -46.6845 H         1 UNK         0.0600 
    157 H157       -0.6721  -16.3581  -45.4287 H         1 UNK         0.0600 
    158 H158       -1.0414  -16.7319  -47.1051 H         1 UNK         0.0600 
    159 H159        1.7025  -17.1387  -44.8880 H         1 UNK         0.3000 
    160 H160        3.3046  -19.7009  -43.0977 H         1 UNK         0.0600 
    161 H161        4.6799  -17.5995  -44.8363 H         1 UNK         0.0600 
    162 H162        4.9302  -19.3332  -44.9566 H         1 UNK         0.0600 
    163 H163        5.3898  -18.4807  -43.4896 H         1 UNK         0.0600 
    164 H164        2.5487  -18.0845  -41.8409 H         1 UNK         0.3000 
    165 H165        2.0176  -16.2368  -40.9117 H         1 UNK         0.0600 
    166 H166        2.7382  -13.6494  -42.3890 H         1 UNK         0.0600 
    167 H167        2.3419  -13.8005  -40.6787 H         1 UNK         0.0600 
    168 H168        3.8122  -14.5291  -41.3082 H         1 UNK         0.0600 
    169 H169        0.3420  -14.3269  -42.0699 H         1 UNK         0.3000 
    170 H170       -2.2049  -16.3123  -43.4688 H         1 UNK         0.0600 
    171 H171       -2.3104  -14.9826  -40.7156 H         1 UNK         0.0600 
    172 H172       -2.7392  -16.6450  -41.0820 H         1 UNK         0.0600 
    173 H173       -3.6951  -15.3319  -41.7505 H         1 UNK         0.0600 
    174 H174       -2.0900  -14.3282  -44.3772 H         1 UNK         0.3000 
    175 H175       -2.5128  -12.1409  -44.5351 H         1 UNK         0.0600 
    176 H176       -2.3092   -9.8112  -43.7540 H         1 UNK         0.0600 
    177 H177       -2.9840  -10.8070  -42.4740 H         1 UNK         0.0600 
    178 H178       -1.2985  -10.3076  -42.3981 H         1 UNK         0.0600 
    179 H179        0.1245  -10.9190  -44.2430 H         1 UNK         0.3000 
    180 H180        1.4028  -10.8546  -46.1210 H         1 UNK         0.0600 
    181 H181        2.2514  -13.7746  -45.6811 H         1 UNK         0.0600 
    182 H182        2.4338  -12.4625  -44.5271 H         1 UNK         0.0600 
    183 H183        3.3692  -12.4494  -46.0131 H         1 UNK         0.0600 
    184 H184        0.6759  -12.9683  -48.0064 H         1 UNK         0.3000 
    185 H185        1.9696  -13.0772  -50.0827 H         1 UNK         0.0600 
    186 H186        0.5146  -11.9963  -51.7284 H         1 UNK         0.0600 
    187 H187       -0.2367  -11.8186  -50.1485 H         1 UNK         0.0600 
    188 H188        0.5937  -10.4555  -50.8723 H         1 UNK         0.0600 
    189 H189        2.8725  -10.5001  -51.1837 H         1 UNK         0.3000 
    190 H190       -1.6087  -21.4858  -47.3321 H         1 UNK         0.3000 
    191 H191       -3.4631  -22.3739  -49.2489 H         1 UNK         0.0600 
    192 H192       -3.7498  -20.3612  -47.8079 H         1 UNK         0.0600 
    193 H193       -5.1533  -21.4169  -47.7207 H         1 UNK         0.0600 
    194 H194       -3.9914  -21.3867  -46.3981 H         1 UNK         0.0600 
    195 H195       -2.7590  -23.6996  -45.9714 H         1 UNK         0.3000 
    196 H196       -4.7076  -25.7508  -45.9963 H         1 UNK         0.0600 
    197 H197       -3.3176  -26.7487  -44.1769 H         1 UNK         0.0600 
    198 H198       -3.5544  -25.0251  -43.9352 H         1 UNK         0.0600 
    199 H199       -2.0136  -25.6268  -44.5426 H         1 UNK         0.0600 
    200 H200       -1.2737  -25.8037  -47.0779 H         1 UNK         0.3000 
    201 H201       -1.2048  -28.5173  -47.9142 H         1 UNK         0.0600 
    202 H202        0.8307  -27.1543  -47.5332 H         1 UNK         0.0600 
    203 H203        0.4205  -26.1085  -48.8901 H         1 UNK         0.0600 
    204 H204        0.8296  -27.7967  -49.1691 H         1 UNK         0.0600 
    205 H205       -2.2120  -25.5608  -49.6182 H         1 UNK         0.3000 
    206 H206       -2.7886  -26.8826  -52.1460 H         1 UNK         0.0600 
    207 H207       -2.0516  -24.5077  -52.0205 H         1 UNK         0.0600 
    208 H208       -3.6471  -24.6154  -52.7469 H         1 UNK         0.0600 
    209 H209       -3.4782  -24.1007  -51.0730 H         1 UNK         0.0600 
    210 H210       -4.3716  -27.1424  -49.2416 H         1 UNK         0.3000 
    211 H211       -6.3674  -27.7055  -48.4977 H         1 UNK         0.0600 
    212 H212       -6.9662  -28.6562  -51.3495 H         1 UNK         0.0600 
    213 H213       -7.7768  -29.1843  -49.8809 H         1 UNK         0.0600 
    214 H214       -6.0858  -29.5818  -50.1340 H         1 UNK         0.0600 
    215 H215       -6.0459  -25.0168  -49.2433 H         1 UNK         0.3000 
    216 H216       -7.0163  -23.0799  -49.4148 H         1 UNK         0.0600 
    217 H217       -8.5573  -23.9665  -47.6512 H         1 UNK         0.0600 
    218 H218       -9.7023  -24.4572  -48.8998 H         1 UNK         0.0600 
    219 H219       -9.3327  -22.7565  -48.6582 H         1 UNK         0.0600 
    220 H220       -7.0691  -25.0475  -51.8972 H         1 UNK         0.3000 
    221 H221       -9.0456  -23.7840  -53.6359 H         1 UNK         0.0600 
    222 H222       -6.7361  -25.6825  -54.3019 H         1 UNK         0.0600 
    223 H223       -8.3653  -26.1936  -53.8596 H         1 UNK         0.0600 
    224 H224       -8.0973  -25.2827  -55.3386 H         1 UNK         0.0600 
    225 H225       -5.8461  -22.9980  -52.5929 H         1 UNK         0.3000 
    226 H226       -5.6398  -20.6756  -54.2512 H         1 UNK         0.0600 
    227 H227       -4.7260  -22.4029  -55.8631 H         1 UNK         0.0600 
    228 H228       -3.4564  -21.3246  -55.3211 H         1 UNK         0.0600 
    229 H229       -3.5813  -22.9403  -54.6371 H         1 UNK         0.0600 
    230 H230       -3.3936  -19.6785  -53.7216 H         1 UNK         0.3000 
    231 H231       -1.8907  -18.8252  -52.3835 H         1 UNK         0.0600 
    232 H232       -0.5889  -20.3115  -50.9218 H         1 UNK         0.0600 
    233 H233       -0.9574  -21.1280  -52.4305 H         1 UNK         0.0600 
    234 H234       -1.8506  -21.5351  -50.9670 H         1 UNK         0.0600 
    235 H235       -4.8767  -19.0956  -51.2392 H         1 UNK         0.3000 
    236 H236       -4.4804  -18.2764  -48.4525 H         1 UNK         0.0600 
    237 H237       -6.9593  -18.1228  -48.4764 H         1 UNK         0.0600 
    238 H238       -6.9855  -18.4086  -50.2135 H         1 UNK         0.0600 
    239 H239       -6.4287  -19.6701  -49.1166 H         1 UNK         0.0600 
    240 H240       -2.8949  -16.5935  -49.4573 H         1 UNK         0.3000 
    241 H241       -4.1062  -14.2288  -50.6014 H         1 UNK         0.0600 
    242 H242       -4.0889  -15.1190  -47.3155 H         1 UNK         0.3800 
    243 H243       -4.2317  -13.4993  -46.6809 H         1 UNK         0.3800 
    244 H244       -1.9181  -14.9057  -51.3687 H         1 UNK         0.0800 
    245 H245       -1.8682  -13.3033  -50.7189 H         1 UNK         0.0800 
    246 H246        0.5789  -15.5771  -51.2712 H         1 UNK         0.0800 
    247 H247       -0.4577  -16.8312  -50.6369 H         1 UNK         0.0800 
@<TRIPOS>BOND
     1    1    2 1    
     2    1  127 1    
     3    1  128 1    
     4    1  129 1    
     5    2    3 2    
     6    2    4 am   BACKBONE|DICT|INTERRES
     7    4    5 1    
     8    4  130 1    
     9    5    6 1    
    10    5   65 1    
    11    5  131 1    
    12    6    7 1    
    13    6  132 1    
    14    6  133 1    
    15    7    8 1    
    16    8    9 1    
    17    8  134 1    
    18    8  135 1    
    19    9   10 ar   
    20    9   14 ar   
    21   10   11 ar   
    22   10  136 1    
    23   11   12 ar   
    24   11  126 1    
    25   12   13 ar   
    26   12  137 1    
    27   13   14 ar   
    28   13   15 1    
    29   14  138 1    
    30   15   16 1    
    31   15  139 1    
    32   15  140 1    
    33   16   17 1    
    34   17   18 1    
    35   17  141 1    
    36   17  142 1    
    37   18   19 1    
    38   18   67 1    
    39   18  143 1    
    40   19   20 am   BACKBONE|DICT|INTERRES
    41   19  144 1    
    42   20   21 2    
    43   20   22 1    
    44   22   23 1    
    45   22   24 1    
    46   22  145 1    
    47   23  146 1    
    48   23  147 1    
    49   23  148 1    
    50   24   25 am   BACKBONE|DICT|INTERRES
    51   24  149 1    
    52   25   26 2    
    53   25   27 1    
    54   27   28 1    
    55   27   29 1    
    56   27  150 1    
    57   28  151 1    
    58   28  152 1    
    59   28  153 1    
    60   29   30 am   BACKBONE|DICT|INTERRES
    61   29  154 1    
    62   30   31 2    
    63   30   32 1    
    64   32   33 1    
    65   32   34 1    
    66   32  155 1    
    67   33  156 1    
    68   33  157 1    
    69   33  158 1    
    70   34   35 am   BACKBONE|DICT|INTERRES
    71   34  159 1    
    72   35   36 2    
    73   35   37 1    
    74   37   38 1    
    75   37   39 1    
    76   37  160 1    
    77   38  161 1    
    78   38  162 1    
    79   38  163 1    
    80   39   40 am   BACKBONE|DICT|INTERRES
    81   39  164 1    
    82   40   41 2    
    83   40   42 1    
    84   42   43 1    
    85   42   44 1    
    86   42  165 1    
    87   43  166 1    
    88   43  167 1    
    89   43  168 1    
    90   44   45 am   BACKBONE|DICT|INTERRES
    91   44  169 1    
    92   45   46 2    
    93   45   47 1    
    94   47   48 1    
    95   47   49 1    
    96   47  170 1    
    97   48  171 1    
    98   48  172 1    
    99   48  173 1    
   100   49   50 am   BACKBONE|DICT|INTERRES
   101   49  174 1    
   102   50   51 2    
   103   50   52 1    
   104   52   53 1    
   105   52   54 1    
   106   52  175 1    
   107   53  176 1    
   108   53  177 1    
   109   53  178 1    
   110   54   55 am   BACKBONE|DICT|INTERRES
   111   54  179 1    
   112   55   56 2    
   113   55   57 1    
   114   57   58 1    
   115   57   59 1    
   116   57  180 1    
   117   58  181 1    
   118   58  182 1    
   119   58  183 1    
   120   59   60 am   BACKBONE|DICT|INTERRES
   121   59  184 1    
   122   60   61 2    
   123   60   62 1    
   124   62   63 1    
   125   62   64 1    
   126   62  185 1    
   127   63  186 1    
   128   63  187 1    
   129   63  188 1    
   130   64   65 am   BACKBONE|DICT|INTERRES
   131   64  189 1    
   132   65   66 2    
   133   67   68 2    
   134   67   69 am   BACKBONE|DICT|INTERRES
   135   69   70 1    
   136   69  190 1    
   137   70   71 1    
   138   70   72 1    
   139   70  191 1    
   140   71  192 1    
   141   71  193 1    
   142   71  194 1    
   143   72   73 2    
   144   72   74 am   BACKBONE|DICT|INTERRES
   145   74   75 1    
   146   74  195 1    
   147   75   76 1    
   148   75   77 1    
   149   75  196 1    
   150   76  197 1    
   151   76  198 1    
   152   76  199 1    
   153   77   78 2    
   154   77   79 am   BACKBONE|DICT|INTERRES
   155   79   80 1    
   156   79  200 1    
   157   80   81 1    
   158   80   82 1    
   159   80  201 1    
   160   81  202 1    
   161   81  203 1    
   162   81  204 1    
   163   82   83 2    
   164   82   84 am   BACKBONE|DICT|INTERRES
   165   84   85 1    
   166   84  205 1    
   167   85   86 1    
   168   85   87 1    
   169   85  206 1    
   170   86  207 1    
   171   86  208 1    
   172   86  209 1    
   173   87   88 2    
   174   87   89 am   BACKBONE|DICT|INTERRES
   175   89   90 1    
   176   89  210 1    
   177   90   91 1    
   178   90   92 1    
   179   90  211 1    
   180   91  212 1    
   181   91  213 1    
   182   91  214 1    
   183   92   93 2    
   184   92   94 am   BACKBONE|DICT|INTERRES
   185   94   95 1    
   186   94  215 1    
   187   95   96 1    
   188   95   97 1    
   189   95  216 1    
   190   96  217 1    
   191   96  218 1    
   192   96  219 1    
   193   97   98 2    
   194   97   99 am   BACKBONE|DICT|INTERRES
   195   99  100 1    
   196   99  220 1    
   197  100  101 1    
   198  100  102 1    
   199  100  221 1    
   200  101  222 1    
   201  101  223 1    
   202  101  224 1    
   203  102  103 2    
   204  102  104 am   BACKBONE|DICT|INTERRES
   205  104  105 1    
   206  104  225 1    
   207  105  106 1    
   208  105  107 1    
   209  105  226 1    
   210  106  227 1    
   211  106  228 1    
   212  106  229 1    
   213  107  108 2    
   214  107  109 am   BACKBONE|DICT|INTERRES
   215  109  110 1    
   216  109  230 1    
   217  110  111 1    
   218  110  112 1    
   219  110  231 1    
   220  111  232 1    
   221  111  233 1    
   222  111  234 1    
   223  112  113 2    
   224  112  114 am   BACKBONE|DICT|INTERRES
   225  114  115 1    
   226  114  235 1    
   227  115  116 1    
   228  115  117 1    
   229  115  236 1    
   230  116  237 1    
   231  116  238 1    
   232  116  239 1    
   233  117  118 2    
   234  117  119 am   BACKBONE|DICT|INTERRES
   235  119  120 1    
   236  119  240 1    
   237  120  121 1    
   238  120  124 1    
   239  120  241 1    
   240  121  122 am   BACKBONE|DICT|INTERRES
   241  121  123 2    
   242  122  242 1    
   243  122  243 1    
   244  124  125 1    
   245  124  244 1    
   246  124  245 1    
   247  125  126 1    
   248  126  246 1    
   249  126  247 1    
@<TRIPOS>SUBSTRUCTURE
     1 UNK         1 GROUP             0       ****    0 ROOT    
