@<TRIPOS>MOLECULE
3R540
247   249    1
SMALL
USER_CHARGES


@<TRIPOS>ATOM
      1 CA         -5.8847  -13.9958  -50.3951 C.3       0 UNK        -0.1800 
      2 C          -4.5988  -13.3000  -50.8174 C.2       0 UNK         0.5000 
      3 O          -4.5728  -12.0730  -50.9093 O.2       0 UNK        -0.5000 
      4 N          -3.5348  -14.0716  -51.0796 N.am      1 UNK        -0.5000 
      5 CA         -2.2376  -13.5635  -51.5395 C.3       1 UNK         0.1400 
      6 C6         -1.4641  -14.5990  -52.3967 C.3       23 UNK        -0.0398 
      7 S7         -1.0416  -16.1640  -51.5511 S.3       23 UNK        -0.2404 
      8 C8          0.7582  -15.9816  -51.3450 C.3       23 UNK        -0.0205 
      9 C9          1.4360  -17.2569  -50.8553 C.ar      23 UNK        -0.0193 
     10 C10         1.4223  -18.4088  -51.6486 C.ar      23 UNK        -0.1150 
     11 C11         2.1240  -19.5554  -51.2604 C.ar      23 UNK        -0.0193 
     12 C12         2.8579  -19.5359  -50.0697 C.ar      23 UNK        -0.1150 
     13 C13         2.8783  -18.3951  -49.2630 C.ar      23 UNK        -0.0193 
     14 C14         2.1537  -17.2633  -49.6541 C.ar      23 UNK        -0.1150 
     15 C15         3.7439  -18.3581  -48.0106 C.3       23 UNK        -0.0205 
     16 S16         2.8054  -18.7185  -46.4954 S.3       23 UNK        -0.2404 
     17 C17         2.7089  -20.5466  -46.4943 C.3       23 UNK        -0.0398 
     18 CA          1.3746  -21.1236  -47.0320 C.3       11 UNK         0.1400 
     19 N           1.3699  -22.5886  -47.0318 N.am      11 UNK        -0.5000 
     20 C           0.4520  -23.3541  -47.6415 C.2       10 UNK         0.5000 
     21 O          -0.4883  -22.9154  -48.3013 O.2       10 UNK        -0.5000 
     22 CA          0.5738  -24.8717  -47.4221 C.3       10 UNK         0.1400 
     23 CB          1.7181  -25.4546  -48.2642 C.3       10 UNK        -0.1800 
     24 N           0.7806  -25.2121  -46.0142 N.am      10 UNK        -0.5000 
     25 C          -0.1071  -24.9769  -45.0371 C.2       9 UNK         0.5000 
     26 O          -1.2259  -24.4992  -45.2262 O.2       9 UNK        -0.5000 
     27 CA          0.3512  -25.2893  -43.5990 C.3       9 UNK         0.1400 
     28 CB          0.0453  -26.7517  -43.2430 C.3       9 UNK        -0.1800 
     29 N           1.7713  -25.0155  -43.3469 N.am      9 UNK        -0.5000 
     30 C           2.3607  -23.8219  -43.4988 C.2       8 UNK         0.5000 
     31 O           1.7889  -22.8319  -43.9569 O.2       8 UNK        -0.5000 
     32 CA          3.8528  -23.7345  -43.1303 C.3       8 UNK         0.1400 
     33 CB          4.7185  -24.0929  -44.3483 C.3       8 UNK        -0.1800 
     34 N           4.2235  -22.3958  -42.6684 N.am      8 UNK        -0.5000 
     35 C           3.7853  -21.8232  -41.5391 C.2       7 UNK         0.5000 
     36 O           3.0886  -22.4088  -40.7062 O.2       7 UNK        -0.5000 
     37 CA          4.2154  -20.3650  -41.2627 C.3       7 UNK         0.1400 
     38 CB          4.9637  -19.6825  -42.4328 C.3       7 UNK        -0.1800 
     39 N           3.0844  -19.5457  -40.8132 N.am      7 UNK        -0.5000 
     40 C           1.9823  -19.2451  -41.5160 C.2       6 UNK         0.5000 
     41 O           1.7986  -19.5939  -42.6829 O.2       6 UNK        -0.5000 
     42 CA          0.8840  -18.4199  -40.8086 C.3       6 UNK         0.1400 
     43 CB          1.2542  -17.9151  -39.3951 C.3       6 UNK        -0.1800 
     44 N           0.4308  -17.3245  -41.6681 N.am      6 UNK        -0.5000 
     45 C           1.1507  -16.2911  -42.1204 C.2       5 UNK         0.5000 
     46 O           2.2709  -16.0010  -41.6980 O.2       5 UNK        -0.5000 
     47 CA          0.5490  -15.4428  -43.2621 C.3       5 UNK         0.1400 
     48 CB          0.9851  -16.0266  -44.6161 C.3       5 UNK        -0.1800 
     49 N          -0.9063  -15.2077  -43.2475 N.am      5 UNK        -0.5000 
     50 C          -1.9183  -16.0880  -43.3158 C.2       4 UNK         0.5000 
     51 O          -1.7763  -17.3082  -43.2846 O.2       4 UNK        -0.5000 
     52 CA         -3.3330  -15.5129  -43.4662 C.3       4 UNK         0.1400 
     53 CB         -3.9173  -15.1297  -42.0944 C.3       4 UNK        -0.1800 
     54 N          -3.3436  -14.3661  -44.3736 N.am      4 UNK        -0.5000 
     55 C          -4.4178  -13.8894  -45.0092 C.2       3 UNK         0.5000 
     56 O          -5.5435  -14.3779  -44.9049 O.2       3 UNK        -0.5000 
     57 CA         -4.2168  -12.6484  -45.9036 C.3       3 UNK         0.1400 
     58 CB         -4.0865  -11.3710  -45.0525 C.3       3 UNK        -0.1800 
     59 N          -3.1284  -12.7426  -46.8867 N.am      3 UNK        -0.5000 
     60 C          -1.8065  -12.8586  -46.6932 C.2       2 UNK         0.5000 
     61 O          -1.2837  -12.9304  -45.5795 O.2       2 UNK        -0.5000 
     62 CA         -0.9269  -12.9048  -47.9583 C.3       2 UNK         0.1400 
     63 CB          0.3490  -13.7542  -47.7917 C.3       2 UNK        -0.1800 
     64 N          -1.6731  -13.3476  -49.1402 N.am      2 UNK        -0.5000 
     65 C          -1.3738  -12.9868  -50.3969 C.2       1 UNK         0.5000 
     66 O          -0.4515  -12.2209  -50.6806 O.2       1 UNK        -0.5000 
     67 C           0.1440  -20.5696  -46.2892 C.2       11 UNK         0.5000 
     68 O          -0.5285  -19.6943  -46.8264 O.2       11 UNK        -0.5000 
     69 N          -0.1610  -21.1209  -45.1057 N.am      12 UNK        -0.5000 
     70 CA         -1.3030  -20.7288  -44.2778 C.3       12 UNK         0.1400 
     71 CB         -1.2829  -21.5231  -42.9634 C.3       12 UNK        -0.1800 
     72 C          -2.6584  -20.8895  -44.9940 C.2       12 UNK         0.5000 
     73 O          -3.5358  -20.0395  -44.8382 O.2       12 UNK        -0.5000 
     74 N          -2.7911  -21.9593  -45.7905 N.am      13 UNK        -0.5000 
     75 CA         -3.9188  -22.1794  -46.6897 C.3       13 UNK         0.1400 
     76 CB         -3.9231  -23.6408  -47.1635 C.3       13 UNK        -0.1800 
     77 C          -3.8943  -21.2034  -47.8792 C.2       13 UNK         0.5000 
     78 O          -4.8685  -20.4797  -48.0868 O.2       13 UNK        -0.5000 
     79 N          -2.7781  -21.1841  -48.6226 N.am      14 UNK        -0.5000 
     80 CA         -2.5739  -20.3864  -49.8352 C.3       14 UNK         0.1400 
     81 CB         -1.1758  -20.6625  -50.3975 C.3       14 UNK        -0.1800 
     82 C          -2.7667  -18.8772  -49.6362 C.2       14 UNK         0.5000 
     83 O          -3.3650  -18.2237  -50.4908 O.2       14 UNK        -0.5000 
     84 N          -2.2927  -18.3624  -48.4975 N.am      15 UNK        -0.5000 
     85 CA         -2.3987  -16.9682  -48.0856 C.3       15 UNK         0.1400 
     86 CB         -1.6725  -16.7897  -46.7524 C.3       15 UNK        -0.1800 
     87 C          -3.8421  -16.4587  -47.9748 C.2       15 UNK         0.5000 
     88 O          -4.0651  -15.2780  -48.2345 O.2       15 UNK        -0.5000 
     89 N          -4.7773  -17.3479  -47.6179 N.am      16 UNK        -0.5000 
     90 CA         -6.2074  -17.0634  -47.5406 C.3       16 UNK         0.1400 
     91 CB         -6.7943  -17.8004  -46.3275 C.3       16 UNK        -0.1800 
     92 C          -6.9399  -17.4750  -48.8309 C.2       16 UNK         0.5000 
     93 O          -7.8631  -16.7759  -49.2482 O.2       16 UNK        -0.5000 
     94 N          -6.5253  -18.5950  -49.4416 N.am      17 UNK        -0.5000 
     95 CA         -7.1271  -19.1669  -50.6508 C.3       17 UNK         0.1400 
     96 CB         -6.6900  -20.6351  -50.7785 C.3       17 UNK        -0.1800 
     97 C          -6.8010  -18.4002  -51.9484 C.2       17 UNK         0.5000 
     98 O          -7.4962  -18.6019  -52.9446 O.2       17 UNK        -0.5000 
     99 N          -5.7621  -17.5541  -51.9099 N.am      18 UNK        -0.5000 
    100 CA        -5.1594  -16.8136  -53.0204 C.3       18 UNK         0.1400 
    101 CB        -6.1767  -15.9150  -53.7554 C.3       18 UNK        -0.1800 
    102 C         -4.3793  -17.7650  -53.9423 C.2       18 UNK         0.5000 
    103 O         -4.7612  -17.9816  -55.0939 O.2       18 UNK        -0.5000 
    104 N         -3.2952  -18.3156  -53.3807 N.am      19 UNK        -0.5000 
    105 CA        -2.3946  -19.3122  -53.9599 C.3       19 UNK         0.1400 
    106 CB        -1.7419  -18.8064  -55.2664 C.3       19 UNK        -0.1800 
    107 C         -3.0784  -20.6909  -54.0673 C.2       19 UNK         0.5000 
    108 O         -3.8911  -21.0309  -53.2044 O.2       19 UNK        -0.5000 
    109 N         -2.7049  -21.4771  -55.0869 N.am      20 UNK        -0.5000 
    110 CA        -3.1925  -22.8151  -55.4549 C.3       20 UNK         0.1400 
    111 CB        -4.7037  -22.7995  -55.7550 C.3       20 UNK        -0.1800 
    112 C         -2.8382  -23.9410  -54.4622 C.2       20 UNK         0.5000 
    113 O         -2.3791  -24.9995  -54.8944 O.2       20 UNK        -0.5000 
    114 N         -3.0288  -23.7028  -53.1582 N.am      21 UNK        -0.5000 
    115 CA        -2.8302  -24.6735  -52.0753 C.3       21 UNK         0.1400 
    116 CB        -3.3787  -24.0918  -50.7656 C.3       21 UNK        -0.1800 
    117 C         -1.3716  -25.1440  -51.8965 C.2       21 UNK         0.5000 
    118 O         -1.1511  -26.2119  -51.3238 O.2       21 UNK        -0.5000 
    119 N         -0.4113  -24.3667  -52.4135 N.am      22 UNK        -0.5000 
    120 CA         1.0043  -24.7535  -52.5256 C.3       22 UNK         0.1400 
    121 C          1.2936  -25.7971  -53.6476 C.2       22 UNK         0.5000 
    122 N          0.3587  -26.1134  -54.5374 N.am      22 UNK        -0.7600 
    123 O          2.3937  -26.3392  -53.7083 O.2       22 UNK        -0.5000 
    124 C124        1.9377  -23.5248  -52.6737 C.3       23 UNK        -0.0398 
    125 S125        1.7966  -22.3398  -51.2933 S.3       23 UNK        -0.2404 
    126 C126        2.1441  -20.7794  -52.1697 C.3       23 UNK        -0.0205 
    127 H127       -6.7078  -13.6967  -51.0435 H         1 UNK         0.0600 
    128 H128       -6.1399  -13.7251  -49.3706 H         1 UNK         0.0600 
    129 H129       -5.7913  -15.0799  -50.4445 H         1 UNK         0.0600 
    130 H130       -3.5862  -15.0684  -50.9273 H         1 UNK         0.3000 
    131 H131       -2.4387  -12.7200  -52.2040 H         1 UNK         0.0600 
    132 H132       -2.0662  -14.8576  -53.2686 H         1 UNK         0.0800 
    133 H133       -0.5588  -14.1458  -52.8041 H         1 UNK         0.0800 
    134 H134        1.2040  -15.7044  -52.3012 H         1 UNK         0.0800 
    135 H135        0.9523  -15.1538  -50.6617 H         1 UNK         0.0800 
    136 H136        0.8813  -18.3988  -52.5844 H         1 UNK         0.1150 
    137 H137        3.4289  -20.4066  -49.7799 H         1 UNK         0.1150 
    138 H138        2.1847  -16.3736  -49.0408 H         1 UNK         0.1150 
    139 H139        4.5850  -19.0470  -48.1007 H         1 UNK         0.0800 
    140 H140        4.1842  -17.3648  -47.9116 H         1 UNK         0.0800 
    141 H141        3.5433  -20.9482  -47.0700 H         1 UNK         0.0800 
    142 H142        2.8701  -20.8765  -45.4667 H         1 UNK         0.0800 
    143 H143        1.2851  -20.8106  -48.0733 H         1 UNK         0.0600 
    144 H144        2.0513  -23.0380  -46.4393 H         1 UNK         0.3000 
    145 H145       -0.3610  -25.3317  -47.7503 H         1 UNK         0.0600 
    146 H146        1.7384  -26.5428  -48.2030 H         1 UNK         0.0600 
    147 H147        1.5973  -25.1904  -49.3143 H         1 UNK         0.0600 
    148 H148        2.6910  -25.0804  -47.9432 H         1 UNK         0.0600 
    149 H149        1.6736  -25.6097  -45.7644 H         1 UNK         0.3000 
    150 H150       -0.2260  -24.6511  -42.9276 H         1 UNK         0.0600 
    151 H151        0.6252  -27.4450  -43.8535 H         1 UNK         0.0600 
    152 H152       -1.0100  -26.9794  -43.4004 H         1 UNK         0.0600 
    153 H153        0.2673  -26.9583  -42.1959 H         1 UNK         0.0600 
    154 H154        2.3157  -25.7852  -42.9848 H         1 UNK         0.3000 
    155 H155        4.0598  -24.4439  -42.3264 H         1 UNK         0.0600 
    156 H156        4.5546  -23.4021  -45.1767 H         1 UNK         0.0600 
    157 H157        4.4934  -25.0974  -44.7090 H         1 UNK         0.0600 
    158 H158        5.7794  -24.0705  -44.0983 H         1 UNK         0.0600 
    159 H159        4.7668  -21.8352  -43.3070 H         1 UNK         0.3000 
    160 H160        4.9064  -20.4128  -40.4201 H         1 UNK         0.0600 
    161 H161        4.3671  -19.6540  -43.3456 H         1 UNK         0.0600 
    162 H162        5.8970  -20.1987  -42.6602 H         1 UNK         0.0600 
    163 H163        5.2238  -18.6546  -42.1800 H         1 UNK         0.0600 
    164 H164        3.1304  -19.2327  -39.8543 H         1 UNK         0.3000 
    165 H165        0.0292  -19.0894  -40.7032 H         1 UNK         0.0600 
    166 H166        0.4415  -17.3274  -38.9680 H         1 UNK         0.0600 
    167 H167        1.4344  -18.7484  -38.7150 H         1 UNK         0.0600 
    168 H168        2.1468  -17.2890  -39.3980 H         1 UNK         0.0600 
    169 H169       -0.4496  -17.4882  -42.1544 H         1 UNK         0.3000 
    170 H170        0.9990  -14.4524  -43.1768 H         1 UNK         0.0600 
    171 H171        2.0717  -16.0930  -44.6838 H         1 UNK         0.0600 
    172 H172        0.5904  -17.0323  -44.7672 H         1 UNK         0.0600 
    173 H173        0.6473  -15.4007  -45.4390 H         1 UNK         0.0600 
    174 H174       -1.1543  -14.2290  -43.2196 H         1 UNK         0.3000 
    175 H175       -3.9521  -16.3005  -43.9022 H         1 UNK         0.0600 
    176 H176       -3.3684  -14.3038  -41.6406 H         1 UNK         0.0600 
    177 H177       -4.9624  -14.8315  -42.1763 H         1 UNK         0.0600 
    178 H178       -3.8762  -15.9726  -41.4033 H         1 UNK         0.0600 
    179 H179       -2.4487  -13.9340  -44.5940 H         1 UNK         0.3000 
    180 H180       -5.1280  -12.5494  -46.4960 H         1 UNK         0.0600 
    181 H181       -4.9416  -11.2601  -44.3845 H         1 UNK         0.0600 
    182 H182       -4.0484  -10.4816  -45.6813 H         1 UNK         0.0600 
    183 H183       -3.1896  -11.3816  -44.4326 H         1 UNK         0.0600 
    184 H184       -3.4440  -12.7220  -47.8455 H         1 UNK         0.3000 
    185 H185       -0.6156  -11.8696  -48.1118 H         1 UNK         0.0600 
    186 H186        1.0243  -13.6162  -48.6358 H         1 UNK         0.0600 
    187 H187        0.9041  -13.4730  -46.8964 H         1 UNK         0.0600 
    188 H188        0.1199  -14.8165  -47.7268 H         1 UNK         0.0600 
    189 H189       -2.4502  -13.9787  -48.9811 H         1 UNK         0.3000 
    190 H190        0.4777  -21.8072  -44.7088 H         1 UNK         0.3000 
    191 H191       -1.1718  -19.6731  -44.0409 H         1 UNK         0.0600 
    192 H192       -0.3321  -21.4057  -42.4433 H         1 UNK         0.0600 
    193 H193       -2.0687  -21.1785  -42.2902 H         1 UNK         0.0600 
    194 H194       -1.4412  -22.5871  -43.1367 H         1 UNK         0.0600 
    195 H195       -2.0385  -22.6381  -45.8249 H         1 UNK         0.3000 
    196 H196       -4.8425  -22.0047  -46.1341 H         1 UNK         0.0600 
    197 H197       -4.7400  -23.8238  -47.8626 H         1 UNK         0.0600 
    198 H198       -4.0525  -24.3238  -46.3238 H         1 UNK         0.0600 
    199 H199       -2.9919  -23.9073  -47.6641 H         1 UNK         0.0600 
    200 H200       -2.0064  -21.7960  -48.3667 H         1 UNK         0.3000 
    201 H201       -3.3070  -20.7141  -50.5725 H         1 UNK         0.0600 
    202 H202       -0.4032  -20.4779  -49.6517 H         1 UNK         0.0600 
    203 H203       -0.9515  -20.0199  -51.2447 H         1 UNK         0.0600 
    204 H204       -1.0776  -21.6930  -50.7352 H         1 UNK         0.0600 
    205 H205       -1.7637  -18.9709  -47.8721 H         1 UNK         0.3000 
    206 H206       -1.8892  -16.3587  -48.8312 H         1 UNK         0.0600 
    207 H207       -0.6106  -17.0074  -46.8619 H         1 UNK         0.0600 
    208 H208       -1.7624  -15.7703  -46.3809 H         1 UNK         0.0600 
    209 H209       -2.0741  -17.4591  -45.9910 H         1 UNK         0.0600 
    210 H210       -4.4959  -18.3068  -47.4570 H         1 UNK         0.3000 
    211 H211       -6.3653  -15.9927  -47.3915 H         1 UNK         0.0600 
    212 H212       -6.6528  -18.8795  -46.4027 H         1 UNK         0.0600 
    213 H213       -7.8647  -17.6122  -46.2356 H         1 UNK         0.0600 
    214 H214       -6.3243  -17.4651  -45.4024 H         1 UNK         0.0600 
    215 H215       -5.7972  -19.1527  -49.0021 H         1 UNK         0.3000 
    216 H216       -8.2120  -19.1485  -50.5287 H         1 UNK         0.0600 
    217 H217       -7.1608  -21.1121  -51.6390 H         1 UNK         0.0600 
    218 H218       -6.9678  -21.2104  -49.8953 H         1 UNK         0.0600 
    219 H219       -5.6117  -20.7205  -50.9100 H         1 UNK         0.0600 
    220 H220       -5.2039  -17.5779  -51.0634 H         1 UNK         0.3000 
    221 H221       -4.4199  -16.1512  -52.5733 H         1 UNK         0.0600 
    222 H222       -6.9108  -16.4920  -54.3175 H         1 UNK         0.0600 
    223 H223       -6.7165  -15.2759  -53.0574 H         1 UNK         0.0600 
    224 H224       -5.6678  -15.2638  -54.4667 H         1 UNK         0.0600 
    225 H225       -3.1473  -18.1343  -52.3910 H         1 UNK         0.3000 
    226 H226       -1.5879  -19.4307  -53.2404 H         1 UNK         0.0600 
    227 H227       -0.9074  -19.4420  -55.5639 H         1 UNK         0.0600 
    228 H228       -2.4489  -18.7775  -56.0961 H         1 UNK         0.0600 
    229 H229       -1.3413  -17.8007  -55.1366 H         1 UNK         0.0600 
    230 H230       -2.0064  -21.1040  -55.7145 H         1 UNK         0.3000 
    231 H231       -2.6837  -23.0599  -56.3887 H         1 UNK         0.0600 
    232 H232       -5.2960  -22.5785  -54.8666 H         1 UNK         0.0600 
    233 H233       -5.0347  -23.7677  -56.1325 H         1 UNK         0.0600 
    234 H234       -4.9469  -22.0548  -56.5128 H         1 UNK         0.0600 
    235 H235       -3.4099  -22.7935  -52.9067 H         1 UNK         0.3000 
    236 H236       -3.4220  -25.5570  -52.3228 H         1 UNK         0.0600 
    237 H237       -4.4124  -23.7625  -50.8731 H         1 UNK         0.0600 
    238 H238       -3.3543  -24.8384  -49.9712 H         1 UNK         0.0600 
    239 H239       -2.7868  -23.2431  -50.4310 H         1 UNK         0.0600 
    240 H240       -0.6795  -23.5021  -52.8568 H         1 UNK         0.3000 
    241 H241        1.2787  -25.2519  -51.5954 H         1 UNK         0.0600 
    242 H242       -0.5626  -25.6884  -54.5178 H         1 UNK         0.3800 
    243 H243        0.5707  -26.7944  -55.2492 H         1 UNK         0.3800 
    244 H244        2.9815  -23.8398  -52.7234 H         1 UNK         0.0800 
    245 H245        1.7292  -23.0136  -53.6150 H         1 UNK         0.0800 
    246 H246        3.1252  -20.8454  -52.6417 H         1 UNK         0.0800 
    247 H247        1.4162  -20.6637  -52.9742 H         1 UNK         0.0800 
@<TRIPOS>BOND
     1    1    2 1    
     2    1  127 1    
     3    1  128 1    
     4    1  129 1    
     5    2    3 2    
     6    2    4 am   BACKBONE|DICT|INTERRES
     7    4    5 1    
     8    4  130 1    
     9    5    6 1    
    10    5   65 1    
    11    5  131 1    
    12    6    7 1    
    13    6  132 1    
    14    6  133 1    
    15    7    8 1    
    16    8    9 1    
    17    8  134 1    
    18    8  135 1    
    19    9   10 ar   
    20    9   14 ar   
    21   10   11 ar   
    22   10  136 1    
    23   11   12 ar   
    24   11  126 1    
    25   12   13 ar   
    26   12  137 1    
    27   13   14 ar   
    28   13   15 1    
    29   14  138 1    
    30   15   16 1    
    31   15  139 1    
    32   15  140 1    
    33   16   17 1    
    34   17   18 1    
    35   17  141 1    
    36   17  142 1    
    37   18   19 1    
    38   18   67 1    
    39   18  143 1    
    40   19   20 am   BACKBONE|DICT|INTERRES
    41   19  144 1    
    42   20   21 2    
    43   20   22 1    
    44   22   23 1    
    45   22   24 1    
    46   22  145 1    
    47   23  146 1    
    48   23  147 1    
    49   23  148 1    
    50   24   25 am   BACKBONE|DICT|INTERRES
    51   24  149 1    
    52   25   26 2    
    53   25   27 1    
    54   27   28 1    
    55   27   29 1    
    56   27  150 1    
    57   28  151 1    
    58   28  152 1    
    59   28  153 1    
    60   29   30 am   BACKBONE|DICT|INTERRES
    61   29  154 1    
    62   30   31 2    
    63   30   32 1    
    64   32   33 1    
    65   32   34 1    
    66   32  155 1    
    67   33  156 1    
    68   33  157 1    
    69   33  158 1    
    70   34   35 am   BACKBONE|DICT|INTERRES
    71   34  159 1    
    72   35   36 2    
    73   35   37 1    
    74   37   38 1    
    75   37   39 1    
    76   37  160 1    
    77   38  161 1    
    78   38  162 1    
    79   38  163 1    
    80   39   40 am   BACKBONE|DICT|INTERRES
    81   39  164 1    
    82   40   41 2    
    83   40   42 1    
    84   42   43 1    
    85   42   44 1    
    86   42  165 1    
    87   43  166 1    
    88   43  167 1    
    89   43  168 1    
    90   44   45 am   BACKBONE|DICT|INTERRES
    91   44  169 1    
    92   45   46 2    
    93   45   47 1    
    94   47   48 1    
    95   47   49 1    
    96   47  170 1    
    97   48  171 1    
    98   48  172 1    
    99   48  173 1    
   100   49   50 am   BACKBONE|DICT|INTERRES
   101   49  174 1    
   102   50   51 2    
   103   50   52 1    
   104   52   53 1    
   105   52   54 1    
   106   52  175 1    
   107   53  176 1    
   108   53  177 1    
   109   53  178 1    
   110   54   55 am   BACKBONE|DICT|INTERRES
   111   54  179 1    
   112   55   56 2    
   113   55   57 1    
   114   57   58 1    
   115   57   59 1    
   116   57  180 1    
   117   58  181 1    
   118   58  182 1    
   119   58  183 1    
   120   59   60 am   BACKBONE|DICT|INTERRES
   121   59  184 1    
   122   60   61 2    
   123   60   62 1    
   124   62   63 1    
   125   62   64 1    
   126   62  185 1    
   127   63  186 1    
   128   63  187 1    
   129   63  188 1    
   130   64   65 am   BACKBONE|DICT|INTERRES
   131   64  189 1    
   132   65   66 2    
   133   67   68 2    
   134   67   69 am   BACKBONE|DICT|INTERRES
   135   69   70 1    
   136   69  190 1    
   137   70   71 1    
   138   70   72 1    
   139   70  191 1    
   140   71  192 1    
   141   71  193 1    
   142   71  194 1    
   143   72   73 2    
   144   72   74 am   BACKBONE|DICT|INTERRES
   145   74   75 1    
   146   74  195 1    
   147   75   76 1    
   148   75   77 1    
   149   75  196 1    
   150   76  197 1    
   151   76  198 1    
   152   76  199 1    
   153   77   78 2    
   154   77   79 am   BACKBONE|DICT|INTERRES
   155   79   80 1    
   156   79  200 1    
   157   80   81 1    
   158   80   82 1    
   159   80  201 1    
   160   81  202 1    
   161   81  203 1    
   162   81  204 1    
   163   82   83 2    
   164   82   84 am   BACKBONE|DICT|INTERRES
   165   84   85 1    
   166   84  205 1    
   167   85   86 1    
   168   85   87 1    
   169   85  206 1    
   170   86  207 1    
   171   86  208 1    
   172   86  209 1    
   173   87   88 2    
   174   87   89 am   BACKBONE|DICT|INTERRES
   175   89   90 1    
   176   89  210 1    
   177   90   91 1    
   178   90   92 1    
   179   90  211 1    
   180   91  212 1    
   181   91  213 1    
   182   91  214 1    
   183   92   93 2    
   184   92   94 am   BACKBONE|DICT|INTERRES
   185   94   95 1    
   186   94  215 1    
   187   95   96 1    
   188   95   97 1    
   189   95  216 1    
   190   96  217 1    
   191   96  218 1    
   192   96  219 1    
   193   97   98 2    
   194   97   99 am   BACKBONE|DICT|INTERRES
   195   99  100 1    
   196   99  220 1    
   197  100  101 1    
   198  100  102 1    
   199  100  221 1    
   200  101  222 1    
   201  101  223 1    
   202  101  224 1    
   203  102  103 2    
   204  102  104 am   BACKBONE|DICT|INTERRES
   205  104  105 1    
   206  104  225 1    
   207  105  106 1    
   208  105  107 1    
   209  105  226 1    
   210  106  227 1    
   211  106  228 1    
   212  106  229 1    
   213  107  108 2    
   214  107  109 am   BACKBONE|DICT|INTERRES
   215  109  110 1    
   216  109  230 1    
   217  110  111 1    
   218  110  112 1    
   219  110  231 1    
   220  111  232 1    
   221  111  233 1    
   222  111  234 1    
   223  112  113 2    
   224  112  114 am   BACKBONE|DICT|INTERRES
   225  114  115 1    
   226  114  235 1    
   227  115  116 1    
   228  115  117 1    
   229  115  236 1    
   230  116  237 1    
   231  116  238 1    
   232  116  239 1    
   233  117  118 2    
   234  117  119 am   BACKBONE|DICT|INTERRES
   235  119  120 1    
   236  119  240 1    
   237  120  121 1    
   238  120  124 1    
   239  120  241 1    
   240  121  122 am   BACKBONE|DICT|INTERRES
   241  121  123 2    
   242  122  242 1    
   243  122  243 1    
   244  124  125 1    
   245  124  244 1    
   246  124  245 1    
   247  125  126 1    
   248  126  246 1    
   249  126  247 1    
@<TRIPOS>SUBSTRUCTURE
     1 UNK         1 GROUP             0       ****    0 ROOT    
