@<TRIPOS>MOLECULE
3R540
247   249    1
SMALL
USER_CHARGES


@<TRIPOS>ATOM
      1 CA         -3.5934  -19.4624  -51.4434 C.3       0 UNK        -0.1800 
      2 C          -2.4643  -18.5151  -51.8153 C.2       0 UNK         0.5000 
      3 O          -1.7711  -18.7478  -52.8056 O.2       0 UNK        -0.5000 
      4 N          -2.3035  -17.4354  -51.0468 N.am      1 UNK        -0.5000 
      5 CA         -1.3359  -16.3639  -51.2832 C.3       1 UNK         0.1400 
      6 C6          0.1531  -16.7886  -51.1927 C.3       23 UNK        -0.0398 
      7 S7          0.6245  -17.6228  -49.6387 S.3       23 UNK        -0.2404 
      8 C8          2.4376  -17.7182  -49.8084 C.3       23 UNK        -0.0205 
      9 C9          2.9022  -19.0360  -50.4183 C.ar      23 UNK        -0.0193 
     10 C10         2.6844  -19.3084  -51.7719 C.ar      23 UNK        -0.1150 
     11 C11         3.1101  -20.5130  -52.3362 C.ar      23 UNK        -0.0193 
     12 C12         3.7843  -21.4434  -51.5412 C.ar      23 UNK        -0.1150 
     13 C13         4.0436  -21.1741  -50.1935 C.ar      23 UNK        -0.0193 
     14 C14         3.5905  -19.9710  -49.6373 C.ar      23 UNK        -0.1150 
     15 C15         4.8722  -22.1624  -49.3763 C.3       23 UNK        -0.0205 
     16 S16         4.2038  -22.5041  -47.7168 S.3       23 UNK        -0.2404 
     17 C17         2.6113  -23.2883  -48.1266 C.3       23 UNK        -0.0398 
     18 CA          2.0331  -24.1108  -46.9482 C.3       11 UNK         0.1400 
     19 N           1.9173  -23.3033  -45.7300 N.am      11 UNK        -0.5000 
     20 C           1.6502  -23.7655  -44.5020 C.2       10 UNK         0.5000 
     21 O           1.5550  -24.9641  -44.2309 O.2       10 UNK        -0.5000 
     22 CA          1.4403  -22.6993  -43.4046 C.3       10 UNK         0.1400 
     23 CB          1.7070  -23.2293  -41.9811 C.3       10 UNK        -0.1800 
     24 N           2.1764  -21.4522  -43.6422 N.am      10 UNK        -0.5000 
     25 C           3.5064  -21.2867  -43.7164 C.2       9 UNK         0.5000 
     26 O           4.3267  -22.1975  -43.6015 O.2       9 UNK        -0.5000 
     27 CA          4.0002  -19.8475  -43.9279 C.3       9 UNK         0.1400 
     28 CB          3.7968  -19.3963  -45.3854 C.3       9 UNK        -0.1800 
     29 N           3.2964  -18.9355  -43.0236 N.am      9 UNK        -0.5000 
     30 C           3.8607  -18.3298  -41.9709 C.2       8 UNK         0.5000 
     31 O           5.0534  -18.4319  -41.6799 O.2       8 UNK        -0.5000 
     32 CA          2.9540  -17.4562  -41.0843 C.3       8 UNK         0.1400 
     33 CB          2.9470  -16.0013  -41.5785 C.3       8 UNK        -0.1800 
     34 N           1.5757  -17.9383  -40.9696 N.am      8 UNK        -0.5000 
     35 C           1.2143  -19.0155  -40.2556 C.2       7 UNK         0.5000 
     36 O           2.0171  -19.7831  -39.7246 O.2       7 UNK        -0.5000 
     37 CA         -0.2926  -19.2664  -40.0810 C.3       7 UNK         0.1400 
     38 CB         -0.8799  -18.3056  -39.0350 C.3       7 UNK        -0.1800 
     39 N          -1.0047  -19.0899  -41.3426 N.am      7 UNK        -0.5000 
     40 C          -1.4785  -20.0892  -42.0990 C.2       6 UNK         0.5000 
     41 O          -1.4443  -21.2758  -41.7739 O.2       6 UNK        -0.5000 
     42 CA         -2.0723  -19.7050  -43.4691 C.3       6 UNK         0.1400 
     43 CB         -3.5973  -19.5534  -43.3666 C.3       6 UNK        -0.1800 
     44 N          -1.5011  -18.4796  -44.0301 N.am      6 UNK        -0.5000 
     45 C          -0.2054  -18.3151  -44.3302 C.2       5 UNK         0.5000 
     46 O           0.6318  -19.2106  -44.2302 O.2       5 UNK        -0.5000 
     47 CA          0.2632  -16.9070  -44.7330 C.3       5 UNK         0.1400 
     48 CB          0.4652  -16.8096  -46.2484 C.3       5 UNK        -0.1800 
     49 N          -0.6239  -15.8359  -44.2761 N.am      5 UNK        -0.5000 
     50 C          -0.8655  -15.5344  -42.9914 C.2       4 UNK         0.5000 
     51 O          -0.3809  -16.1560  -42.0439 O.2       4 UNK        -0.5000 
     52 CA         -1.8376  -14.3720  -42.7239 C.3       4 UNK         0.1400 
     53 CB         -1.0646  -13.0525  -42.5856 C.3       4 UNK        -0.1800 
     54 N          -2.8545  -14.2289  -43.7690 N.am      4 UNK        -0.5000 
     55 C          -3.8602  -15.0929  -43.9705 C.2       3 UNK         0.5000 
     56 O          -4.0433  -16.1008  -43.2893 O.2       3 UNK        -0.5000 
     57 CA         -4.7929  -14.7963  -45.1579 C.3       3 UNK         0.1400 
     58 CB         -5.8824  -13.7891  -44.7628 C.3       3 UNK        -0.1800 
     59 N          -4.0726  -14.3074  -46.3351 N.am      3 UNK        -0.5000 
     60 C          -3.2414  -15.0596  -47.0668 C.2       2 UNK         0.5000 
     61 O          -3.0053  -16.2474  -46.8327 O.2       2 UNK        -0.5000 
     62 CA         -2.5227  -14.3526  -48.2220 C.3       2 UNK         0.1400 
     63 CB         -1.3581  -13.4913  -47.6969 C.3       2 UNK        -0.1800 
     64 N          -2.0298  -15.3605  -49.1530 N.am      2 UNK        -0.5000 
     65 C          -1.6798  -15.1369  -50.4242 C.2       1 UNK         0.5000 
     66 O          -1.6747  -14.0203  -50.9444 O.2       1 UNK        -0.5000 
     67 C           0.6610  -24.6985  -47.3381 C.2       11 UNK         0.5000 
     68 O          -0.3679  -24.1317  -46.9666 O.2       11 UNK        -0.5000 
     69 N           0.6601  -25.7911  -48.1147 N.am      12 UNK        -0.5000 
     70 CA         -0.5470  -26.5103  -48.5439 C.3       12 UNK         0.1400 
     71 CB         -0.1384  -27.7283  -49.3863 C.3       12 UNK        -0.1800 
     72 C          -1.5705  -25.6431  -49.3060 C.2       12 UNK         0.5000 
     73 O          -2.7741  -25.8236  -49.1190 O.2       12 UNK        -0.5000 
     74 N          -1.0737  -24.7032  -50.1224 N.am      13 UNK        -0.5000 
     75 CA         -1.8856  -23.6843  -50.7862 C.3       13 UNK         0.1400 
     76 CB         -1.1094  -23.1032  -51.9783 C.3       13 UNK        -0.1800 
     77 C          -2.2983  -22.5727  -49.8062 C.2       13 UNK         0.5000 
     78 O          -3.4852  -22.2681  -49.6936 O.2       13 UNK        -0.5000 
     79 N          -1.3064  -22.0028  -49.1046 N.am      14 UNK        -0.5000 
     80 CA         -1.4460  -20.8774  -48.1744 C.3       14 UNK         0.1400 
     81 CB         -0.0716  -20.5336  -47.5833 C.3       14 UNK        -0.1800 
     82 C          -2.4607  -21.1224  -47.0440 C.2       14 UNK         0.5000 
     83 O          -3.1900  -20.2027  -46.6780 O.2       14 UNK        -0.5000 
     84 N          -2.5257  -22.3690  -46.5551 N.am      15 UNK        -0.5000 
     85 CA         -3.4504  -22.8697  -45.5344 C.3       15 UNK         0.1400 
     86 CB         -3.1460  -24.3535  -45.2770 C.3       15 UNK        -0.1800 
     87 C          -4.9479  -22.6738  -45.8497 C.2       15 UNK         0.5000 
     88 O          -5.7586  -22.6998  -44.9231 O.2       15 UNK        -0.5000 
     89 N          -5.2965  -22.4553  -47.1268 N.am      16 UNK        -0.5000 
     90 CA         -6.6427  -22.0782  -47.5612 C.3       16 UNK         0.1400 
     91 CB         -6.7363  -22.2241  -49.0882 C.3       16 UNK        -0.1800 
     92 C          -7.0442  -20.6484  -47.1398 C.2       16 UNK         0.5000 
     93 O          -8.2379  -20.3465  -47.1329 O.2       16 UNK        -0.5000 
     94 N          -6.0538  -19.7955  -46.8230 N.am      17 UNK        -0.5000 
     95 CA         -6.1742  -18.3837  -46.4324 C.3       17 UNK         0.1400 
     96 CB         -6.9457  -18.2483  -45.1016 C.3       17 UNK        -0.1800 
     97 C          -6.7423  -17.4760  -47.5476 C.2       17 UNK         0.5000 
     98 O          -7.2370  -16.3839  -47.2636 O.2       17 UNK        -0.5000 
     99 N          -6.6631  -17.9480  -48.7962 N.am      18 UNK        -0.5000 
    100 CA        -7.1241  -17.2651  -50.0000 C.3       18 UNK         0.1400 
    101 CB        -7.6163  -18.3377  -50.9880 C.3       18 UNK        -0.1800 
    102 C         -6.0002  -16.4184  -50.6233 C.2       18 UNK         0.5000 
    103 O         -4.8531  -16.4767  -50.1737 O.2       18 UNK        -0.5000 
    104 N         -6.3520  -15.6686  -51.6748 N.am      19 UNK        -0.5000 
    105 CA        -5.4166  -14.9777  -52.5648 C.3       19 UNK         0.1400 
    106 CB        -6.2011  -13.9365  -53.3802 C.3       19 UNK        -0.1800 
    107 C         -4.6796  -15.9638  -53.4977 C.2       19 UNK         0.5000 
    108 O         -5.0762  -17.1264  -53.5885 O.2       19 UNK        -0.5000 
    109 N         -3.6305  -15.4574  -54.1641 N.am      20 UNK        -0.5000 
    110 CA        -2.6550  -16.1385  -55.0289 C.3       20 UNK         0.1400 
    111 CB        -1.9679  -15.0818  -55.9103 C.3       20 UNK        -0.1800 
    112 C         -3.1831  -17.3150  -55.8767 C.2       20 UNK         0.5000 
    113 O         -3.6956  -17.1074  -56.9784 O.2       20 UNK        -0.5000 
    114 N         -3.0134  -18.5289  -55.3415 N.am      21 UNK        -0.5000 
    115 CA        -3.2553  -19.8026  -56.0178 C.3       21 UNK         0.1400 
    116 CB        -3.8245  -20.7973  -54.9936 C.3       21 UNK        -0.1800 
    117 C         -1.9589  -20.3582  -56.6406 C.2       21 UNK         0.5000 
    118 O         -2.0222  -21.2677  -57.4687 O.2       21 UNK        -0.5000 
    119 N         -0.8125  -19.8026  -56.2373 N.am      22 UNK        -0.5000 
    120 CA         0.5371  -20.1404  -56.6927 C.3       22 UNK         0.1400 
    121 C          1.4653  -18.8963  -56.6365 C.2       22 UNK         0.5000 
    122 N          2.6372  -18.9618  -57.2538 N.am      22 UNK        -0.7600 
    123 O          1.1407  -17.8714  -56.0383 O.2       22 UNK        -0.5000 
    124 C124        1.1220  -21.3749  -55.9500 C.3       23 UNK        -0.0398 
    125 S125        1.1313  -21.2311  -54.1264 S.3       23 UNK        -0.2404 
    126 C126        2.8667  -20.7871  -53.8121 C.3       23 UNK        -0.0205 
    127 H127       -3.8317  -19.4077  -50.3808 H         1 UNK         0.0600 
    128 H128       -3.3154  -20.4877  -51.6807 H         1 UNK         0.0600 
    129 H129       -4.4891  -19.2186  -52.0126 H         1 UNK         0.0600 
    130 H130       -3.0186  -17.2218  -50.3568 H         1 UNK         0.3000 
    131 H131       -1.4961  -16.0297  -52.3059 H         1 UNK         0.0600 
    132 H132        0.7993  -15.9221  -51.3425 H         1 UNK         0.0800 
    133 H133        0.3716  -17.4623  -52.0187 H         1 UNK         0.0800 
    134 H134        2.8748  -17.5907  -48.8170 H         1 UNK         0.0800 
    135 H135        2.8075  -16.8853  -50.4074 H         1 UNK         0.0800 
    136 H136        2.1843  -18.5857  -52.3976 H         1 UNK         0.1150 
    137 H137        4.1325  -22.3672  -51.9816 H         1 UNK         0.1150 
    138 H138        3.7913  -19.7547  -48.5976 H         1 UNK         0.1150 
    139 H139        4.9829  -23.1087  -49.9082 H         1 UNK         0.0800 
    140 H140        5.8779  -21.7555  -49.2658 H         1 UNK         0.0800 
    141 H141        2.7584  -23.9283  -48.9984 H         1 UNK         0.0800 
    142 H142        1.9212  -22.5029  -48.4360 H         1 UNK         0.0800 
    143 H143        2.7098  -24.9408  -46.7349 H         1 UNK         0.0600 
    144 H144        1.9995  -22.3060  -45.8508 H         1 UNK         0.3000 
    145 H145        0.3841  -22.4335  -43.4595 H         1 UNK         0.0600 
    146 H146        1.5220  -22.4563  -41.2347 H         1 UNK         0.0600 
    147 H147        1.0504  -24.0676  -41.7459 H         1 UNK         0.0600 
    148 H148        2.7345  -23.5737  -41.8623 H         1 UNK         0.0600 
    149 H149        1.5907  -20.6339  -43.8019 H         1 UNK         0.3000 
    150 H150        5.0736  -19.8344  -43.7285 H         1 UNK         0.0600 
    151 H151        4.4063  -19.9964  -46.0608 H         1 UNK         0.0600 
    152 H152        4.0947  -18.3566  -45.5209 H         1 UNK         0.0600 
    153 H153        2.7613  -19.4911  -45.7117 H         1 UNK         0.0600 
    154 H154        2.2999  -18.8370  -43.1745 H         1 UNK         0.3000 
    155 H155        3.3880  -17.4580  -40.0820 H         1 UNK         0.0600 
    156 H156        3.9590  -15.5956  -41.6095 H         1 UNK         0.0600 
    157 H157        2.3617  -15.3627  -40.9166 H         1 UNK         0.0600 
    158 H158        2.5301  -15.9135  -42.5806 H         1 UNK         0.0600 
    159 H159        0.8546  -17.3291  -41.3478 H         1 UNK         0.3000 
    160 H160       -0.4187  -20.2850  -39.7080 H         1 UNK         0.0600 
    161 H161       -0.7957  -17.2640  -39.3480 H         1 UNK         0.0600 
    162 H162       -0.3637  -18.4052  -38.0793 H         1 UNK         0.0600 
    163 H163       -1.9347  -18.5163  -38.8582 H         1 UNK         0.0600 
    164 H164       -1.0590  -18.1438  -41.6998 H         1 UNK         0.3000 
    165 H165       -1.8438  -20.5159  -44.1613 H         1 UNK         0.0600 
    166 H166       -4.0363  -19.3036  -44.3314 H         1 UNK         0.0600 
    167 H167       -4.0620  -20.4804  -43.0289 H         1 UNK         0.0600 
    168 H168       -3.8765  -18.7702  -42.6610 H         1 UNK         0.0600 
    169 H169       -2.1290  -17.6955  -44.1413 H         1 UNK         0.3000 
    170 H170        1.2354  -16.7523  -44.2645 H         1 UNK         0.0600 
    171 H171        1.1714  -17.5659  -46.5931 H         1 UNK         0.0600 
    172 H172       -0.4671  -16.9606  -46.7918 H         1 UNK         0.0600 
    173 H173        0.8741  -15.8410  -46.5341 H         1 UNK         0.0600 
    174 H174       -1.0997  -15.3068  -44.9907 H         1 UNK         0.3000 
    175 H175       -2.3425  -14.5749  -41.7769 H         1 UNK         0.0600 
    176 H176       -0.3104  -13.1226  -41.8004 H         1 UNK         0.0600 
    177 H177       -0.5515  -12.7860  -43.5106 H         1 UNK         0.0600 
    178 H178       -1.7308  -12.2309  -42.3217 H         1 UNK         0.0600 
    179 H179       -2.7806  -13.4223  -44.3709 H         1 UNK         0.3000 
    180 H180       -5.2812  -15.7311  -45.4294 H         1 UNK         0.0600 
    181 H181       -6.4416  -14.1409  -43.8947 H         1 UNK         0.0600 
    182 H182       -5.4624  -12.8145  -44.5113 H         1 UNK         0.0600 
    183 H183       -6.5988  -13.6494  -45.5727 H         1 UNK         0.0600 
    184 H184       -4.2208  -13.3411  -46.5885 H         1 UNK         0.3000 
    185 H185       -3.2479  -13.7196  -48.7377 H         1 UNK         0.0600 
    186 H186       -1.7085  -12.7431  -46.9852 H         1 UNK         0.0600 
    187 H187       -0.6058  -14.0973  -47.1932 H         1 UNK         0.0600 
    188 H188       -0.8634  -12.9542  -48.5061 H         1 UNK         0.0600 
    189 H189       -2.0299  -16.3013  -48.7781 H         1 UNK         0.3000 
    190 H190        1.5415  -26.2010  -48.3886 H         1 UNK         0.3000 
    191 H191       -1.0433  -26.8736  -47.6415 H         1 UNK         0.0600 
    192 H192        0.4040  -27.4328  -50.2852 H         1 UNK         0.0600 
    193 H193       -1.0144  -28.2960  -49.7033 H         1 UNK         0.0600 
    194 H194        0.4972  -28.4071  -48.8174 H         1 UNK         0.0600 
    195 H195       -0.0730  -24.6413  -50.2318 H         1 UNK         0.3000 
    196 H196       -2.7958  -24.1493  -51.1715 H         1 UNK         0.0600 
    197 H197       -1.6882  -22.3292  -52.4839 H         1 UNK         0.0600 
    198 H198       -0.8858  -23.8732  -52.7167 H         1 UNK         0.0600 
    199 H199       -0.1649  -22.6533  -51.6698 H         1 UNK         0.0600 
    200 H200       -0.3705  -22.3446  -49.2479 H         1 UNK         0.3000 
    201 H201       -1.7935  -20.0195  -48.7537 H         1 UNK         0.0600 
    202 H202       -0.1292  -19.6221  -46.9904 H         1 UNK         0.0600 
    203 H203        0.2954  -21.3237  -46.9295 H         1 UNK         0.0600 
    204 H204        0.6702  -20.3639  -48.3634 H         1 UNK         0.0600 
    205 H205       -1.8412  -23.0430  -46.8937 H         1 UNK         0.3000 
    206 H206       -3.2492  -22.3228  -44.6132 H         1 UNK         0.0600 
    207 H207       -2.1308  -24.4875  -44.9027 H         1 UNK         0.0600 
    208 H208       -3.8221  -24.7729  -44.5308 H         1 UNK         0.0600 
    209 H209       -3.2487  -24.9460  -46.1872 H         1 UNK         0.0600 
    210 H210       -4.5743  -22.4515  -47.8391 H         1 UNK         0.3000 
    211 H211       -7.3549  -22.7702  -47.1070 H         1 UNK         0.0600 
    212 H212       -7.7515  -22.0314  -49.4375 H         1 UNK         0.0600 
    213 H213       -6.4677  -23.2312  -49.4075 H         1 UNK         0.0600 
    214 H214       -6.0768  -21.5228  -49.6008 H         1 UNK         0.0600 
    215 H215       -5.0964  -20.1382  -46.8541 H         1 UNK         0.3000 
    216 H216       -5.1537  -18.0392  -46.2590 H         1 UNK         0.0600 
    217 H217       -6.9082  -17.2281  -44.7204 H         1 UNK         0.0600 
    218 H218       -6.5217  -18.8939  -44.3327 H         1 UNK         0.0600 
    219 H219       -7.9978  -18.5097  -45.2147 H         1 UNK         0.0600 
    220 H220       -6.1952  -18.8302  -48.9341 H         1 UNK         0.3000 
    221 H221       -7.9575  -16.6039  -49.7538 H         1 UNK         0.0600 
    222 H222       -6.8098  -19.0048  -51.2940 H         1 UNK         0.0600 
    223 H223       -8.4028  -18.9487  -50.5443 H         1 UNK         0.0600 
    224 H224       -8.0298  -17.8894  -51.8919 H         1 UNK         0.0600 
    225 H225       -7.3089  -15.7078  -51.9929 H         1 UNK         0.3000 
    226 H226       -4.6721  -14.4613  -51.9546 H         1 UNK         0.0600 
    227 H227       -6.9459  -14.4076  -54.0230 H         1 UNK         0.0600 
    228 H228       -6.7186  -13.2334  -52.7272 H         1 UNK         0.0600 
    229 H229       -5.5391  -13.3520  -54.0201 H         1 UNK         0.0600 
    230 H230       -3.4397  -14.4759  -54.0246 H         1 UNK         0.3000 
    231 H231       -1.8792  -16.5477  -54.3840 H         1 UNK         0.0600 
    232 H232       -1.4432  -14.3417  -55.3057 H         1 UNK         0.0600 
    233 H233       -2.6860  -14.5543  -56.5394 H         1 UNK         0.0600 
    234 H234       -1.2288  -15.5416  -56.5683 H         1 UNK         0.0600 
    235 H235       -2.6073  -18.5982  -54.4096 H         1 UNK         0.3000 
    236 H236       -3.9866  -19.6700  -56.8175 H         1 UNK         0.0600 
    237 H237       -4.7386  -20.4147  -54.5388 H         1 UNK         0.0600 
    238 H238       -4.0680  -21.7495  -55.4663 H         1 UNK         0.0600 
    239 H239       -3.1117  -21.0002  -54.1934 H         1 UNK         0.0600 
    240 H240       -0.8432  -19.0450  -55.5689 H         1 UNK         0.3000 
    241 H241        0.4633  -20.3930  -57.7523 H         1 UNK         0.0600 
    242 H242        2.9257  -19.7801  -57.7672 H         1 UNK         0.3800 
    243 H243        3.2467  -18.1592  -57.2250 H         1 UNK         0.3800 
    244 H244        0.5238  -22.2520  -56.1994 H         1 UNK         0.0800 
    245 H245        2.1268  -21.6043  -56.3071 H         1 UNK         0.0800 
    246 H246        3.5149  -21.5904  -54.1655 H         1 UNK         0.0800 
    247 H247        3.1300  -19.8997  -54.3889 H         1 UNK         0.0800 
@<TRIPOS>BOND
     1    1    2 1    
     2    1  127 1    
     3    1  128 1    
     4    1  129 1    
     5    2    3 2    
     6    2    4 am   BACKBONE|DICT|INTERRES
     7    4    5 1    
     8    4  130 1    
     9    5    6 1    
    10    5   65 1    
    11    5  131 1    
    12    6    7 1    
    13    6  132 1    
    14    6  133 1    
    15    7    8 1    
    16    8    9 1    
    17    8  134 1    
    18    8  135 1    
    19    9   10 ar   
    20    9   14 ar   
    21   10   11 ar   
    22   10  136 1    
    23   11   12 ar   
    24   11  126 1    
    25   12   13 ar   
    26   12  137 1    
    27   13   14 ar   
    28   13   15 1    
    29   14  138 1    
    30   15   16 1    
    31   15  139 1    
    32   15  140 1    
    33   16   17 1    
    34   17   18 1    
    35   17  141 1    
    36   17  142 1    
    37   18   19 1    
    38   18   67 1    
    39   18  143 1    
    40   19   20 am   BACKBONE|DICT|INTERRES
    41   19  144 1    
    42   20   21 2    
    43   20   22 1    
    44   22   23 1    
    45   22   24 1    
    46   22  145 1    
    47   23  146 1    
    48   23  147 1    
    49   23  148 1    
    50   24   25 am   BACKBONE|DICT|INTERRES
    51   24  149 1    
    52   25   26 2    
    53   25   27 1    
    54   27   28 1    
    55   27   29 1    
    56   27  150 1    
    57   28  151 1    
    58   28  152 1    
    59   28  153 1    
    60   29   30 am   BACKBONE|DICT|INTERRES
    61   29  154 1    
    62   30   31 2    
    63   30   32 1    
    64   32   33 1    
    65   32   34 1    
    66   32  155 1    
    67   33  156 1    
    68   33  157 1    
    69   33  158 1    
    70   34   35 am   BACKBONE|DICT|INTERRES
    71   34  159 1    
    72   35   36 2    
    73   35   37 1    
    74   37   38 1    
    75   37   39 1    
    76   37  160 1    
    77   38  161 1    
    78   38  162 1    
    79   38  163 1    
    80   39   40 am   BACKBONE|DICT|INTERRES
    81   39  164 1    
    82   40   41 2    
    83   40   42 1    
    84   42   43 1    
    85   42   44 1    
    86   42  165 1    
    87   43  166 1    
    88   43  167 1    
    89   43  168 1    
    90   44   45 am   BACKBONE|DICT|INTERRES
    91   44  169 1    
    92   45   46 2    
    93   45   47 1    
    94   47   48 1    
    95   47   49 1    
    96   47  170 1    
    97   48  171 1    
    98   48  172 1    
    99   48  173 1    
   100   49   50 am   BACKBONE|DICT|INTERRES
   101   49  174 1    
   102   50   51 2    
   103   50   52 1    
   104   52   53 1    
   105   52   54 1    
   106   52  175 1    
   107   53  176 1    
   108   53  177 1    
   109   53  178 1    
   110   54   55 am   BACKBONE|DICT|INTERRES
   111   54  179 1    
   112   55   56 2    
   113   55   57 1    
   114   57   58 1    
   115   57   59 1    
   116   57  180 1    
   117   58  181 1    
   118   58  182 1    
   119   58  183 1    
   120   59   60 am   BACKBONE|DICT|INTERRES
   121   59  184 1    
   122   60   61 2    
   123   60   62 1    
   124   62   63 1    
   125   62   64 1    
   126   62  185 1    
   127   63  186 1    
   128   63  187 1    
   129   63  188 1    
   130   64   65 am   BACKBONE|DICT|INTERRES
   131   64  189 1    
   132   65   66 2    
   133   67   68 2    
   134   67   69 am   BACKBONE|DICT|INTERRES
   135   69   70 1    
   136   69  190 1    
   137   70   71 1    
   138   70   72 1    
   139   70  191 1    
   140   71  192 1    
   141   71  193 1    
   142   71  194 1    
   143   72   73 2    
   144   72   74 am   BACKBONE|DICT|INTERRES
   145   74   75 1    
   146   74  195 1    
   147   75   76 1    
   148   75   77 1    
   149   75  196 1    
   150   76  197 1    
   151   76  198 1    
   152   76  199 1    
   153   77   78 2    
   154   77   79 am   BACKBONE|DICT|INTERRES
   155   79   80 1    
   156   79  200 1    
   157   80   81 1    
   158   80   82 1    
   159   80  201 1    
   160   81  202 1    
   161   81  203 1    
   162   81  204 1    
   163   82   83 2    
   164   82   84 am   BACKBONE|DICT|INTERRES
   165   84   85 1    
   166   84  205 1    
   167   85   86 1    
   168   85   87 1    
   169   85  206 1    
   170   86  207 1    
   171   86  208 1    
   172   86  209 1    
   173   87   88 2    
   174   87   89 am   BACKBONE|DICT|INTERRES
   175   89   90 1    
   176   89  210 1    
   177   90   91 1    
   178   90   92 1    
   179   90  211 1    
   180   91  212 1    
   181   91  213 1    
   182   91  214 1    
   183   92   93 2    
   184   92   94 am   BACKBONE|DICT|INTERRES
   185   94   95 1    
   186   94  215 1    
   187   95   96 1    
   188   95   97 1    
   189   95  216 1    
   190   96  217 1    
   191   96  218 1    
   192   96  219 1    
   193   97   98 2    
   194   97   99 am   BACKBONE|DICT|INTERRES
   195   99  100 1    
   196   99  220 1    
   197  100  101 1    
   198  100  102 1    
   199  100  221 1    
   200  101  222 1    
   201  101  223 1    
   202  101  224 1    
   203  102  103 2    
   204  102  104 am   BACKBONE|DICT|INTERRES
   205  104  105 1    
   206  104  225 1    
   207  105  106 1    
   208  105  107 1    
   209  105  226 1    
   210  106  227 1    
   211  106  228 1    
   212  106  229 1    
   213  107  108 2    
   214  107  109 am   BACKBONE|DICT|INTERRES
   215  109  110 1    
   216  109  230 1    
   217  110  111 1    
   218  110  112 1    
   219  110  231 1    
   220  111  232 1    
   221  111  233 1    
   222  111  234 1    
   223  112  113 2    
   224  112  114 am   BACKBONE|DICT|INTERRES
   225  114  115 1    
   226  114  235 1    
   227  115  116 1    
   228  115  117 1    
   229  115  236 1    
   230  116  237 1    
   231  116  238 1    
   232  116  239 1    
   233  117  118 2    
   234  117  119 am   BACKBONE|DICT|INTERRES
   235  119  120 1    
   236  119  240 1    
   237  120  121 1    
   238  120  124 1    
   239  120  241 1    
   240  121  122 am   BACKBONE|DICT|INTERRES
   241  121  123 2    
   242  122  242 1    
   243  122  243 1    
   244  124  125 1    
   245  124  244 1    
   246  124  245 1    
   247  125  126 1    
   248  126  246 1    
   249  126  247 1    
@<TRIPOS>SUBSTRUCTURE
     1 UNK         1 GROUP             0       ****    0 ROOT    
