@<TRIPOS>MOLECULE
3R540
247   249    1
SMALL
USER_CHARGES


@<TRIPOS>ATOM
      1 CA          1.3252  -16.3415  -49.7717 C.3       0 UNK        -0.1800 
      2 C           0.7928  -15.9520  -48.4022 C.2       0 UNK         0.5000 
      3 O           1.5304  -15.3934  -47.5918 O.2       0 UNK        -0.5000 
      4 N          -0.4980  -16.2095  -48.1530 N.am      1 UNK        -0.5000 
      5 CA         -1.1963  -15.9554  -46.8834 C.3       1 UNK         0.1400 
      6 C6         -2.6150  -16.5809  -46.8689 C.3       23 UNK        -0.0398 
      7 S7         -3.7275  -15.9395  -48.1751 S.3       23 UNK        -0.2404 
      8 C8         -4.0952  -17.4256  -49.1602 C.3       23 UNK        -0.0205 
      9 C9         -2.9026  -17.8664  -49.9953 C.ar      23 UNK        -0.0193 
     10 C10        -2.6422  -17.2641  -51.2294 C.ar      23 UNK        -0.1150 
     11 C11        -1.5448  -17.6661  -51.9965 C.ar      23 UNK        -0.0193 
     12 C12        -0.6932  -18.6607  -51.5071 C.ar      23 UNK        -0.1150 
     13 C13        -0.9405  -19.2730  -50.2754 C.ar      23 UNK        -0.0193 
     14 C14        -2.0615  -18.8819  -49.5356 C.ar      23 UNK        -0.1150 
     15 C15         0.0047  -20.3574  -49.7688 C.3       23 UNK        -0.0205 
     16 S16         0.6329  -20.0237  -48.0890 S.3       23 UNK        -0.2404 
     17 C17        -0.5653  -20.9463  -47.0693 C.3       23 UNK        -0.0398 
     18 CA          0.0509  -22.2391  -46.4881 C.3       11 UNK         0.1400 
     19 N           0.9534  -21.9857  -45.3653 N.am      11 UNK        -0.5000 
     20 C           1.7154  -22.9130  -44.7694 C.2       10 UNK         0.5000 
     21 O           1.7955  -24.0804  -45.1514 O.2       10 UNK        -0.5000 
     22 CA          2.4656  -22.4788  -43.4969 C.3       10 UNK         0.1400 
     23 CB          3.7470  -21.7081  -43.8468 C.3       10 UNK        -0.1800 
     24 N           1.6279  -21.6767  -42.6020 N.am      10 UNK        -0.5000 
     25 C           0.5166  -22.1309  -42.0029 C.2       9 UNK         0.5000 
     26 O           0.1117  -23.2895  -42.1034 O.2       9 UNK        -0.5000 
     27 CA         -0.3037  -21.1137  -41.1892 C.3       9 UNK         0.1400 
     28 CB          0.3117  -20.9056  -39.7975 C.3       9 UNK        -0.1800 
     29 N          -0.4383  -19.8234  -41.8659 N.am      9 UNK        -0.5000 
     30 C          -1.0783  -19.6341  -43.0285 C.2       8 UNK         0.5000 
     31 O          -1.6690  -20.5250  -43.6373 O.2       8 UNK        -0.5000 
     32 CA         -0.9907  -18.2290  -43.6533 C.3       8 UNK         0.1400 
     33 CB         -1.9939  -17.2672  -43.0027 C.3       8 UNK        -0.1800 
     34 N           0.3601  -17.6678  -43.5871 N.am      8 UNK        -0.5000 
     35 C           1.4296  -18.2275  -44.1724 C.2       7 UNK         0.5000 
     36 O           1.3731  -19.2403  -44.8651 O.2       7 UNK        -0.5000 
     37 CA          2.7982  -17.5917  -43.8950 C.3       7 UNK         0.1400 
     38 CB          3.0649  -16.4380  -44.8641 C.3       7 UNK        -0.1800 
     39 N           2.9098  -17.1282  -42.5140 N.am      7 UNK        -0.5000 
     40 C           3.0422  -17.9540  -41.4661 C.2       6 UNK         0.5000 
     41 O           3.1179  -19.1793  -41.5671 O.2       6 UNK        -0.5000 
     42 CA          3.0420  -17.3045  -40.0705 C.3       6 UNK         0.1400 
     43 CB          4.4194  -16.7070  -39.7462 C.3       6 UNK        -0.1800 
     44 N           2.0179  -16.2682  -39.9341 N.am      6 UNK        -0.5000 
     45 C           0.6986  -16.4922  -40.0077 C.2       5 UNK         0.5000 
     46 O           0.2041  -17.6082  -40.1580 O.2       5 UNK        -0.5000 
     47 CA         -0.2274  -15.2647  -39.9343 C.3       5 UNK         0.1400 
     48 CB         -0.6750  -15.0195  -38.4858 C.3       5 UNK        -0.1800 
     49 N           0.3572  -14.0335  -40.4716 N.am      5 UNK        -0.5000 
     50 C           0.7796  -13.8526  -41.7310 C.2       4 UNK         0.5000 
     51 O           0.7777  -14.7458  -42.5831 O.2       4 UNK        -0.5000 
     52 CA          1.2593  -12.4227  -42.0615 C.3       4 UNK         0.1400 
     53 CB          2.4058  -11.9668  -41.1319 C.3       4 UNK        -0.1800 
     54 N           1.6144  -12.2244  -43.4699 N.am      4 UNK        -0.5000 
     55 C           2.6494  -12.7331  -44.1515 C.2       3 UNK         0.5000 
     56 O           3.5205  -13.4444  -43.6478 O.2       3 UNK        -0.5000 
     57 CA          2.7207  -12.3574  -45.6497 C.3       3 UNK         0.1400 
     58 CB          3.8403  -13.0939  -46.4068 C.3       3 UNK        -0.1800 
     59 N           1.4501  -12.5750  -46.3494 N.am      3 UNK        -0.5000 
     60 C           0.4068  -11.7311  -46.3390 C.2       2 UNK         0.5000 
     61 O           0.4011  -10.6790  -45.6984 O.2       2 UNK        -0.5000 
     62 CA         -0.8454  -12.1153  -47.1534 C.3       2 UNK         0.1400 
     63 CB         -0.8486  -11.3885  -48.5067 C.3       2 UNK        -0.1800 
     64 N          -0.9689  -13.5516  -47.3907 N.am      2 UNK        -0.5000 
     65 C          -1.2301  -14.4699  -46.4504 C.2       1 UNK         0.5000 
     66 O          -1.4812  -14.1865  -45.2791 O.2       1 UNK        -0.5000 
     67 C          -1.0526  -23.2443  -46.1156 C.2       11 UNK         0.5000 
     68 O          -1.2660  -24.1882  -46.8728 O.2       11 UNK        -0.5000 
     69 N          -1.7117  -23.0522  -44.9640 N.am      12 UNK        -0.5000 
     70 CA         -2.7684  -23.9322  -44.4545 C.3       12 UNK         0.1400 
     71 CB         -3.3800  -23.3241  -43.1839 C.3       12 UNK        -0.1800 
     72 C          -2.2944  -25.3740  -44.1975 C.2       12 UNK         0.5000 
     73 O          -3.0461  -26.3137  -44.4592 O.2       12 UNK        -0.5000 
     74 N          -1.0498  -25.5239  -43.7249 N.am      13 UNK        -0.5000 
     75 CA         -0.3795  -26.8136  -43.5676 C.3       13 UNK         0.1400 
     76 CB          0.8837  -26.6278  -42.7133 C.3       13 UNK        -0.1800 
     77 C          -0.0357  -27.4769  -44.9168 C.2       13 UNK         0.5000 
     78 O          -0.0870  -28.7037  -45.0137 O.2       13 UNK        -0.5000 
     79 N           0.3099  -26.6642  -45.9250 N.am      14 UNK        -0.5000 
     80 CA          0.6555  -27.1093  -47.2729 C.3       14 UNK         0.1400 
     81 CB          1.4666  -26.0185  -47.9926 C.3       14 UNK        -0.1800 
     82 C          -0.5792  -27.5274  -48.0922 C.2       14 UNK         0.5000 
     83 O          -0.6474  -28.6800  -48.5217 O.2       14 UNK        -0.5000 
     84 N          -1.5236  -26.5970  -48.2958 N.am      15 UNK        -0.5000 
     85 CA         -2.7448  -26.7912  -49.0858 C.3       15 UNK         0.1400 
     86 CB         -2.4223  -27.0886  -50.5672 C.3       15 UNK        -0.1800 
     87 C          -3.6809  -25.5745  -49.0112 C.2       15 UNK         0.5000 
     88 O          -4.8887  -25.7585  -48.8594 O.2       15 UNK        -0.5000 
     89 N          -3.1079  -24.3673  -49.1459 N.am      16 UNK        -0.5000 
     90 CA         -3.7782  -23.0630  -49.2291 C.3       16 UNK         0.1400 
     91 CB         -4.4722  -22.6902  -47.9027 C.3       16 UNK        -0.1800 
     92 C          -4.7189  -22.9785  -50.4472 C.2       16 UNK         0.5000 
     93 O          -5.9377  -22.8778  -50.2968 O.2       16 UNK        -0.5000 
     94 N          -4.1165  -23.0353  -51.6435 N.am      17 UNK        -0.5000 
     95 CA         -4.8013  -22.9788  -52.9409 C.3       17 UNK         0.1400 
     96 CB         -3.7932  -23.3404  -54.0419 C.3       17 UNK        -0.1800 
     97 C          -5.4858  -21.6262  -53.2446 C.2       17 UNK         0.5000 
     98 O          -6.3809  -21.5863  -54.0897 O.2       17 UNK        -0.5000 
     99 N          -5.0706  -20.5697  -52.5293 N.am      18 UNK        -0.5000 
    100 CA        -5.5851  -19.1973  -52.5392 C.3       18 UNK         0.1400 
    101 CB        -7.1012  -19.1630  -52.2501 C.3       18 UNK        -0.1800 
    102 C         -5.2200  -18.3982  -53.8041 C.2       18 UNK         0.5000 
    103 O         -4.6913  -18.9437  -54.7751 O.2       18 UNK        -0.5000 
    104 N         -5.5137  -17.0904  -53.7608 N.am      19 UNK        -0.5000 
    105 CA        -5.1756  -16.0972  -54.7859 C.3       19 UNK         0.1400 
    106 CB        -5.6552  -14.7146  -54.3214 C.3       19 UNK        -0.1800 
    107 C         -5.7140  -16.4112  -56.1951 C.2       19 UNK         0.5000 
    108 O         -5.0888  -16.0207  -57.1815 O.2       19 UNK        -0.5000 
    109 N         -6.8319  -17.1467  -56.2645 N.am      20 UNK        -0.5000 
    110 CA        -7.4250  -17.6608  -57.4994 C.3       20 UNK         0.1400 
    111 CB        -8.7810  -18.3042  -57.1714 C.3       20 UNK        -0.1800 
    112 C         -6.5190  -18.6613  -58.2461 C.2       20 UNK         0.5000 
    113 O         -6.5818  -18.7243  -59.4746 O.2       20 UNK        -0.5000 
    114 N         -5.6900  -19.4092  -57.5043 N.am      21 UNK        -0.5000 
    115 CA        -4.6781  -20.3062  -58.0575 C.3       21 UNK         0.1400 
    116 CB        -4.4647  -21.4882  -57.1018 C.3       21 UNK        -0.1800 
    117 C         -3.3529  -19.5669  -58.3055 C.2       21 UNK         0.5000 
    118 O         -2.6923  -19.8402  -59.3088 O.2       21 UNK        -0.5000 
    119 N         -2.9852  -18.6543  -57.3944 N.am      22 UNK        -0.5000 
    120 CA        -1.7516  -17.8516  -57.4751 C.3       22 UNK         0.1400 
    121 C         -1.7336  -16.8362  -58.6524 C.2       22 UNK         0.5000 
    122 N         -2.8544  -16.2121  -58.9930 N.am      22 UNK        -0.7600 
    123 O         -0.6912  -16.6137  -59.2622 O.2       22 UNK        -0.5000 
    124 C124       -1.4197  -17.1228  -56.1483 C.3       23 UNK        -0.0398 
    125 S125       -1.4101  -18.2296  -54.7001 S.3       23 UNK        -0.2404 
    126 C126       -1.2687  -17.0212  -53.3465 C.3       23 UNK        -0.0205 
    127 H127        2.1788  -15.7196  -50.0415 H         1 UNK         0.0600 
    128 H128        0.5621  -16.2148  -50.5390 H         1 UNK         0.0600 
    129 H129        1.6468  -17.3829  -49.7677 H         1 UNK         0.0600 
    130 H130       -1.0561  -16.6553  -48.8689 H         1 UNK         0.3000 
    131 H131       -0.6112  -16.4644  -46.1157 H         1 UNK         0.0600 
    132 H132       -3.0946  -16.4107  -45.9032 H         1 UNK         0.0800 
    133 H133       -2.5342  -17.6639  -46.9549 H         1 UNK         0.0800 
    134 H134       -4.4294  -18.2305  -48.5034 H         1 UNK         0.0800 
    135 H135       -4.9378  -17.2024  -49.8156 H         1 UNK         0.0800 
    136 H136       -3.2963  -16.4830  -51.5913 H         1 UNK         0.1150 
    137 H137        0.1619  -18.9606  -52.0967 H         1 UNK         0.1150 
    138 H138       -2.2746  -19.3493  -48.5878 H         1 UNK         0.1150 
    139 H139       -0.4918  -21.3273  -49.8098 H         1 UNK         0.0800 
    140 H140        0.8691  -20.4375  -50.4296 H         1 UNK         0.0800 
    141 H141       -1.4393  -21.1796  -47.6778 H         1 UNK         0.0800 
    142 H142       -0.9227  -20.2937  -46.2722 H         1 UNK         0.0800 
    143 H143        0.6441  -22.7131  -47.2733 H         1 UNK         0.0600 
    144 H144        1.0004  -21.0238  -45.0343 H         1 UNK         0.3000 
    145 H145        2.7532  -23.3837  -42.9576 H         1 UNK         0.0600 
    146 H146        4.4070  -22.3141  -44.4686 H         1 UNK         0.0600 
    147 H147        3.5313  -20.7920  -44.3958 H         1 UNK         0.0600 
    148 H148        4.3026  -21.4376  -42.9488 H         1 UNK         0.0600 
    149 H149        1.9160  -20.7182  -42.4419 H         1 UNK         0.3000 
    150 H150       -1.3060  -21.5259  -41.0573 H         1 UNK         0.0600 
    151 H151        0.4158  -21.8543  -39.2696 H         1 UNK         0.0600 
    152 H152       -0.3150  -20.2585  -39.1835 H         1 UNK         0.0600 
    153 H153        1.3011  -20.4511  -39.8579 H         1 UNK         0.0600 
    154 H154       -0.0226  -19.0218  -41.3982 H         1 UNK         0.3000 
    155 H155       -1.2525  -18.3246  -44.7082 H         1 UNK         0.0600 
    156 H156       -1.8494  -17.2035  -41.9252 H         1 UNK         0.0600 
    157 H157       -1.9067  -16.2615  -43.4145 H         1 UNK         0.0600 
    158 H158       -3.0173  -17.6031  -43.1733 H         1 UNK         0.0600 
    159 H159        0.4861  -16.8122  -43.0575 H         1 UNK         0.3000 
    160 H160        3.5646  -18.3509  -44.0642 H         1 UNK         0.0600 
    161 H161        2.2925  -15.6709  -44.7985 H         1 UNK         0.0600 
    162 H162        3.0829  -16.7971  -45.8935 H         1 UNK         0.0600 
    163 H163        4.0288  -15.9694  -44.6667 H         1 UNK         0.0600 
    164 H164        2.7948  -16.1360  -42.3564 H         1 UNK         0.3000 
    165 H165        2.8281  -18.0876  -39.3399 H         1 UNK         0.0600 
    166 H166        4.4510  -16.3192  -38.7279 H         1 UNK         0.0600 
    167 H167        5.2015  -17.4629  -39.8295 H         1 UNK         0.0600 
    168 H168        4.6764  -15.8921  -40.4243 H         1 UNK         0.0600 
    169 H169        2.3379  -15.3186  -39.8149 H         1 UNK         0.3000 
    170 H170       -1.1148  -15.4874  -40.5284 H         1 UNK         0.0600 
    171 H171       -1.1394  -15.9121  -38.0640 H         1 UNK         0.0600 
    172 H172        0.1657  -14.7526  -37.8442 H         1 UNK         0.0600 
    173 H173       -1.4101  -14.2165  -38.4295 H         1 UNK         0.0600 
    174 H174        0.3904  -13.2497  -39.8359 H         1 UNK         0.3000 
    175 H175        0.4071  -11.7650  -41.8848 H         1 UNK         0.0600 
    176 H176        3.2480  -12.6590  -41.1523 H         1 UNK         0.0600 
    177 H177        2.7761  -10.9819  -41.4169 H         1 UNK         0.0600 
    178 H178        2.0734  -11.8930  -40.0963 H         1 UNK         0.0600 
    179 H179        0.9645  -11.6586  -44.0044 H         1 UNK         0.3000 
    180 H180        2.9602  -11.2927  -45.6877 H         1 UNK         0.0600 
    181 H181        3.6730  -14.1699  -46.4285 H         1 UNK         0.0600 
    182 H182        4.8115  -12.9200  -45.9421 H         1 UNK         0.0600 
    183 H183        3.9095  -12.7484  -47.4383 H         1 UNK         0.0600 
    184 H184        1.3633  -13.4566  -46.8451 H         1 UNK         0.3000 
    185 H185       -1.7195  -11.7883  -46.5866 H         1 UNK         0.0600 
    186 H186       -0.7880  -10.3079  -48.3703 H         1 UNK         0.0600 
    187 H187       -0.0031  -11.6892  -49.1268 H         1 UNK         0.0600 
    188 H188       -1.7637  -11.5934  -49.0628 H         1 UNK         0.0600 
    189 H189       -0.7781  -13.8771  -48.3267 H         1 UNK         0.3000 
    190 H190       -1.5111  -22.2224  -44.4105 H         1 UNK         0.3000 
    191 H191       -3.5516  -23.9838  -45.2125 H         1 UNK         0.0600 
    192 H192       -2.6381  -23.2163  -42.3927 H         1 UNK         0.0600 
    193 H193       -4.1841  -23.9516  -42.7977 H         1 UNK         0.0600 
    194 H194       -3.8033  -22.3395  -43.3829 H         1 UNK         0.0600 
    195 H195       -0.5210  -24.6960  -43.4702 H         1 UNK         0.3000 
    196 H196       -1.0544  -27.4836  -43.0308 H         1 UNK         0.0600 
    197 H197        1.3894  -27.5804  -42.5511 H         1 UNK         0.0600 
    198 H198        0.6395  -26.2171  -41.7333 H         1 UNK         0.0600 
    199 H199        1.5968  -25.9538  -43.1886 H         1 UNK         0.0600 
    200 H200        0.3486  -25.6670  -45.7533 H         1 UNK         0.3000 
    201 H201        1.3021  -27.9850  -47.1834 H         1 UNK         0.0600 
    202 H202        2.3828  -25.7887  -47.4485 H         1 UNK         0.0600 
    203 H203        0.9050  -25.0914  -48.1008 H         1 UNK         0.0600 
    204 H204        1.7553  -26.3444  -48.9925 H         1 UNK         0.0600 
    205 H205       -1.4343  -25.7013  -47.8151 H         1 UNK         0.3000 
    206 H206       -3.2830  -27.6437  -48.6663 H         1 UNK         0.0600 
    207 H207       -3.3318  -27.1152  -51.1693 H         1 UNK         0.0600 
    208 H208       -1.7686  -26.3285  -50.9962 H         1 UNK         0.0600 
    209 H209       -1.9371  -28.0558  -50.6926 H         1 UNK         0.0600 
    210 H210       -2.1040  -24.3428  -49.2511 H         1 UNK         0.3000 
    211 H211       -2.9949  -22.3220  -49.3955 H         1 UNK         0.0600 
    212 H212       -5.2308  -23.4178  -47.6145 H         1 UNK         0.0600 
    213 H213       -4.9644  -21.7200  -47.9806 H         1 UNK         0.0600 
    214 H214       -3.7517  -22.6144  -47.0917 H         1 UNK         0.0600 
    215 H215       -3.1131  -23.1411  -51.6762 H         1 UNK         0.3000 
    216 H216       -5.5830  -23.7412  -52.9337 H         1 UNK         0.0600 
    217 H217       -3.0116  -22.5853  -54.1368 H         1 UNK         0.0600 
    218 H218       -4.2903  -23.4264  -55.0081 H         1 UNK         0.0600 
    219 H219       -3.3146  -24.2995  -53.8431 H         1 UNK         0.0600 
    220 H220       -4.2930  -20.7265  -51.9061 H         1 UNK         0.3000 
    221 H221       -5.0843  -18.7034  -51.7086 H         1 UNK         0.0600 
    222 H222       -7.6864  -19.5277  -53.0947 H         1 UNK         0.0600 
    223 H223       -7.3498  -19.7741  -51.3822 H         1 UNK         0.0600 
    224 H224       -7.4417  -18.1499  -52.0348 H         1 UNK         0.0600 
    225 H225       -5.9653  -16.7263  -52.9347 H         1 UNK         0.3000 
    226 H226       -4.0888  -16.0691  -54.8551 H         1 UNK         0.0600 
    227 H227       -5.1927  -14.4331  -53.3751 H         1 UNK         0.0600 
    228 H228       -5.3945  -13.9451  -55.0495 H         1 UNK         0.0600 
    229 H229       -6.7375  -14.6882  -54.1890 H         1 UNK         0.0600 
    230 H230       -7.2709  -17.4266  -55.4001 H         1 UNK         0.3000 
    231 H231       -7.5988  -16.8129  -58.1652 H         1 UNK         0.0600 
    232 H232       -9.2644  -18.6785  -58.0748 H         1 UNK         0.0600 
    233 H233       -9.4603  -17.5839  -56.7154 H         1 UNK         0.0600 
    234 H234       -8.6711  -19.1452  -56.4852 H         1 UNK         0.0600 
    235 H235       -5.6619  -19.2735  -56.4989 H         1 UNK         0.3000 
    236 H236       -5.0264  -20.7083  -59.0113 H         1 UNK         0.0600 
    237 H237       -5.3974  -22.0230  -56.9214 H         1 UNK         0.0600 
    238 H238       -3.7524  -22.2022  -57.5167 H         1 UNK         0.0600 
    239 H239       -4.0755  -21.1603  -56.1377 H         1 UNK         0.0600 
    240 H240       -3.5516  -18.5362  -56.5632 H         1 UNK         0.3000 
    241 H241       -0.9373  -18.5547  -57.6619 H         1 UNK         0.0600 
    242 H242       -3.7006  -16.3213  -58.4398 H         1 UNK         0.3800 
    243 H243       -2.8441  -15.5580  -59.7590 H         1 UNK         0.3800 
    244 H244       -0.4383  -16.6495  -56.2141 H         1 UNK         0.0800 
    245 H245       -2.1334  -16.3178  -55.9737 H         1 UNK         0.0800 
    246 H246       -1.9607  -16.1963  -53.5210 H         1 UNK         0.0800 
    247 H247       -0.2655  -16.5928  -53.3462 H         1 UNK         0.0800 
@<TRIPOS>BOND
     1    1    2 1    
     2    1  127 1    
     3    1  128 1    
     4    1  129 1    
     5    2    3 2    
     6    2    4 am   BACKBONE|DICT|INTERRES
     7    4    5 1    
     8    4  130 1    
     9    5    6 1    
    10    5   65 1    
    11    5  131 1    
    12    6    7 1    
    13    6  132 1    
    14    6  133 1    
    15    7    8 1    
    16    8    9 1    
    17    8  134 1    
    18    8  135 1    
    19    9   10 ar   
    20    9   14 ar   
    21   10   11 ar   
    22   10  136 1    
    23   11   12 ar   
    24   11  126 1    
    25   12   13 ar   
    26   12  137 1    
    27   13   14 ar   
    28   13   15 1    
    29   14  138 1    
    30   15   16 1    
    31   15  139 1    
    32   15  140 1    
    33   16   17 1    
    34   17   18 1    
    35   17  141 1    
    36   17  142 1    
    37   18   19 1    
    38   18   67 1    
    39   18  143 1    
    40   19   20 am   BACKBONE|DICT|INTERRES
    41   19  144 1    
    42   20   21 2    
    43   20   22 1    
    44   22   23 1    
    45   22   24 1    
    46   22  145 1    
    47   23  146 1    
    48   23  147 1    
    49   23  148 1    
    50   24   25 am   BACKBONE|DICT|INTERRES
    51   24  149 1    
    52   25   26 2    
    53   25   27 1    
    54   27   28 1    
    55   27   29 1    
    56   27  150 1    
    57   28  151 1    
    58   28  152 1    
    59   28  153 1    
    60   29   30 am   BACKBONE|DICT|INTERRES
    61   29  154 1    
    62   30   31 2    
    63   30   32 1    
    64   32   33 1    
    65   32   34 1    
    66   32  155 1    
    67   33  156 1    
    68   33  157 1    
    69   33  158 1    
    70   34   35 am   BACKBONE|DICT|INTERRES
    71   34  159 1    
    72   35   36 2    
    73   35   37 1    
    74   37   38 1    
    75   37   39 1    
    76   37  160 1    
    77   38  161 1    
    78   38  162 1    
    79   38  163 1    
    80   39   40 am   BACKBONE|DICT|INTERRES
    81   39  164 1    
    82   40   41 2    
    83   40   42 1    
    84   42   43 1    
    85   42   44 1    
    86   42  165 1    
    87   43  166 1    
    88   43  167 1    
    89   43  168 1    
    90   44   45 am   BACKBONE|DICT|INTERRES
    91   44  169 1    
    92   45   46 2    
    93   45   47 1    
    94   47   48 1    
    95   47   49 1    
    96   47  170 1    
    97   48  171 1    
    98   48  172 1    
    99   48  173 1    
   100   49   50 am   BACKBONE|DICT|INTERRES
   101   49  174 1    
   102   50   51 2    
   103   50   52 1    
   104   52   53 1    
   105   52   54 1    
   106   52  175 1    
   107   53  176 1    
   108   53  177 1    
   109   53  178 1    
   110   54   55 am   BACKBONE|DICT|INTERRES
   111   54  179 1    
   112   55   56 2    
   113   55   57 1    
   114   57   58 1    
   115   57   59 1    
   116   57  180 1    
   117   58  181 1    
   118   58  182 1    
   119   58  183 1    
   120   59   60 am   BACKBONE|DICT|INTERRES
   121   59  184 1    
   122   60   61 2    
   123   60   62 1    
   124   62   63 1    
   125   62   64 1    
   126   62  185 1    
   127   63  186 1    
   128   63  187 1    
   129   63  188 1    
   130   64   65 am   BACKBONE|DICT|INTERRES
   131   64  189 1    
   132   65   66 2    
   133   67   68 2    
   134   67   69 am   BACKBONE|DICT|INTERRES
   135   69   70 1    
   136   69  190 1    
   137   70   71 1    
   138   70   72 1    
   139   70  191 1    
   140   71  192 1    
   141   71  193 1    
   142   71  194 1    
   143   72   73 2    
   144   72   74 am   BACKBONE|DICT|INTERRES
   145   74   75 1    
   146   74  195 1    
   147   75   76 1    
   148   75   77 1    
   149   75  196 1    
   150   76  197 1    
   151   76  198 1    
   152   76  199 1    
   153   77   78 2    
   154   77   79 am   BACKBONE|DICT|INTERRES
   155   79   80 1    
   156   79  200 1    
   157   80   81 1    
   158   80   82 1    
   159   80  201 1    
   160   81  202 1    
   161   81  203 1    
   162   81  204 1    
   163   82   83 2    
   164   82   84 am   BACKBONE|DICT|INTERRES
   165   84   85 1    
   166   84  205 1    
   167   85   86 1    
   168   85   87 1    
   169   85  206 1    
   170   86  207 1    
   171   86  208 1    
   172   86  209 1    
   173   87   88 2    
   174   87   89 am   BACKBONE|DICT|INTERRES
   175   89   90 1    
   176   89  210 1    
   177   90   91 1    
   178   90   92 1    
   179   90  211 1    
   180   91  212 1    
   181   91  213 1    
   182   91  214 1    
   183   92   93 2    
   184   92   94 am   BACKBONE|DICT|INTERRES
   185   94   95 1    
   186   94  215 1    
   187   95   96 1    
   188   95   97 1    
   189   95  216 1    
   190   96  217 1    
   191   96  218 1    
   192   96  219 1    
   193   97   98 2    
   194   97   99 am   BACKBONE|DICT|INTERRES
   195   99  100 1    
   196   99  220 1    
   197  100  101 1    
   198  100  102 1    
   199  100  221 1    
   200  101  222 1    
   201  101  223 1    
   202  101  224 1    
   203  102  103 2    
   204  102  104 am   BACKBONE|DICT|INTERRES
   205  104  105 1    
   206  104  225 1    
   207  105  106 1    
   208  105  107 1    
   209  105  226 1    
   210  106  227 1    
   211  106  228 1    
   212  106  229 1    
   213  107  108 2    
   214  107  109 am   BACKBONE|DICT|INTERRES
   215  109  110 1    
   216  109  230 1    
   217  110  111 1    
   218  110  112 1    
   219  110  231 1    
   220  111  232 1    
   221  111  233 1    
   222  111  234 1    
   223  112  113 2    
   224  112  114 am   BACKBONE|DICT|INTERRES
   225  114  115 1    
   226  114  235 1    
   227  115  116 1    
   228  115  117 1    
   229  115  236 1    
   230  116  237 1    
   231  116  238 1    
   232  116  239 1    
   233  117  118 2    
   234  117  119 am   BACKBONE|DICT|INTERRES
   235  119  120 1    
   236  119  240 1    
   237  120  121 1    
   238  120  124 1    
   239  120  241 1    
   240  121  122 am   BACKBONE|DICT|INTERRES
   241  121  123 2    
   242  122  242 1    
   243  122  243 1    
   244  124  125 1    
   245  124  244 1    
   246  124  245 1    
   247  125  126 1    
   248  126  246 1    
   249  126  247 1    
@<TRIPOS>SUBSTRUCTURE
     1 UNK         1 GROUP             0       ****    0 ROOT    
