@<TRIPOS>MOLECULE
3R540
247   249    1
SMALL
USER_CHARGES


@<TRIPOS>ATOM
      1 CA          3.7601  -12.1692  -44.5398 C.3       0 UNK        -0.1800 
      2 C           3.8616  -13.6296  -44.1243 C.2       0 UNK         0.5000 
      3 O           4.4231  -13.9339  -43.0710 O.2       0 UNK        -0.5000 
      4 N           3.3237  -14.5385  -44.9454 N.am      1 UNK        -0.5000 
      5 CA          3.3112  -15.9908  -44.7391 C.3       1 UNK         0.1400 
      6 C6          3.2574  -16.7976  -46.0698 C.3       23 UNK        -0.0398 
      7 S7          2.3616  -16.0031  -47.4572 S.3       23 UNK        -0.2404 
      8 C8          3.4352  -16.4445  -48.8662 C.3       23 UNK        -0.0205 
      9 C9          3.0555  -17.7795  -49.4969 C.ar      23 UNK        -0.0193 
     10 C10         2.4982  -17.8134  -50.7789 C.ar      23 UNK        -0.1150 
     11 C11         2.1832  -19.0310  -51.3899 C.ar      23 UNK        -0.0193 
     12 C12         2.4219  -20.2245  -50.7027 C.ar      23 UNK        -0.1150 
     13 C13         2.9522  -20.2068  -49.4095 C.ar      23 UNK        -0.0193 
     14 C14         3.2839  -18.9825  -48.8199 C.ar      23 UNK        -0.1150 
     15 C15         3.1729  -21.5104  -48.6562 C.3       23 UNK        -0.0205 
     16 S16         1.5977  -22.3345  -48.2555 S.3       23 UNK        -0.2404 
     17 C17         2.1794  -23.6997  -47.1881 C.3       23 UNK        -0.0398 
     18 CA          1.5847  -23.6968  -45.7576 C.3       11 UNK         0.1400 
     19 N           1.6880  -22.3904  -45.1009 N.am      11 UNK        -0.5000 
     20 C           1.9783  -22.2137  -43.8055 C.2       10 UNK         0.5000 
     21 O           2.2337  -23.1313  -43.0248 O.2       10 UNK        -0.5000 
     22 CA          1.9841  -20.7615  -43.2941 C.3       10 UNK         0.1400 
     23 CB          3.2915  -20.0584  -43.6922 C.3       10 UNK        -0.1800 
     24 N           0.8440  -19.9795  -43.7733 N.am      10 UNK        -0.5000 
     25 C          -0.4402  -20.2279  -43.4774 C.2       9 UNK         0.5000 
     26 O          -0.8091  -21.1363  -42.7335 O.2       9 UNK        -0.5000 
     27 CA         -1.4953  -19.3143  -44.1297 C.3       9 UNK         0.1400 
     28 CB         -1.9561  -18.2104  -43.1657 C.3       9 UNK        -0.1800 
     29 N          -1.0383  -18.7013  -45.3772 N.am      9 UNK        -0.5000 
     30 C          -0.8343  -19.3675  -46.5211 C.2       8 UNK         0.5000 
     31 O          -1.0055  -20.5816  -46.6332 O.2       8 UNK        -0.5000 
     32 CA         -0.3213  -18.5452  -47.7182 C.3       8 UNK         0.1400 
     33 CB         -0.6421  -19.1913  -49.0741 C.3       8 UNK        -0.1800 
     34 N          -0.7652  -17.1508  -47.7143 N.am      8 UNK        -0.5000 
     35 C          -2.0230  -16.6978  -47.8297 C.2       7 UNK         0.5000 
     36 O          -3.0212  -17.4168  -47.8699 O.2       7 UNK        -0.5000 
     37 CA         -2.1816  -15.1701  -47.9354 C.3       7 UNK         0.1400 
     38 CB         -2.3960  -14.5701  -46.5414 C.3       7 UNK        -0.1800 
     39 N          -1.0238  -14.5302  -48.5708 N.am      7 UNK        -0.5000 
     40 C          -0.7394  -14.6363  -49.8792 C.2       6 UNK         0.5000 
     41 O          -1.4819  -15.2011  -50.6825 O.2       6 UNK        -0.5000 
     42 CA          0.6069  -14.0633  -50.3750 C.3       6 UNK         0.1400 
     43 CB          0.5338  -13.5223  -51.8185 C.3       6 UNK        -0.1800 
     44 N           1.2247  -13.0877  -49.4695 N.am      6 UNK        -0.5000 
     45 C           0.7624  -11.8709  -49.1546 C.2       5 UNK         0.5000 
     46 O          -0.2639  -11.3701  -49.6191 O.2       5 UNK        -0.5000 
     47 CA          1.5788  -11.0920  -48.1060 C.3       5 UNK         0.1400 
     48 CB          2.1994   -9.8259  -48.7158 C.3       5 UNK        -0.1800 
     49 N           0.7470  -10.7220  -46.9613 N.am      5 UNK        -0.5000 
     50 C           0.1394  -11.6000  -46.1537 C.2       4 UNK         0.5000 
     51 O           0.2973  -12.8217  -46.2419 O.2       4 UNK        -0.5000 
     52 CA         -0.8156  -11.0017  -45.0995 C.3       4 UNK         0.1400 
     53 CB         -2.0863  -10.4424  -45.7614 C.3       4 UNK        -0.1800 
     54 N          -1.2067  -11.9845  -44.0880 N.am      4 UNK        -0.5000 
     55 C          -0.3973  -12.4309  -43.1212 C.2       3 UNK         0.5000 
     56 O           0.7329  -11.9780  -42.9242 O.2       3 UNK        -0.5000 
     57 CA         -0.9023  -13.5805  -42.2314 C.3       3 UNK         0.1400 
     58 CB         -2.1659  -14.3023  -42.7516 C.3       3 UNK        -0.1800 
     59 N           0.2084  -14.5112  -42.0960 N.am      3 UNK        -0.5000 
     60 C           0.3451  -15.4938  -41.2037 C.2       2 UNK         0.5000 
     61 O          -0.5052  -15.7707  -40.3565 O.2       2 UNK        -0.5000 
     62 CA          1.6765  -16.2738  -41.2409 C.3       2 UNK         0.1400 
     63 CB          1.4854  -17.7791  -40.9751 C.3       2 UNK        -0.1800 
     64 N           2.4823  -16.0404  -42.4489 N.am      2 UNK        -0.5000 
     65 C           2.2264  -16.3932  -43.7182 C.2       1 UNK         0.5000 
     66 O           1.2127  -16.9877  -44.0876 O.2       1 UNK        -0.5000 
     67 C           0.1384  -24.2309  -45.7198 C.2       11 UNK         0.5000 
     68 O          -0.0475  -25.4347  -45.5359 O.2       11 UNK        -0.5000 
     69 N          -0.8498  -23.3333  -45.8588 N.am      12 UNK        -0.5000 
     70 CA         -2.2964  -23.5462  -45.7914 C.3       12 UNK         0.1400 
     71 CB         -2.7409  -23.9570  -44.3743 C.3       12 UNK        -0.1800 
     72 C          -2.8368  -24.4970  -46.8728 C.2       12 UNK         0.5000 
     73 O          -3.4336  -24.0295  -47.8441 O.2       12 UNK        -0.5000 
     74 N          -2.6444  -25.8088  -46.6858 N.am      13 UNK        -0.5000 
     75 CA         -3.1682  -26.8860  -47.5305 C.3       13 UNK         0.1400 
     76 CB         -2.8035  -28.2403  -46.9059 C.3       13 UNK        -0.1800 
     77 C          -2.6867  -26.8146  -48.9902 C.2       13 UNK         0.5000 
     78 O          -3.4690  -27.0828  -49.9024 O.2       13 UNK        -0.5000 
     79 N          -1.4325  -26.3833  -49.1842 N.am      14 UNK        -0.5000 
     80 CA         -0.8147  -26.1430  -50.4927 C.3       14 UNK         0.1400 
     81 CB          0.6858  -25.8849  -50.2919 C.3       14 UNK        -0.1800 
     82 C          -1.4515  -24.9758  -51.2761 C.2       14 UNK         0.5000 
     83 O          -1.2506  -24.8808  -52.4870 O.2       14 UNK        -0.5000 
     84 N          -2.2035  -24.1179  -50.5762 N.am      15 UNK        -0.5000 
     85 CA         -2.9187  -22.9689  -51.1166 C.3       15 UNK         0.1400 
     86 CB         -2.4417  -21.7162  -50.3731 C.3       15 UNK        -0.1800 
     87 C          -4.4425  -23.1442  -51.0088 C.2       15 UNK         0.5000 
     88 O          -5.1577  -22.1410  -51.0185 O.2       15 UNK        -0.5000 
     89 N          -4.9067  -24.4000  -50.9104 N.am      16 UNK        -0.5000 
     90 CA         -6.3062  -24.8248  -50.7988 C.3       16 UNK         0.1400 
     91 CB         -7.0891  -24.4995  -52.0875 C.3       16 UNK        -0.1800 
     92 C          -6.9840  -24.2919  -49.5206 C.2       16 UNK         0.5000 
     93 O          -8.0726  -23.7200  -49.5831 O.2       16 UNK        -0.5000 
     94 N          -6.3019  -24.4969  -48.3852 N.am      17 UNK        -0.5000 
     95 CA         -6.6639  -24.0585  -47.0335 C.3       17 UNK         0.1400 
     96 CB         -8.0118  -24.6572  -46.5777 C.3       17 UNK        -0.1800 
     97 C          -6.5825  -22.5265  -46.8918 C.2       17 UNK         0.5000 
     98 O          -7.5150  -21.8955  -46.3915 O.2       17 UNK        -0.5000 
     99 N          -5.4445  -21.9716  -47.3379 N.am      18 UNK        -0.5000 
    100 CA        -5.0768  -20.5509  -47.3013 C.3       18 UNK         0.1400 
    101 CB        -4.9136  -20.0703  -45.8448 C.3       18 UNK        -0.1800 
    102 C         -6.0308  -19.6618  -48.1281 C.2       18 UNK         0.5000 
    103 O         -6.3688  -18.5522  -47.7129 O.2       18 UNK        -0.5000 
    104 N         -6.4449  -20.1696  -49.2962 N.am      19 UNK        -0.5000 
    105 CA        -7.2837  -19.4665  -50.2688 C.3       19 UNK         0.1400 
    106 CB        -8.2274  -20.4858  -50.9271 C.3       19 UNK        -0.1800 
    107 C         -6.4438  -18.7313  -51.3333 C.2       19 UNK         0.5000 
    108 O         -7.0187  -18.1243  -52.2376 O.2       19 UNK        -0.5000 
    109 N         -5.1085  -18.8159  -51.2196 N.am      20 UNK        -0.5000 
    110 CA        -4.0933  -18.2814  -52.1334 C.3       20 UNK         0.1400 
    111 CB        -4.1548  -16.7416  -52.1990 C.3       20 UNK        -0.1800 
    112 C         -4.1247  -18.9533  -53.5237 C.2       20 UNK         0.5000 
    113 O         -3.7683  -18.3261  -54.5217 O.2       20 UNK        -0.5000 
    114 N         -4.5273  -20.2330  -53.5637 N.am      21 UNK        -0.5000 
    115 CA        -4.5767  -21.0614  -54.7751 C.3       21 UNK         0.1400 
    116 CB        -5.6226  -22.1680  -54.5677 C.3       21 UNK        -0.1800 
    117 C         -3.2073  -21.6666  -55.1604 C.2       21 UNK         0.5000 
    118 O         -3.1221  -22.4006  -56.1458 O.2       21 UNK        -0.5000 
    119 N         -2.1755  -21.3748  -54.3620 N.am      22 UNK        -0.5000 
    120 CA        -0.7746  -21.7774  -54.5332 C.3       22 UNK         0.1400 
    121 C         -0.1126  -21.2488  -55.8396 C.2       22 UNK         0.5000 
    122 N          0.9092  -21.9328  -56.3375 N.am      22 UNK        -0.7600 
    123 O         -0.4884  -20.2162  -56.3906 O.2       22 UNK        -0.5000 
    124 C124        0.0533  -21.4005  -53.2746 C.3       23 UNK        -0.0398 
    125 S125       -0.1356  -19.6456  -52.7766 S.3       23 UNK        -0.2404 
    126 C126        1.5849  -19.0503  -52.7895 C.3       23 UNK        -0.0205 
    127 H127        3.3423  -11.5747  -43.7275 H         1 UNK         0.0600 
    128 H128        4.7485  -11.7767  -44.7777 H         1 UNK         0.0600 
    129 H129        3.1217  -12.0426  -45.4134 H         1 UNK         0.0600 
    130 H130        2.8360  -14.2316  -45.7763 H         1 UNK         0.3000 
    131 H131        4.2593  -16.2633  -44.2691 H         1 UNK         0.0600 
    132 H132        4.2863  -16.9679  -46.3870 H         1 UNK         0.0800 
    133 H133        2.8473  -17.7971  -45.9202 H         1 UNK         0.0800 
    134 H134        4.4824  -16.4682  -48.5632 H         1 UNK         0.0800 
    135 H135        3.3726  -15.6481  -49.6080 H         1 UNK         0.0800 
    136 H136        2.3194  -16.8901  -51.3107 H         1 UNK         0.1150 
    137 H137        2.1713  -21.1694  -51.1629 H         1 UNK         0.1150 
    138 H138        3.7180  -18.9670  -47.8316 H         1 UNK         0.1150 
    139 H139        3.7864  -22.1783  -49.2625 H         1 UNK         0.0800 
    140 H140        3.7270  -21.3272  -47.7343 H         1 UNK         0.0800 
    141 H141        1.9783  -24.6490  -47.6863 H         1 UNK         0.0800 
    142 H142        3.2660  -23.6477  -47.1117 H         1 UNK         0.0800 
    143 H143        2.1774  -24.4170  -45.1890 H         1 UNK         0.0600 
    144 H144        1.4731  -21.5860  -45.6716 H         1 UNK         0.3000 
    145 H145        1.9321  -20.7928  -42.2038 H         1 UNK         0.0600 
    146 H146        3.3631  -19.0705  -43.2399 H         1 UNK         0.0600 
    147 H147        4.1584  -20.6280  -43.3545 H         1 UNK         0.0600 
    148 H148        3.3767  -19.9439  -44.7733 H         1 UNK         0.0600 
    149 H149        1.0439  -19.1466  -44.3123 H         1 UNK         0.3000 
    150 H150       -2.3564  -19.9429  -44.3567 H         1 UNK         0.0600 
    151 H151       -2.2877  -18.6307  -42.2154 H         1 UNK         0.0600 
    152 H152       -2.7929  -17.6498  -43.5827 H         1 UNK         0.0600 
    153 H153       -1.1572  -17.5017  -42.9499 H         1 UNK         0.0600 
    154 H154       -0.8117  -17.7170  -45.3416 H         1 UNK         0.3000 
    155 H155        0.7626  -18.5235  -47.6155 H         1 UNK         0.0600 
    156 H156       -1.7136  -19.3346  -49.2044 H         1 UNK         0.0600 
    157 H157       -0.1576  -20.1616  -49.1643 H         1 UNK         0.0600 
    158 H158       -0.2862  -18.5735  -49.8976 H         1 UNK         0.0600 
    159 H159       -0.0226  -16.4655  -47.6747 H         1 UNK         0.3000 
    160 H160       -3.0690  -14.9657  -48.5381 H         1 UNK         0.0600 
    161 H161       -2.5879  -13.5006  -46.6009 H         1 UNK         0.0600 
    162 H162       -1.5203  -14.7234  -45.9110 H         1 UNK         0.0600 
    163 H163       -3.2502  -15.0286  -46.0414 H         1 UNK         0.0600 
    164 H164       -0.3866  -14.0304  -47.9613 H         1 UNK         0.3000 
    165 H165        1.2838  -14.9160  -50.3927 H         1 UNK         0.0600 
    166 H166        1.5002  -13.1394  -52.1462 H         1 UNK         0.0600 
    167 H167        0.2457  -14.3090  -52.5168 H         1 UNK         0.0600 
    168 H168       -0.1973  -12.7195  -51.9154 H         1 UNK         0.0600 
    169 H169        2.0596  -13.4111  -49.0016 H         1 UNK         0.3000 
    170 H170        2.3903  -11.7255  -47.7424 H         1 UNK         0.0600 
    171 H171        2.8363  -10.0750  -49.5656 H         1 UNK         0.0600 
    172 H172        1.4356   -9.1325  -49.0703 H         1 UNK         0.0600 
    173 H173        2.8191   -9.3005  -47.9888 H         1 UNK         0.0600 
    174 H174        0.5497   -9.7381  -46.8525 H         1 UNK         0.3000 
    175 H175       -0.2962  -10.1800  -44.6018 H         1 UNK         0.0600 
    176 H176       -2.6378  -11.2116  -46.3012 H         1 UNK         0.0600 
    177 H177       -2.7573  -10.0078  -45.0202 H         1 UNK         0.0600 
    178 H178       -1.8456   -9.6545  -46.4761 H         1 UNK         0.0600 
    179 H179       -2.1023  -12.4307  -44.2147 H         1 UNK         0.3000 
    180 H180       -1.1202  -13.1512  -41.2518 H         1 UNK         0.0600 
    181 H181       -1.9740  -14.8189  -43.6901 H         1 UNK         0.0600 
    182 H182       -2.9952  -13.6108  -42.9028 H         1 UNK         0.0600 
    183 H183       -2.5124  -15.0500  -42.0385 H         1 UNK         0.0600 
    184 H184        0.9851  -14.3220  -42.7151 H         1 UNK         0.3000 
    185 H185        2.2697  -15.8757  -40.4165 H         1 UNK         0.0600 
    186 H186        1.0638  -17.9507  -39.9842 H         1 UNK         0.0600 
    187 H187        0.8050  -18.2277  -41.6949 H         1 UNK         0.0600 
    188 H188        2.4326  -18.3158  -41.0205 H         1 UNK         0.0600 
    189 H189        3.3198  -15.4850  -42.3017 H         1 UNK         0.3000 
    190 H190       -0.5984  -22.3729  -46.0779 H         1 UNK         0.3000 
    191 H191       -2.7446  -22.5729  -45.9941 H         1 UNK         0.0600 
    192 H192       -2.2814  -24.8899  -44.0473 H         1 UNK         0.0600 
    193 H193       -3.8226  -24.0892  -44.3273 H         1 UNK         0.0600 
    194 H194       -2.4783  -23.1883  -43.6477 H         1 UNK         0.0600 
    195 H195       -2.0499  -26.0835  -45.9127 H         1 UNK         0.3000 
    196 H196       -4.2564  -26.7980  -47.5394 H         1 UNK         0.0600 
    197 H197       -3.1938  -29.0653  -47.5036 H         1 UNK         0.0600 
    198 H198       -3.2241  -28.3384  -45.9050 H         1 UNK         0.0600 
    199 H199       -1.7232  -28.3706  -46.8300 H         1 UNK         0.0600 
    200 H200       -0.8723  -26.1725  -48.3709 H         1 UNK         0.3000 
    201 H201       -0.9336  -27.0470  -51.0932 H         1 UNK         0.0600 
    202 H202        1.1617  -26.6980  -49.7435 H         1 UNK         0.0600 
    203 H203        0.8593  -24.9581  -49.7455 H         1 UNK         0.0600 
    204 H204        1.1978  -25.7968  -51.2510 H         1 UNK         0.0600 
    205 H205       -2.3393  -24.2817  -49.5853 H         1 UNK         0.3000 
    206 H206       -2.6964  -22.8485  -52.1760 H         1 UNK         0.0600 
    207 H207       -2.8668  -20.8115  -50.8051 H         1 UNK         0.0600 
    208 H208       -1.3587  -21.6262  -50.4321 H         1 UNK         0.0600 
    209 H209       -2.7111  -21.7457  -49.3171 H         1 UNK         0.0600 
    210 H210       -4.2271  -25.1500  -50.8849 H         1 UNK         0.3000 
    211 H211       -6.2859  -25.9111  -50.6989 H         1 UNK         0.0600 
    212 H212       -7.1904  -23.4261  -52.2431 H         1 UNK         0.0600 
    213 H213       -8.0955  -24.9176  -52.0475 H         1 UNK         0.0600 
    214 H214       -6.5982  -24.9218  -52.9640 H         1 UNK         0.0600 
    215 H215       -5.3740  -24.8898  -48.4701 H         1 UNK         0.3000 
    216 H216       -5.8989  -24.4630  -46.3695 H         1 UNK         0.0600 
    217 H217       -8.1927  -24.4435  -45.5237 H         1 UNK         0.0600 
    218 H218       -8.0219  -25.7407  -46.6952 H         1 UNK         0.0600 
    219 H219       -8.8534  -24.2501  -47.1382 H         1 UNK         0.0600 
    220 H220       -4.7494  -22.5965  -47.7347 H         1 UNK         0.3000 
    221 H221       -4.0981  -20.4752  -47.7772 H         1 UNK         0.0600 
    222 H222       -5.8743  -19.9780  -45.3375 H         1 UNK         0.0600 
    223 H223       -4.3005  -20.7623  -45.2694 H         1 UNK         0.0600 
    224 H224       -4.4286  -19.0937  -45.8111 H         1 UNK         0.0600 
    225 H225       -6.1092  -21.0811  -49.5913 H         1 UNK         0.3000 
    226 H226       -7.8959  -18.7190  -49.7605 H         1 UNK         0.0600 
    227 H227       -8.8195  -21.0149  -50.1802 H         1 UNK         0.0600 
    228 H228       -8.9252  -19.9953  -51.6066 H         1 UNK         0.0600 
    229 H229       -7.6761  -21.2284  -51.5035 H         1 UNK         0.0600 
    230 H230       -4.7577  -19.3465  -50.4363 H         1 UNK         0.3000 
    231 H231       -3.1278  -18.5418  -51.6972 H         1 UNK         0.0600 
    232 H232       -4.1347  -16.3048  -51.2003 H         1 UNK         0.0600 
    233 H233       -5.0537  -16.3887  -52.7045 H         1 UNK         0.0600 
    234 H234       -3.2971  -16.3411  -52.7406 H         1 UNK         0.0600 
    235 H235       -4.8270  -20.6754  -52.7032 H         1 UNK         0.3000 
    236 H236       -4.9047  -20.4406  -55.6114 H         1 UNK         0.0600 
    237 H237       -5.7956  -22.7207  -55.4918 H         1 UNK         0.0600 
    238 H238       -5.2987  -22.8867  -53.8162 H         1 UNK         0.0600 
    239 H239       -6.5816  -21.7566  -54.2516 H         1 UNK         0.0600 
    240 H240       -2.3359  -20.7106  -53.6211 H         1 UNK         0.3000 
    241 H241       -0.7813  -22.8666  -54.6072 H         1 UNK         0.0600 
    242 H242        1.3562  -21.5988  -57.1773 H         1 UNK         0.3800 
    243 H243        1.2394  -22.7842  -55.9096 H         1 UNK         0.3800 
    244 H244       -0.2666  -22.0200  -52.4376 H         1 UNK         0.0800 
    245 H245        1.1055  -21.6496  -53.4174 H         1 UNK         0.0800 
    246 H246        1.5890  -18.0459  -53.2154 H         1 UNK         0.0800 
    247 H247        2.2051  -19.6558  -53.4512 H         1 UNK         0.0800 
@<TRIPOS>BOND
     1    1    2 1    
     2    1  127 1    
     3    1  128 1    
     4    1  129 1    
     5    2    3 2    
     6    2    4 am   BACKBONE|DICT|INTERRES
     7    4    5 1    
     8    4  130 1    
     9    5    6 1    
    10    5   65 1    
    11    5  131 1    
    12    6    7 1    
    13    6  132 1    
    14    6  133 1    
    15    7    8 1    
    16    8    9 1    
    17    8  134 1    
    18    8  135 1    
    19    9   10 ar   
    20    9   14 ar   
    21   10   11 ar   
    22   10  136 1    
    23   11   12 ar   
    24   11  126 1    
    25   12   13 ar   
    26   12  137 1    
    27   13   14 ar   
    28   13   15 1    
    29   14  138 1    
    30   15   16 1    
    31   15  139 1    
    32   15  140 1    
    33   16   17 1    
    34   17   18 1    
    35   17  141 1    
    36   17  142 1    
    37   18   19 1    
    38   18   67 1    
    39   18  143 1    
    40   19   20 am   BACKBONE|DICT|INTERRES
    41   19  144 1    
    42   20   21 2    
    43   20   22 1    
    44   22   23 1    
    45   22   24 1    
    46   22  145 1    
    47   23  146 1    
    48   23  147 1    
    49   23  148 1    
    50   24   25 am   BACKBONE|DICT|INTERRES
    51   24  149 1    
    52   25   26 2    
    53   25   27 1    
    54   27   28 1    
    55   27   29 1    
    56   27  150 1    
    57   28  151 1    
    58   28  152 1    
    59   28  153 1    
    60   29   30 am   BACKBONE|DICT|INTERRES
    61   29  154 1    
    62   30   31 2    
    63   30   32 1    
    64   32   33 1    
    65   32   34 1    
    66   32  155 1    
    67   33  156 1    
    68   33  157 1    
    69   33  158 1    
    70   34   35 am   BACKBONE|DICT|INTERRES
    71   34  159 1    
    72   35   36 2    
    73   35   37 1    
    74   37   38 1    
    75   37   39 1    
    76   37  160 1    
    77   38  161 1    
    78   38  162 1    
    79   38  163 1    
    80   39   40 am   BACKBONE|DICT|INTERRES
    81   39  164 1    
    82   40   41 2    
    83   40   42 1    
    84   42   43 1    
    85   42   44 1    
    86   42  165 1    
    87   43  166 1    
    88   43  167 1    
    89   43  168 1    
    90   44   45 am   BACKBONE|DICT|INTERRES
    91   44  169 1    
    92   45   46 2    
    93   45   47 1    
    94   47   48 1    
    95   47   49 1    
    96   47  170 1    
    97   48  171 1    
    98   48  172 1    
    99   48  173 1    
   100   49   50 am   BACKBONE|DICT|INTERRES
   101   49  174 1    
   102   50   51 2    
   103   50   52 1    
   104   52   53 1    
   105   52   54 1    
   106   52  175 1    
   107   53  176 1    
   108   53  177 1    
   109   53  178 1    
   110   54   55 am   BACKBONE|DICT|INTERRES
   111   54  179 1    
   112   55   56 2    
   113   55   57 1    
   114   57   58 1    
   115   57   59 1    
   116   57  180 1    
   117   58  181 1    
   118   58  182 1    
   119   58  183 1    
   120   59   60 am   BACKBONE|DICT|INTERRES
   121   59  184 1    
   122   60   61 2    
   123   60   62 1    
   124   62   63 1    
   125   62   64 1    
   126   62  185 1    
   127   63  186 1    
   128   63  187 1    
   129   63  188 1    
   130   64   65 am   BACKBONE|DICT|INTERRES
   131   64  189 1    
   132   65   66 2    
   133   67   68 2    
   134   67   69 am   BACKBONE|DICT|INTERRES
   135   69   70 1    
   136   69  190 1    
   137   70   71 1    
   138   70   72 1    
   139   70  191 1    
   140   71  192 1    
   141   71  193 1    
   142   71  194 1    
   143   72   73 2    
   144   72   74 am   BACKBONE|DICT|INTERRES
   145   74   75 1    
   146   74  195 1    
   147   75   76 1    
   148   75   77 1    
   149   75  196 1    
   150   76  197 1    
   151   76  198 1    
   152   76  199 1    
   153   77   78 2    
   154   77   79 am   BACKBONE|DICT|INTERRES
   155   79   80 1    
   156   79  200 1    
   157   80   81 1    
   158   80   82 1    
   159   80  201 1    
   160   81  202 1    
   161   81  203 1    
   162   81  204 1    
   163   82   83 2    
   164   82   84 am   BACKBONE|DICT|INTERRES
   165   84   85 1    
   166   84  205 1    
   167   85   86 1    
   168   85   87 1    
   169   85  206 1    
   170   86  207 1    
   171   86  208 1    
   172   86  209 1    
   173   87   88 2    
   174   87   89 am   BACKBONE|DICT|INTERRES
   175   89   90 1    
   176   89  210 1    
   177   90   91 1    
   178   90   92 1    
   179   90  211 1    
   180   91  212 1    
   181   91  213 1    
   182   91  214 1    
   183   92   93 2    
   184   92   94 am   BACKBONE|DICT|INTERRES
   185   94   95 1    
   186   94  215 1    
   187   95   96 1    
   188   95   97 1    
   189   95  216 1    
   190   96  217 1    
   191   96  218 1    
   192   96  219 1    
   193   97   98 2    
   194   97   99 am   BACKBONE|DICT|INTERRES
   195   99  100 1    
   196   99  220 1    
   197  100  101 1    
   198  100  102 1    
   199  100  221 1    
   200  101  222 1    
   201  101  223 1    
   202  101  224 1    
   203  102  103 2    
   204  102  104 am   BACKBONE|DICT|INTERRES
   205  104  105 1    
   206  104  225 1    
   207  105  106 1    
   208  105  107 1    
   209  105  226 1    
   210  106  227 1    
   211  106  228 1    
   212  106  229 1    
   213  107  108 2    
   214  107  109 am   BACKBONE|DICT|INTERRES
   215  109  110 1    
   216  109  230 1    
   217  110  111 1    
   218  110  112 1    
   219  110  231 1    
   220  111  232 1    
   221  111  233 1    
   222  111  234 1    
   223  112  113 2    
   224  112  114 am   BACKBONE|DICT|INTERRES
   225  114  115 1    
   226  114  235 1    
   227  115  116 1    
   228  115  117 1    
   229  115  236 1    
   230  116  237 1    
   231  116  238 1    
   232  116  239 1    
   233  117  118 2    
   234  117  119 am   BACKBONE|DICT|INTERRES
   235  119  120 1    
   236  119  240 1    
   237  120  121 1    
   238  120  124 1    
   239  120  241 1    
   240  121  122 am   BACKBONE|DICT|INTERRES
   241  121  123 2    
   242  122  242 1    
   243  122  243 1    
   244  124  125 1    
   245  124  244 1    
   246  124  245 1    
   247  125  126 1    
   248  126  246 1    
   249  126  247 1    
@<TRIPOS>SUBSTRUCTURE
     1 UNK         1 GROUP             0       ****    0 ROOT    
