@<TRIPOS>MOLECULE
3R540
247   249    1
SMALL
USER_CHARGES


@<TRIPOS>ATOM
      1 CA          1.2838  -15.2021  -49.3192 C.3       0 UNK        -0.1800 
      2 C           0.5653  -15.2599  -47.9803 C.2       0 UNK         0.5000 
      3 O           1.0356  -14.6762  -47.0052 O.2       0 UNK        -0.5000 
      4 N          -0.5915  -15.9334  -47.9351 N.am      1 UNK        -0.5000 
      5 CA         -1.4313  -16.1230  -46.7425 C.3       1 UNK         0.1400 
      6 C6         -2.5154  -17.2082  -46.9539 C.3       23 UNK        -0.0398 
      7 S7         -3.5752  -16.9665  -48.4220 S.3       23 UNK        -0.2404 
      8 C8         -3.1841  -18.4419  -49.4138 C.3       23 UNK        -0.0205 
      9 C9         -1.8409  -18.3106  -50.1106 C.ar      23 UNK        -0.0193 
     10 C10        -1.7509  -17.6342  -51.3290 C.ar      23 UNK        -0.1150 
     11 C11        -0.5213  -17.5004  -51.9774 C.ar      23 UNK        -0.0193 
     12 C12         0.6250  -18.0466  -51.3923 C.ar      23 UNK        -0.1150 
     13 C13         0.5520  -18.7274  -50.1720 C.ar      23 UNK        -0.0193 
     14 C14        -0.6892  -18.8573  -49.5391 C.ar      23 UNK        -0.1150 
     15 C15         1.8290  -19.2735  -49.5395 C.3       23 UNK        -0.0205 
     16 S16         1.6595  -20.9655  -48.8797 S.3       23 UNK        -0.2404 
     17 C17         1.4119  -20.6359  -47.1015 C.3       23 UNK        -0.0398 
     18 CA          0.6480  -21.7779  -46.3883 C.3       11 UNK         0.1400 
     19 N           1.0022  -21.8789  -44.9700 N.am      11 UNK        -0.5000 
     20 C           0.6334  -22.8823  -44.1605 C.2       10 UNK         0.5000 
     21 O          -0.0068  -23.8630  -44.5381 O.2       10 UNK        -0.5000 
     22 CA          0.9799  -22.7343  -42.6680 C.3       10 UNK         0.1400 
     23 CB          2.4385  -23.1299  -42.3963 C.3       10 UNK        -0.1800 
     24 N           0.7289  -21.3778  -42.1781 N.am      10 UNK        -0.5000 
     25 C          -0.4858  -20.8130  -42.1216 C.2       9 UNK         0.5000 
     26 O          -1.5252  -21.4147  -42.3927 O.2       9 UNK        -0.5000 
     27 CA         -0.5480  -19.3186  -41.7513 C.3       9 UNK         0.1400 
     28 CB         -0.5158  -19.1289  -40.2279 C.3       9 UNK        -0.1800 
     29 N           0.5276  -18.5371  -42.3646 N.am      9 UNK        -0.5000 
     30 C           0.6790  -18.3488  -43.6834 C.2       8 UNK         0.5000 
     31 O          -0.1050  -18.7734  -44.5307 O.2       8 UNK        -0.5000 
     32 CA          1.9550  -17.6220  -44.1398 C.3       8 UNK         0.1400 
     33 CB          1.8113  -16.1009  -44.0140 C.3       8 UNK        -0.1800 
     34 N           3.1321  -18.0627  -43.3939 N.am      8 UNK        -0.5000 
     35 C           3.6775  -19.2824  -43.4920 C.2       7 UNK         0.5000 
     36 O           3.2659  -20.1542  -44.2560 O.2       7 UNK        -0.5000 
     37 CA          4.8498  -19.5901  -42.5434 C.3       7 UNK         0.1400 
     38 CB          6.1731  -19.0831  -43.1354 C.3       7 UNK        -0.1800 
     39 N           4.6568  -19.0079  -41.2141 N.am      7 UNK        -0.5000 
     40 C           3.7062  -19.3939  -40.3509 C.2       6 UNK         0.5000 
     41 O           2.9188  -20.3137  -40.5690 O.2       6 UNK        -0.5000 
     42 CA          3.5828  -18.5779  -39.0511 C.3       6 UNK         0.1400 
     43 CB          4.5572  -19.1034  -37.9866 C.3       6 UNK        -0.1800 
     44 N           3.8086  -17.1437  -39.2565 N.am      6 UNK        -0.5000 
     45 C           3.0198  -16.3547  -39.9970 C.2       5 UNK         0.5000 
     46 O           2.0142  -16.7548  -40.5888 O.2       5 UNK        -0.5000 
     47 CA          3.4545  -14.8915  -40.1403 C.3       5 UNK         0.1400 
     48 CB          4.5040  -14.7412  -41.2565 C.3       5 UNK        -0.1800 
     49 N           2.2884  -14.0701  -40.4497 N.am      5 UNK        -0.5000 
     50 C           2.1539  -12.7790  -40.1333 C.2       4 UNK         0.5000 
     51 O           3.0328  -12.1177  -39.5761 O.2       4 UNK        -0.5000 
     52 CA          0.8343  -12.1070  -40.5505 C.3       4 UNK         0.1400 
     53 CB          0.5017  -10.8789  -39.6839 C.3       4 UNK        -0.1800 
     54 N           0.9304  -11.6858  -41.9457 N.am      4 UNK        -0.5000 
     55 C           0.5639  -12.4313  -42.9932 C.2       3 UNK         0.5000 
     56 O           0.0585  -13.5508  -42.8905 O.2       3 UNK        -0.5000 
     57 CA          0.8455  -11.8318  -44.3836 C.3       3 UNK         0.1400 
     58 CB          2.2431  -12.2378  -44.8747 C.3       3 UNK        -0.1800 
     59 N          -0.1499  -12.2556  -45.3676 N.am      3 UNK        -0.5000 
     60 C          -1.3999  -11.7723  -45.4294 C.2       2 UNK         0.5000 
     61 O          -1.8138  -10.8688  -44.7010 O.2       2 UNK        -0.5000 
     62 CA         -2.3523  -12.3768  -46.4831 C.3       2 UNK         0.1400 
     63 CB         -2.4399  -11.4634  -47.7155 C.3       2 UNK        -0.1800 
     64 N          -1.9625  -13.7168  -46.9191 N.am      2 UNK        -0.5000 
     65 C          -2.0358  -14.8215  -46.1644 C.2       1 UNK         0.5000 
     66 O          -2.5450  -14.8407  -45.0434 O.2       1 UNK        -0.5000 
     67 C          -0.8784  -21.6748  -46.5978 C.2       11 UNK         0.5000 
     68 O          -1.4061  -22.3304  -47.4931 O.2       11 UNK        -0.5000 
     69 N          -1.5669  -20.9072  -45.7386 N.am      12 UNK        -0.5000 
     70 CA         -3.0265  -20.7684  -45.7131 C.3       12 UNK         0.1400 
     71 CB         -3.4353  -19.7497  -44.6345 C.3       12 UNK        -0.1800 
     72 C          -3.7577  -22.1020  -45.4750 C.2       12 UNK         0.5000 
     73 O          -4.7949  -22.3436  -46.0919 O.2       12 UNK        -0.5000 
     74 N          -3.2011  -22.9383  -44.5892 N.am      13 UNK        -0.5000 
     75 CA         -3.7024  -24.2792  -44.2991 C.3       13 UNK         0.1400 
     76 CB         -3.1179  -24.7601  -42.9618 C.3       13 UNK        -0.1800 
     77 C          -3.3888  -25.2790  -45.4279 C.2       13 UNK         0.5000 
     78 O          -4.2358  -26.1133  -45.7498 O.2       13 UNK        -0.5000 
     79 N          -2.1774  -25.1904  -45.9931 N.am      14 UNK        -0.5000 
     80 CA         -1.6788  -26.0900  -47.0319 C.3       14 UNK         0.1400 
     81 CB         -0.1516  -25.9528  -47.1314 C.3       14 UNK        -0.1800 
     82 C          -2.3283  -25.8675  -48.4096 C.2       14 UNK         0.5000 
     83 O          -2.6381  -26.8453  -49.0923 O.2       14 UNK        -0.5000 
     84 N          -2.4901  -24.6008  -48.8132 N.am      15 UNK        -0.5000 
     85 CA         -2.9983  -24.2157  -50.1278 C.3       15 UNK         0.1400 
     86 CB         -2.7106  -22.7250  -50.3792 C.3       15 UNK        -0.1800 
     87 C          -4.5008  -24.5049  -50.2879 C.2       15 UNK         0.5000 
     88 O          -5.3054  -24.0812  -49.4554 O.2       15 UNK        -0.5000 
     89 N          -4.8495  -25.1689  -51.3955 N.am      16 UNK        -0.5000 
     90 CA         -6.2057  -25.2150  -51.9412 C.3       16 UNK         0.1400 
     91 CB         -6.3053  -26.4169  -52.8944 C.3       16 UNK        -0.1800 
     92 C          -6.5102  -23.9057  -52.6944 C.2       16 UNK         0.5000 
     93 O          -5.5873  -23.1424  -52.9875 O.2       16 UNK        -0.5000 
     94 N          -7.7816  -23.6818  -53.0510 N.am      17 UNK        -0.5000 
     95 CA         -8.2465  -22.4870  -53.7703 C.3       17 UNK         0.1400 
     96 CB         -9.7663  -22.5765  -53.9729 C.3       17 UNK        -0.1800 
     97 C          -7.5353  -22.2415  -55.1183 C.2       17 UNK         0.5000 
     98 O          -7.2695  -21.0913  -55.4667 O.2       17 UNK        -0.5000 
     99 N          -7.2017  -23.3291  -55.8269 N.am      18 UNK        -0.5000 
    100 CA        -6.4465  -23.3023  -57.0806 C.3       18 UNK         0.1400 
    101 CB        -6.5923  -24.6620  -57.7806 C.3       18 UNK        -0.1800 
    102 C         -4.9571  -22.9550  -56.8859 C.2       18 UNK         0.5000 
    103 O         -4.3565  -22.3600  -57.7803 O.2       18 UNK        -0.5000 
    104 N         -4.3888  -23.3253  -55.7298 N.am      19 UNK        -0.5000 
    105 CA        -3.0048  -23.0281  -55.3565 C.3       19 UNK         0.1400 
    106 CB        -2.5147  -24.0634  -54.3319 C.3       19 UNK        -0.1800 
    107 C         -2.8665  -21.6018  -54.7988 C.2       19 UNK         0.5000 
    108 O         -1.8774  -20.9314  -55.0887 O.2       19 UNK        -0.5000 
    109 N         -3.8747  -21.1636  -54.0316 N.am      20 UNK        -0.5000 
    110 CA        -3.9910  -19.8276  -53.4470 C.3       20 UNK         0.1400 
    111 CB        -5.1753  -19.8206  -52.4692 C.3       20 UNK        -0.1800 
    112 C         -4.1560  -18.7083  -54.4924 C.2       20 UNK         0.5000 
    113 O         -3.7986  -17.5619  -54.2182 O.2       20 UNK        -0.5000 
    114 N         -4.6738  -19.0538  -55.6782 N.am      21 UNK        -0.5000 
    115 CA        -4.7915  -18.1855  -56.8488 C.3       21 UNK         0.1400 
    116 CB        -5.8701  -18.7666  -57.7808 C.3       21 UNK        -0.1800 
    117 C         -3.4286  -17.9982  -57.5531 C.2       21 UNK         0.5000 
    118 O         -3.2696  -18.3835  -58.7133 O.2       21 UNK        -0.5000 
    119 N         -2.4597  -17.4381  -56.8200 N.am      22 UNK        -0.5000 
    120 CA        -1.0843  -17.1687  -57.2631 C.3       22 UNK         0.1400 
    121 C         -1.0118  -16.1635  -58.4472 C.2       22 UNK         0.5000 
    122 N         -0.1041  -16.3713  -59.3914 N.am      22 UNK        -0.7600 
    123 O         -1.7383  -15.1728  -58.4931 O.2       22 UNK        -0.5000 
    124 C124       -0.1921  -16.6769  -56.0941 C.3       23 UNK        -0.0398 
    125 S125       -0.1254  -17.8529  -54.6977 S.3       23 UNK        -0.2404 
    126 C126       -0.4269  -16.7390  -53.2912 C.3       23 UNK        -0.0205 
    127 H127        2.0944  -15.9301  -49.3426 H         1 UNK         0.0600 
    128 H128        1.7082  -14.2108  -49.4781 H         1 UNK         0.0600 
    129 H129        0.6049  -15.4124  -50.1453 H         1 UNK         0.0600 
    130 H130       -0.9376  -16.3791  -48.7745 H         1 UNK         0.3000 
    131 H131       -0.7692  -16.4993  -45.9617 H         1 UNK         0.0600 
    132 H132       -2.0330  -18.1836  -47.0068 H         1 UNK         0.0800 
    133 H133       -3.1745  -17.2606  -46.0873 H         1 UNK         0.0800 
    134 H134       -3.9676  -18.5719  -50.1587 H         1 UNK         0.0800 
    135 H135       -3.2121  -19.3375  -48.7927 H         1 UNK         0.0800 
    136 H136       -2.6409  -17.2067  -51.7696 H         1 UNK         0.1150 
    137 H137        1.5779  -17.9311  -51.8897 H         1 UNK         0.1150 
    138 H138       -0.7617  -19.3799  -48.5978 H         1 UNK         0.1150 
    139 H139        2.1600  -18.5922  -48.7547 H         1 UNK         0.0800 
    140 H140        2.6303  -19.2917  -50.2797 H         1 UNK         0.0800 
    141 H141        0.9234  -19.6721  -46.9481 H         1 UNK         0.0800 
    142 H142        2.4103  -20.5321  -46.6768 H         1 UNK         0.0800 
    143 H143        0.9667  -22.7215  -46.8359 H         1 UNK         0.0600 
    144 H144        1.5765  -21.1328  -44.5903 H         1 UNK         0.3000 
    145 H145        0.3357  -23.4163  -42.1090 H         1 UNK         0.0600 
    146 H146        2.6672  -23.0821  -41.3315 H         1 UNK         0.0600 
    147 H147        2.6323  -24.1515  -42.7256 H         1 UNK         0.0600 
    148 H148        3.1396  -22.4790  -42.9177 H         1 UNK         0.0600 
    149 H149        1.5344  -20.8464  -41.8626 H         1 UNK         0.3000 
    150 H150       -1.4967  -18.9253  -42.1223 H         1 UNK         0.0600 
    151 H151       -1.3371  -19.6649  -39.7509 H         1 UNK         0.0600 
    152 H152       -0.6130  -18.0767  -39.9598 H         1 UNK         0.0600 
    153 H153        0.4134  -19.4991  -39.7948 H         1 UNK         0.0600 
    154 H154        1.1909  -18.0999  -41.7318 H         1 UNK         0.3000 
    155 H155        2.1101  -17.8580  -45.1949 H         1 UNK         0.0600 
    156 H156        1.7092  -15.7834  -42.9778 H         1 UNK         0.0600 
    157 H157        2.6766  -15.5924  -44.4378 H         1 UNK         0.0600 
    158 H158        0.9308  -15.7414  -44.5450 H         1 UNK         0.0600 
    159 H159        3.5026  -17.4218  -42.7098 H         1 UNK         0.3000 
    160 H160        4.9163  -20.6747  -42.4352 H         1 UNK         0.0600 
    161 H161        6.3491  -19.5144  -44.1218 H         1 UNK         0.0600 
    162 H162        6.1778  -17.9979  -43.2459 H         1 UNK         0.0600 
    163 H163        7.0184  -19.3604  -42.5054 H         1 UNK         0.0600 
    164 H164        5.2664  -18.2472  -40.9532 H         1 UNK         0.3000 
    165 H165        2.5658  -18.7078  -38.6750 H         1 UNK         0.0600 
    166 H166        4.4193  -18.5866  -37.0366 H         1 UNK         0.0600 
    167 H167        4.3971  -20.1667  -37.8026 H         1 UNK         0.0600 
    168 H168        5.5966  -18.9757  -38.2913 H         1 UNK         0.0600 
    169 H169        4.6194  -16.7456  -38.8044 H         1 UNK         0.3000 
    170 H170        3.8847  -14.5721  -39.1886 H         1 UNK         0.0600 
    171 H171        5.3805  -15.3601  -41.0616 H         1 UNK         0.0600 
    172 H172        4.1033  -15.0318  -42.2281 H         1 UNK         0.0600 
    173 H173        4.8491  -13.7102  -41.3357 H         1 UNK         0.0600 
    174 H174        1.5262  -14.5651  -40.8979 H         1 UNK         0.3000 
    175 H175        0.0249  -12.8295  -40.4246 H         1 UNK         0.0600 
    176 H176        1.2522  -10.0935  -39.7828 H         1 UNK         0.0600 
    177 H177       -0.4633  -10.4540  -39.9608 H         1 UNK         0.0600 
    178 H178        0.4460  -11.1503  -38.6289 H         1 UNK         0.0600 
    179 H179        1.3794  -10.7960  -42.1089 H         1 UNK         0.3000 
    180 H180        0.8144  -10.7427  -44.3076 H         1 UNK         0.0600 
    181 H181        2.3300  -13.3177  -44.9888 H         1 UNK         0.0600 
    182 H182        3.0149  -11.9191  -44.1730 H         1 UNK         0.0600 
    183 H183        2.4702  -11.7821  -45.8385 H         1 UNK         0.0600 
    184 H184        0.1095  -13.0344  -45.9623 H         1 UNK         0.3000 
    185 H185       -3.3449  -12.4389  -46.0320 H         1 UNK         0.0600 
    186 H186       -3.1629  -11.8430  -48.4379 H         1 UNK         0.0600 
    187 H187       -2.7592  -10.4587  -47.4356 H         1 UNK         0.0600 
    188 H188       -1.4763  -11.3734  -48.2187 H         1 UNK         0.0600 
    189 H189       -1.5334  -13.7934  -47.8293 H         1 UNK         0.3000 
    190 H190       -1.0472  -20.3507  -45.0657 H         1 UNK         0.3000 
    191 H191       -3.3317  -20.3836  -46.6869 H         1 UNK         0.0600 
    192 H192       -3.4347  -20.1876  -43.6368 H         1 UNK         0.0600 
    193 H193       -4.4438  -19.3789  -44.8199 H         1 UNK         0.0600 
    194 H194       -2.7673  -18.8914  -44.6052 H         1 UNK         0.0600 
    195 H195       -2.3697  -22.6381  -44.0945 H         1 UNK         0.3000 
    196 H196       -4.7879  -24.2262  -44.1912 H         1 UNK         0.0600 
    197 H197       -3.5016  -25.7472  -42.7012 H         1 UNK         0.0600 
    198 H198       -3.3828  -24.0822  -42.1501 H         1 UNK         0.0600 
    199 H199       -2.0303  -24.8292  -42.9963 H         1 UNK         0.0600 
    200 H200       -1.5187  -24.5094  -45.6278 H         1 UNK         0.3000 
    201 H201       -1.9011  -27.1141  -46.7244 H         1 UNK         0.0600 
    202 H202        0.3286  -26.1885  -46.1815 H         1 UNK         0.0600 
    203 H203        0.1427  -24.9416  -47.4134 H         1 UNK         0.0600 
    204 H204        0.2549  -26.6344  -47.8796 H         1 UNK         0.0600 
    205 H205       -2.2011  -23.8401  -48.2017 H         1 UNK         0.3000 
    206 H206       -2.4467  -24.7879  -50.8769 H         1 UNK         0.0600 
    207 H207       -1.6415  -22.5145  -50.3386 H         1 UNK         0.0600 
    208 H208       -3.0660  -22.4169  -51.3633 H         1 UNK         0.0600 
    209 H209       -3.2035  -22.0911  -49.6409 H         1 UNK         0.0600 
    210 H210       -4.1188  -25.4742  -52.0202 H         1 UNK         0.3000 
    211 H211       -6.9269  -25.3349  -51.1302 H         1 UNK         0.0600 
    212 H212       -5.6242  -26.3197  -53.7411 H         1 UNK         0.0600 
    213 H213       -7.3143  -26.5218  -53.2948 H         1 UNK         0.0600 
    214 H214       -6.0665  -27.3474  -52.3789 H         1 UNK         0.0600 
    215 H215       -8.4892  -24.3549  -52.7940 H         1 UNK         0.3000 
    216 H216       -8.0408  -21.6242  -53.1339 H         1 UNK         0.0600 
    217 H217      -10.1447  -21.6920  -54.4873 H         1 UNK         0.0600 
    218 H218      -10.2888  -22.6432  -53.0185 H         1 UNK         0.0600 
    219 H219      -10.0426  -23.4467  -54.5696 H         1 UNK         0.0600 
    220 H220       -7.4621  -24.2358  -55.4682 H         1 UNK         0.3000 
    221 H221       -6.8819  -22.5376  -57.7276 H         1 UNK         0.0600 
    222 H222       -6.1896  -25.4735  -57.1730 H         1 UNK         0.0600 
    223 H223       -7.6379  -24.8868  -57.9920 H         1 UNK         0.0600 
    224 H224       -6.0606  -24.6698  -58.7330 H         1 UNK         0.0600 
    225 H225       -4.9693  -23.7396  -55.0140 H         1 UNK         0.3000 
    226 H226       -2.3717  -23.1072  -56.2431 H         1 UNK         0.0600 
    227 H227       -2.5929  -25.0768  -54.7257 H         1 UNK         0.0600 
    228 H228       -1.4679  -23.8921  -54.0778 H         1 UNK         0.0600 
    229 H229       -3.0855  -24.0166  -53.4057 H         1 UNK         0.0600 
    230 H230       -4.6117  -21.8222  -53.7896 H         1 UNK         0.3000 
    231 H231       -3.0750  -19.6261  -52.8890 H         1 UNK         0.0600 
    232 H232       -5.3244  -18.8305  -52.0375 H         1 UNK         0.0600 
    233 H233       -5.0138  -20.5192  -51.6478 H         1 UNK         0.0600 
    234 H234       -6.1040  -20.0987  -52.9678 H         1 UNK         0.0600 
    235 H235       -4.9548  -20.0159  -55.8056 H         1 UNK         0.3000 
    236 H236       -5.1289  -17.1992  -56.5237 H         1 UNK         0.0600 
    237 H237       -6.8321  -18.8381  -57.2727 H         1 UNK         0.0600 
    238 H238       -6.0128  -18.1345  -58.6580 H         1 UNK         0.0600 
    239 H239       -5.6040  -19.7647  -58.1315 H         1 UNK         0.0600 
    240 H240       -2.6759  -17.1994  -55.8584 H         1 UNK         0.3000 
    241 H241       -0.6810  -18.1215  -57.6119 H         1 UNK         0.0600 
    242 H242       -0.0354  -15.7184  -60.1571 H         1 UNK         0.3800 
    243 H243        0.5082  -17.1727  -59.3710 H         1 UNK         0.3800 
    244 H244        0.8319  -16.5219  -56.4383 H         1 UNK         0.0800 
    245 H245       -0.5414  -15.7055  -55.7396 H         1 UNK         0.0800 
    246 H246        0.3794  -16.0068  -53.2287 H         1 UNK         0.0800 
    247 H247       -1.3453  -16.1771  -53.4692 H         1 UNK         0.0800 
@<TRIPOS>BOND
     1    1    2 1    
     2    1  127 1    
     3    1  128 1    
     4    1  129 1    
     5    2    3 2    
     6    2    4 am   BACKBONE|DICT|INTERRES
     7    4    5 1    
     8    4  130 1    
     9    5    6 1    
    10    5   65 1    
    11    5  131 1    
    12    6    7 1    
    13    6  132 1    
    14    6  133 1    
    15    7    8 1    
    16    8    9 1    
    17    8  134 1    
    18    8  135 1    
    19    9   10 ar   
    20    9   14 ar   
    21   10   11 ar   
    22   10  136 1    
    23   11   12 ar   
    24   11  126 1    
    25   12   13 ar   
    26   12  137 1    
    27   13   14 ar   
    28   13   15 1    
    29   14  138 1    
    30   15   16 1    
    31   15  139 1    
    32   15  140 1    
    33   16   17 1    
    34   17   18 1    
    35   17  141 1    
    36   17  142 1    
    37   18   19 1    
    38   18   67 1    
    39   18  143 1    
    40   19   20 am   BACKBONE|DICT|INTERRES
    41   19  144 1    
    42   20   21 2    
    43   20   22 1    
    44   22   23 1    
    45   22   24 1    
    46   22  145 1    
    47   23  146 1    
    48   23  147 1    
    49   23  148 1    
    50   24   25 am   BACKBONE|DICT|INTERRES
    51   24  149 1    
    52   25   26 2    
    53   25   27 1    
    54   27   28 1    
    55   27   29 1    
    56   27  150 1    
    57   28  151 1    
    58   28  152 1    
    59   28  153 1    
    60   29   30 am   BACKBONE|DICT|INTERRES
    61   29  154 1    
    62   30   31 2    
    63   30   32 1    
    64   32   33 1    
    65   32   34 1    
    66   32  155 1    
    67   33  156 1    
    68   33  157 1    
    69   33  158 1    
    70   34   35 am   BACKBONE|DICT|INTERRES
    71   34  159 1    
    72   35   36 2    
    73   35   37 1    
    74   37   38 1    
    75   37   39 1    
    76   37  160 1    
    77   38  161 1    
    78   38  162 1    
    79   38  163 1    
    80   39   40 am   BACKBONE|DICT|INTERRES
    81   39  164 1    
    82   40   41 2    
    83   40   42 1    
    84   42   43 1    
    85   42   44 1    
    86   42  165 1    
    87   43  166 1    
    88   43  167 1    
    89   43  168 1    
    90   44   45 am   BACKBONE|DICT|INTERRES
    91   44  169 1    
    92   45   46 2    
    93   45   47 1    
    94   47   48 1    
    95   47   49 1    
    96   47  170 1    
    97   48  171 1    
    98   48  172 1    
    99   48  173 1    
   100   49   50 am   BACKBONE|DICT|INTERRES
   101   49  174 1    
   102   50   51 2    
   103   50   52 1    
   104   52   53 1    
   105   52   54 1    
   106   52  175 1    
   107   53  176 1    
   108   53  177 1    
   109   53  178 1    
   110   54   55 am   BACKBONE|DICT|INTERRES
   111   54  179 1    
   112   55   56 2    
   113   55   57 1    
   114   57   58 1    
   115   57   59 1    
   116   57  180 1    
   117   58  181 1    
   118   58  182 1    
   119   58  183 1    
   120   59   60 am   BACKBONE|DICT|INTERRES
   121   59  184 1    
   122   60   61 2    
   123   60   62 1    
   124   62   63 1    
   125   62   64 1    
   126   62  185 1    
   127   63  186 1    
   128   63  187 1    
   129   63  188 1    
   130   64   65 am   BACKBONE|DICT|INTERRES
   131   64  189 1    
   132   65   66 2    
   133   67   68 2    
   134   67   69 am   BACKBONE|DICT|INTERRES
   135   69   70 1    
   136   69  190 1    
   137   70   71 1    
   138   70   72 1    
   139   70  191 1    
   140   71  192 1    
   141   71  193 1    
   142   71  194 1    
   143   72   73 2    
   144   72   74 am   BACKBONE|DICT|INTERRES
   145   74   75 1    
   146   74  195 1    
   147   75   76 1    
   148   75   77 1    
   149   75  196 1    
   150   76  197 1    
   151   76  198 1    
   152   76  199 1    
   153   77   78 2    
   154   77   79 am   BACKBONE|DICT|INTERRES
   155   79   80 1    
   156   79  200 1    
   157   80   81 1    
   158   80   82 1    
   159   80  201 1    
   160   81  202 1    
   161   81  203 1    
   162   81  204 1    
   163   82   83 2    
   164   82   84 am   BACKBONE|DICT|INTERRES
   165   84   85 1    
   166   84  205 1    
   167   85   86 1    
   168   85   87 1    
   169   85  206 1    
   170   86  207 1    
   171   86  208 1    
   172   86  209 1    
   173   87   88 2    
   174   87   89 am   BACKBONE|DICT|INTERRES
   175   89   90 1    
   176   89  210 1    
   177   90   91 1    
   178   90   92 1    
   179   90  211 1    
   180   91  212 1    
   181   91  213 1    
   182   91  214 1    
   183   92   93 2    
   184   92   94 am   BACKBONE|DICT|INTERRES
   185   94   95 1    
   186   94  215 1    
   187   95   96 1    
   188   95   97 1    
   189   95  216 1    
   190   96  217 1    
   191   96  218 1    
   192   96  219 1    
   193   97   98 2    
   194   97   99 am   BACKBONE|DICT|INTERRES
   195   99  100 1    
   196   99  220 1    
   197  100  101 1    
   198  100  102 1    
   199  100  221 1    
   200  101  222 1    
   201  101  223 1    
   202  101  224 1    
   203  102  103 2    
   204  102  104 am   BACKBONE|DICT|INTERRES
   205  104  105 1    
   206  104  225 1    
   207  105  106 1    
   208  105  107 1    
   209  105  226 1    
   210  106  227 1    
   211  106  228 1    
   212  106  229 1    
   213  107  108 2    
   214  107  109 am   BACKBONE|DICT|INTERRES
   215  109  110 1    
   216  109  230 1    
   217  110  111 1    
   218  110  112 1    
   219  110  231 1    
   220  111  232 1    
   221  111  233 1    
   222  111  234 1    
   223  112  113 2    
   224  112  114 am   BACKBONE|DICT|INTERRES
   225  114  115 1    
   226  114  235 1    
   227  115  116 1    
   228  115  117 1    
   229  115  236 1    
   230  116  237 1    
   231  116  238 1    
   232  116  239 1    
   233  117  118 2    
   234  117  119 am   BACKBONE|DICT|INTERRES
   235  119  120 1    
   236  119  240 1    
   237  120  121 1    
   238  120  124 1    
   239  120  241 1    
   240  121  122 am   BACKBONE|DICT|INTERRES
   241  121  123 2    
   242  122  242 1    
   243  122  243 1    
   244  124  125 1    
   245  124  244 1    
   246  124  245 1    
   247  125  126 1    
   248  126  246 1    
   249  126  247 1    
@<TRIPOS>SUBSTRUCTURE
     1 UNK         1 GROUP             0       ****    0 ROOT    
