@<TRIPOS>MOLECULE
3R540
247   249    1
SMALL
USER_CHARGES


@<TRIPOS>ATOM
      1 CA          0.1353  -14.4086  -41.3429 C.3       0 UNK        -0.1800 
      2 C          -0.9427  -14.0408  -42.3528 C.2       0 UNK         0.5000 
      3 O          -2.0980  -13.8443  -41.9749 O.2       0 UNK        -0.5000 
      4 N          -0.5698  -13.9638  -43.6348 N.am      1 UNK        -0.5000 
      5 CA         -1.4343  -13.5685  -44.7486 C.3       1 UNK         0.1400 
      6 C6         -0.8057  -13.9881  -46.1052 C.3       23 UNK        -0.0398 
      7 S7         -2.0723  -14.3015  -47.3824 S.3       23 UNK        -0.2404 
      8 C8         -1.5008  -15.8685  -48.1099 C.3       23 UNK        -0.0205 
      9 C9         -2.6405  -16.6024  -48.7956 C.ar      23 UNK        -0.0193 
     10 C10        -3.0068  -16.2830  -50.1053 C.ar      23 UNK        -0.1150 
     11 C11        -4.0682  -16.9482  -50.7271 C.ar      23 UNK        -0.0193 
     12 C12        -4.7512  -17.9551  -50.0351 C.ar      23 UNK        -0.1150 
     13 C13        -4.3914  -18.2836  -48.7234 C.ar      23 UNK        -0.0193 
     14 C14        -3.3403  -17.5982  -48.1106 C.ar      23 UNK        -0.1150 
     15 C15        -5.1626  -19.3431  -47.9470 C.3       23 UNK        -0.0205 
     16 S16        -4.5450  -21.0281  -48.2520 S.3       23 UNK        -0.2404 
     17 C17        -2.9256  -21.0068  -47.4075 C.3       23 UNK        -0.0398 
     18 CA         -2.2624  -22.4053  -47.3050 C.3       11 UNK         0.1400 
     19 N          -0.8569  -22.3046  -46.8982 N.am      11 UNK        -0.5000 
     20 C           0.0029  -23.3286  -46.7928 C.2       10 UNK         0.5000 
     21 O          -0.2719  -24.4892  -47.0888 O.2       10 UNK        -0.5000 
     22 CA          1.3863  -23.0168  -46.1955 C.3       10 UNK         0.1400 
     23 CB          2.3297  -22.4139  -47.2472 C.3       10 UNK        -0.1800 
     24 N           1.2924  -22.1280  -45.0375 N.am      10 UNK        -0.5000 
     25 C           0.7408  -22.4718  -43.8644 C.2       9 UNK         0.5000 
     26 O           0.2927  -23.5912  -43.6212 O.2       9 UNK        -0.5000 
     27 CA          0.6270  -21.3634  -42.8036 C.3       9 UNK         0.1400 
     28 CB          1.9393  -21.2224  -42.0187 C.3       9 UNK        -0.1800 
     29 N           0.2675  -20.0764  -43.3986 N.am      9 UNK        -0.5000 
     30 C          -0.9308  -19.8151  -43.9427 C.2       8 UNK         0.5000 
     31 O          -1.8677  -20.6138  -43.9466 O.2       8 UNK        -0.5000 
     32 CA         -1.0932  -18.4633  -44.6624 C.3       8 UNK         0.1400 
     33 CB         -1.5679  -17.3781  -43.6898 C.3       8 UNK        -0.1800 
     34 N           0.1303  -18.0221  -45.3351 N.am      8 UNK        -0.5000 
     35 C           0.7220  -18.6963  -46.3307 C.2       7 UNK         0.5000 
     36 O           0.2183  -19.6855  -46.8588 O.2       7 UNK        -0.5000 
     37 CA          2.1191  -18.2362  -46.7922 C.3       7 UNK         0.1400 
     38 CB          2.0361  -17.5828  -48.1787 C.3       7 UNK        -0.1800 
     39 N           2.8223  -17.3245  -45.8855 N.am      7 UNK        -0.5000 
     40 C           3.1429  -17.5403  -44.6008 C.2       6 UNK         0.5000 
     41 O           2.8057  -18.5479  -43.9780 O.2       6 UNK        -0.5000 
     42 CA          3.9688  -16.4459  -43.8891 C.3       6 UNK         0.1400 
     43 CB          5.3476  -16.9908  -43.4847 C.3       6 UNK        -0.1800 
     44 N           4.1590  -15.2339  -44.6962 N.am      6 UNK        -0.5000 
     45 C           3.2149  -14.3125  -44.9211 C.2       5 UNK         0.5000 
     46 O           2.0756  -14.3768  -44.4542 O.2       5 UNK        -0.5000 
     47 CA          3.5811  -13.1833  -45.8989 C.3       5 UNK         0.1400 
     48 CB          3.2868  -13.6223  -47.3427 C.3       5 UNK        -0.1800 
     49 N           2.8133  -11.9740  -45.6189 N.am      5 UNK        -0.5000 
     50 C           3.0743  -11.1013  -44.6380 C.2       4 UNK         0.5000 
     51 O           4.0516  -11.1932  -43.8931 O.2       4 UNK        -0.5000 
     52 CA          2.0655   -9.9494  -44.4379 C.3       4 UNK         0.1400 
     53 CB          2.7518   -8.5995  -44.1419 C.3       4 UNK        -0.1800 
     54 N           1.0714   -9.8352  -45.5156 N.am      4 UNK        -0.5000 
     55 C           1.2477   -9.4028  -46.7755 C.2       3 UNK         0.5000 
     56 O           2.3198   -8.9762  -47.2042 O.2       3 UNK        -0.5000 
     57 CA          0.0449   -9.5017  -47.7434 C.3       3 UNK         0.1400 
     58 CB          0.3982  -10.3830  -48.9540 C.3       3 UNK        -0.1800 
     59 N          -1.1644  -10.0483  -47.1246 N.am      3 UNK        -0.5000 
     60 C          -2.0166   -9.3765  -46.3381 C.2       2 UNK         0.5000 
     61 O          -1.9319   -8.1698  -46.1106 O.2       2 UNK        -0.5000 
     62 CA         -3.1220  -10.2109  -45.6542 C.3       2 UNK         0.1400 
     63 CB         -4.4268  -10.1396  -46.4614 C.3       2 UNK        -0.1800 
     64 N          -2.7576  -11.6209  -45.4574 N.am      2 UNK        -0.5000 
     65 C          -1.7298  -12.0523  -44.7129 C.2       1 UNK         0.5000 
     66 O          -0.9936  -11.2914  -44.0803 O.2       1 UNK        -0.5000 
     67 C          -3.0502  -23.3541  -46.3752 C.2       11 UNK         0.5000 
     68 O          -3.7276  -24.2601  -46.8619 O.2       11 UNK        -0.5000 
     69 N          -2.9029  -23.1634  -45.0552 N.am      12 UNK        -0.5000 
     70 CA         -3.5167  -24.0003  -44.0235 C.3       12 UNK         0.1400 
     71 CB         -3.2866  -23.3631  -42.6450 C.3       12 UNK        -0.1800 
     72 C          -3.0173  -25.4577  -44.0408 C.2       12 UNK         0.5000 
     73 O          -3.8220  -26.3711  -43.8554 O.2       12 UNK        -0.5000 
     74 N          -1.7106  -25.6507  -44.2693 N.am      13 UNK        -0.5000 
     75 CA         -1.0767  -26.9644  -44.3806 C.3       13 UNK         0.1400 
     76 CB          0.4505  -26.8093  -44.3179 C.3       13 UNK        -0.1800 
     77 C          -1.4953  -27.7230  -45.6530 C.2       13 UNK         0.5000 
     78 O          -1.7567  -28.9245  -45.5799 O.2       13 UNK        -0.5000 
     79 N          -1.5497  -27.0149  -46.7897 N.am      14 UNK        -0.5000 
     80 CA         -1.9647  -27.5525  -48.0842 C.3       14 UNK         0.1400 
     81 CB         -1.5971  -26.5610  -49.1986 C.3       14 UNK        -0.1800 
     82 C          -3.4628  -27.8979  -48.1194 C.2       14 UNK         0.5000 
     83 O          -3.8150  -29.0030  -48.5344 O.2       14 UNK        -0.5000 
     84 N          -4.3040  -26.9553  -47.6681 N.am      15 UNK        -0.5000 
     85 CA         -5.7640  -27.0006  -47.5115 C.3       15 UNK         0.1400 
     86 CB         -6.1764  -28.0665  -46.4791 C.3       15 UNK        -0.1800 
     87 C          -6.5592  -27.1571  -48.8241 C.2       15 UNK         0.5000 
     88 O          -7.4674  -26.3670  -49.0829 O.2       15 UNK        -0.5000 
     89 N          -6.2091  -28.1660  -49.6291 N.am      16 UNK        -0.5000 
     90 CA         -6.7992  -28.4695  -50.9342 C.3       16 UNK         0.1400 
     91 CB         -6.5223  -29.9447  -51.2634 C.3       16 UNK        -0.1800 
     92 C          -6.2741  -27.5571  -52.0608 C.2       16 UNK         0.5000 
     93 O          -6.8714  -27.5205  -53.1375 O.2       16 UNK        -0.5000 
     94 N          -5.1754  -26.8430  -51.7974 N.am      17 UNK        -0.5000 
     95 CA         -4.5702  -25.8403  -52.6635 C.3       17 UNK         0.1400 
     96 CB         -3.3138  -26.4321  -53.3228 C.3       17 UNK        -0.1800 
     97 C          -4.2182  -24.6190  -51.8041 C.2       17 UNK         0.5000 
     98 O          -4.0610  -24.7509  -50.5882 O.2       17 UNK        -0.5000 
     99 N          -4.0923  -23.4547  -52.4506 N.am      18 UNK        -0.5000 
    100 CA        -3.8090  -22.1805  -51.7862 C.3       18 UNK         0.1400 
    101 CB        -4.2741  -21.0316  -52.6915 C.3       18 UNK        -0.1800 
    102 C         -2.3290  -21.9926  -51.3990 C.2       18 UNK         0.5000 
    103 O         -2.0262  -21.0982  -50.6108 O.2       18 UNK        -0.5000 
    104 N         -1.4314  -22.8037  -51.9804 N.am      19 UNK        -0.5000 
    105 CA         0.0343  -22.8043  -51.8483 C.3       19 UNK         0.1400 
    106 CB         0.4718  -23.0422  -50.3910 C.3       19 UNK        -0.1800 
    107 C          0.7232  -21.5584  -52.4457 C.2       19 UNK         0.5000 
    108 O          1.6895  -21.7016  -53.1963 O.2       19 UNK        -0.5000 
    109 N          0.2033  -20.3683  -52.1294 N.am      20 UNK        -0.5000 
    110 CA         0.5386  -19.0910  -52.7513 C.3       20 UNK         0.1400 
    111 CB        -0.0511  -17.9642  -51.8869 C.3       20 UNK        -0.1800 
    112 C          0.0011  -19.0038  -54.1940 C.2       20 UNK         0.5000 
    113 O         -0.9195  -19.7388  -54.5617 O.2       20 UNK        -0.5000 
    114 N          0.5772  -18.0871  -54.9833 N.am      21 UNK        -0.5000 
    115 CA         0.1575  -17.8091  -56.3603 C.3       21 UNK         0.1400 
    116 CB         1.2346  -16.9647  -57.0588 C.3       21 UNK        -0.1800 
    117 C         -1.2145  -17.1110  -56.4374 C.2       21 UNK         0.5000 
    118 O         -1.9826  -17.3866  -57.3598 O.2       21 UNK        -0.5000 
    119 N         -1.4911  -16.2349  -55.4603 N.am      22 UNK        -0.5000 
    120 CA        -2.7670  -15.5205  -55.2562 C.3       22 UNK         0.1400 
    121 C         -3.1470  -14.5037  -56.3779 C.2       22 UNK         0.5000 
    122 N         -2.2161  -14.0691  -57.2186 N.am      22 UNK        -0.7600 
    123 O         -4.2927  -14.0710  -56.4714 O.2       22 UNK        -0.5000 
    124 C124       -3.9388  -16.4758  -54.8873 C.3       23 UNK        -0.0398 
    125 S125       -3.5746  -17.4673  -53.3984 S.3       23 UNK        -0.2404 
    126 C126       -4.4938  -16.5464  -52.1309 C.3       23 UNK        -0.0205 
    127 H127        1.1015  -14.5688  -41.8222 H         1 UNK         0.0600 
    128 H128        0.2486  -13.6115  -40.6081 H         1 UNK         0.0600 
    129 H129       -0.1388  -15.3235  -40.8178 H         1 UNK         0.0600 
    130 H130        0.4118  -14.1021  -43.8723 H         1 UNK         0.3000 
    131 H131       -2.3828  -14.0943  -44.6186 H         1 UNK         0.0600 
    132 H132       -0.0931  -13.2471  -46.4712 H         1 UNK         0.0800 
    133 H133       -0.2255  -14.9019  -45.9724 H         1 UNK         0.0800 
    134 H134       -0.6998  -15.6678  -48.8227 H         1 UNK         0.0800 
    135 H135       -1.0777  -16.5078  -47.3365 H         1 UNK         0.0800 
    136 H136       -2.4751  -15.5051  -50.6350 H         1 UNK         0.1150 
    137 H137       -5.5713  -18.4733  -50.5117 H         1 UNK         0.1150 
    138 H138       -3.0735  -17.8344  -47.0929 H         1 UNK         0.1150 
    139 H139       -5.1311  -19.1324  -46.8769 H         1 UNK         0.0800 
    140 H140       -6.2154  -19.3029  -48.2299 H         1 UNK         0.0800 
    141 H141       -2.2748  -20.3375  -47.9724 H         1 UNK         0.0800 
    142 H142       -3.0420  -20.5580  -46.4207 H         1 UNK         0.0800 
    143 H143       -2.2632  -22.8521  -48.3019 H         1 UNK         0.0600 
    144 H144       -0.5125  -21.3680  -46.7012 H         1 UNK         0.3000 
    145 H145        1.8233  -23.9585  -45.8568 H         1 UNK         0.0600 
    146 H146        3.3007  -22.1708  -46.8157 H         1 UNK         0.0600 
    147 H147        2.5049  -23.1237  -48.0559 H         1 UNK         0.0600 
    148 H148        1.9227  -21.5069  -47.6935 H         1 UNK         0.0600 
    149 H149        1.6057  -21.1774  -45.1620 H         1 UNK         0.3000 
    150 H150       -0.1602  -21.6486  -42.1023 H         1 UNK         0.0600 
    151 H151        2.1999  -22.1597  -41.5254 H         1 UNK         0.0600 
    152 H152        1.8560  -20.4592  -41.2448 H         1 UNK         0.0600 
    153 H153        2.7725  -20.9513  -42.6681 H         1 UNK         0.0600 
    154 H154        1.0119  -19.3913  -43.4807 H         1 UNK         0.3000 
    155 H155       -1.8638  -18.5988  -45.4202 H         1 UNK         0.0600 
    156 H156       -2.4583  -17.6983  -43.1472 H         1 UNK         0.0600 
    157 H157       -0.8024  -17.1336  -42.9526 H         1 UNK         0.0600 
    158 H158       -1.8296  -16.4673  -44.2259 H         1 UNK         0.0600 
    159 H159        0.6171  -17.2336  -44.9356 H         1 UNK         0.3000 
    160 H160        2.7302  -19.1366  -46.8780 H         1 UNK         0.0600 
    161 H161        1.5381  -18.2433  -48.8890 H         1 UNK         0.0600 
    162 H162        1.4809  -16.6451  -48.1500 H         1 UNK         0.0600 
    163 H163        3.0288  -17.3729  -48.5773 H         1 UNK         0.0600 
    164 H164        3.1474  -16.4629  -46.2955 H         1 UNK         0.3000 
    165 H165        3.4287  -16.1766  -42.9789 H         1 UNK         0.0600 
    166 H166        5.9371  -17.2809  -44.3553 H         1 UNK         0.0600 
    167 H167        5.9165  -16.2480  -42.9252 H         1 UNK         0.0600 
    168 H168        5.2506  -17.8701  -42.8463 H         1 UNK         0.0600 
    169 H169        5.0673  -15.1216  -45.1242 H         1 UNK         0.3000 
    170 H170        4.6460  -12.9593  -45.8059 H         1 UNK         0.0600 
    171 H171        3.8830  -14.4927  -47.6191 H         1 UNK         0.0600 
    172 H172        2.2373  -13.8859  -47.4814 H         1 UNK         0.0600 
    173 H173        3.5279  -12.8297  -48.0516 H         1 UNK         0.0600 
    174 H174        1.9770  -11.8320  -46.1616 H         1 UNK         0.3000 
    175 H175        1.4953  -10.2176  -43.5475 H         1 UNK         0.0600 
    176 H176        2.0187   -7.8027  -44.0167 H         1 UNK         0.0600 
    177 H177        3.3319   -8.6523  -43.2200 H         1 UNK         0.0600 
    178 H178        3.4374   -8.3061  -44.9369 H         1 UNK         0.0600 
    179 H179        0.1525  -10.1775  -45.2536 H         1 UNK         0.3000 
    180 H180       -0.1674   -8.4928  -48.1029 H         1 UNK         0.0600 
    181 H181       -0.4276  -10.4265  -49.6644 H         1 UNK         0.0600 
    182 H182        1.2621   -9.9886  -49.4905 H         1 UNK         0.0600 
    183 H183        0.6367  -11.4043  -48.6540 H         1 UNK         0.0600 
    184 H184       -1.3378  -11.0314  -47.2719 H         1 UNK         0.3000 
    185 H185       -3.3015   -9.7721  -44.6705 H         1 UNK         0.0600 
    186 H186       -5.2383  -10.6545  -45.9467 H         1 UNK         0.0600 
    187 H187       -4.7409   -9.1050  -46.6065 H         1 UNK         0.0600 
    188 H188       -4.3145  -10.5903  -47.4484 H         1 UNK         0.0600 
    189 H189       -3.3048  -12.2993  -45.9694 H         1 UNK         0.3000 
    190 H190       -2.3503  -22.3770  -44.7276 H         1 UNK         0.3000 
    191 H191       -4.5921  -24.0194  -44.2119 H         1 UNK         0.0600 
    192 H192       -3.7515  -23.9567  -41.8569 H         1 UNK         0.0600 
    193 H193       -3.7177  -22.3630  -42.5963 H         1 UNK         0.0600 
    194 H194       -2.2246  -23.2806  -42.4119 H         1 UNK         0.0600 
    195 H195       -1.1002  -24.8435  -44.3453 H         1 UNK         0.3000 
    196 H196       -1.3880  -27.5618  -43.5211 H         1 UNK         0.0600 
    197 H197        0.9454  -27.7786  -44.3882 H         1 UNK         0.0600 
    198 H198        0.7616  -26.3532  -43.3780 H         1 UNK         0.0600 
    199 H199        0.8263  -26.1884  -45.1315 H         1 UNK         0.0600 
    200 H200       -1.2619  -26.0389  -46.7767 H         1 UNK         0.3000 
    201 H201       -1.4082  -28.4752  -48.2614 H         1 UNK         0.0600 
    202 H202       -0.5176  -26.4234  -49.2606 H         1 UNK         0.0600 
    203 H203       -2.0456  -25.5814  -49.0289 H         1 UNK         0.0600 
    204 H204       -1.9376  -26.9168  -50.1713 H         1 UNK         0.0600 
    205 H205       -3.8987  -26.0620  -47.3947 H         1 UNK         0.3000 
    206 H206       -6.0369  -26.0283  -47.0982 H         1 UNK         0.0600 
    207 H207       -5.6808  -27.8974  -45.5229 H         1 UNK         0.0600 
    208 H208       -7.2515  -28.0377  -46.2982 H         1 UNK         0.0600 
    209 H209       -5.9282  -29.0753  -46.8101 H         1 UNK         0.0600 
    210 H210       -5.4187  -28.7370  -49.3356 H         1 UNK         0.3000 
    211 H211       -7.8801  -28.3280  -50.8724 H         1 UNK         0.0600 
    212 H212       -5.4524  -30.1470  -51.3288 H         1 UNK         0.0600 
    213 H213       -6.9696  -30.2247  -52.2181 H         1 UNK         0.0600 
    214 H214       -6.9424  -30.6036  -50.5032 H         1 UNK         0.0600 
    215 H215       -4.8025  -26.8635  -50.8576 H         1 UNK         0.3000 
    216 H216       -5.2765  -25.5269  -53.4353 H         1 UNK         0.0600 
    217 H217       -2.8429  -25.7102  -53.9909 H         1 UNK         0.0600 
    218 H218       -3.5607  -27.3113  -53.9182 H         1 UNK         0.0600 
    219 H219       -2.5709  -26.7291  -52.5817 H         1 UNK         0.0600 
    220 H220       -4.2332  -23.4222  -53.4503 H         1 UNK         0.3000 
    221 H221       -4.3964  -22.1387  -50.8687 H         1 UNK         0.0600 
    222 H222       -3.6945  -20.9810  -53.6143 H         1 UNK         0.0600 
    223 H223       -5.3271  -21.1312  -52.9548 H         1 UNK         0.0600 
    224 H224       -4.1596  -20.0762  -52.1793 H         1 UNK         0.0600 
    225 H225       -1.7968  -23.4768  -52.6377 H         1 UNK         0.3000 
    226 H226        0.3773  -23.6604  -52.4314 H         1 UNK         0.0600 
    227 H227        0.0044  -23.9363  -49.9787 H         1 UNK         0.0600 
    228 H228        1.5514  -23.1808  -50.3314 H         1 UNK         0.0600 
    229 H229        0.2160  -22.2025  -49.7442 H         1 UNK         0.0600 
    230 H230       -0.6141  -20.3772  -51.5234 H         1 UNK         0.3000 
    231 H231        1.6254  -18.9900  -52.7762 H         1 UNK         0.0600 
    232 H232        0.1539  -16.9823  -52.3143 H         1 UNK         0.0600 
    233 H233        0.3710  -17.9747  -50.8834 H         1 UNK         0.0600 
    234 H234       -1.1326  -18.0617  -51.7879 H         1 UNK         0.0600 
    235 H235        1.3335  -17.5263  -54.6185 H         1 UNK         0.3000 
    236 H236        0.0756  -18.7601  -56.8912 H         1 UNK         0.0600 
    237 H237        1.3844  -16.0064  -56.5601 H         1 UNK         0.0600 
    238 H238        2.1918  -17.4859  -57.0797 H         1 UNK         0.0600 
    239 H239        0.9570  -16.7569  -58.0932 H         1 UNK         0.0600 
    240 H240       -0.7885  -16.0791  -54.7535 H         1 UNK         0.3000 
    241 H241       -2.5967  -14.8876  -54.3846 H         1 UNK         0.0600 
    242 H242       -2.4644  -13.4039  -57.9343 H         1 UNK         0.3800 
    243 H243       -1.2690  -14.4055  -57.1528 H         1 UNK         0.3800 
    244 H244       -4.1506  -17.1567  -55.7124 H         1 UNK         0.0800 
    245 H245       -4.8608  -15.9179  -54.7167 H         1 UNK         0.0800 
    246 H246       -4.3312  -15.4761  -52.2680 H         1 UNK         0.0800 
    247 H247       -5.5631  -16.7157  -52.2659 H         1 UNK         0.0800 
@<TRIPOS>BOND
     1    1    2 1    
     2    1  127 1    
     3    1  128 1    
     4    1  129 1    
     5    2    3 2    
     6    2    4 am   BACKBONE|DICT|INTERRES
     7    4    5 1    
     8    4  130 1    
     9    5    6 1    
    10    5   65 1    
    11    5  131 1    
    12    6    7 1    
    13    6  132 1    
    14    6  133 1    
    15    7    8 1    
    16    8    9 1    
    17    8  134 1    
    18    8  135 1    
    19    9   10 ar   
    20    9   14 ar   
    21   10   11 ar   
    22   10  136 1    
    23   11   12 ar   
    24   11  126 1    
    25   12   13 ar   
    26   12  137 1    
    27   13   14 ar   
    28   13   15 1    
    29   14  138 1    
    30   15   16 1    
    31   15  139 1    
    32   15  140 1    
    33   16   17 1    
    34   17   18 1    
    35   17  141 1    
    36   17  142 1    
    37   18   19 1    
    38   18   67 1    
    39   18  143 1    
    40   19   20 am   BACKBONE|DICT|INTERRES
    41   19  144 1    
    42   20   21 2    
    43   20   22 1    
    44   22   23 1    
    45   22   24 1    
    46   22  145 1    
    47   23  146 1    
    48   23  147 1    
    49   23  148 1    
    50   24   25 am   BACKBONE|DICT|INTERRES
    51   24  149 1    
    52   25   26 2    
    53   25   27 1    
    54   27   28 1    
    55   27   29 1    
    56   27  150 1    
    57   28  151 1    
    58   28  152 1    
    59   28  153 1    
    60   29   30 am   BACKBONE|DICT|INTERRES
    61   29  154 1    
    62   30   31 2    
    63   30   32 1    
    64   32   33 1    
    65   32   34 1    
    66   32  155 1    
    67   33  156 1    
    68   33  157 1    
    69   33  158 1    
    70   34   35 am   BACKBONE|DICT|INTERRES
    71   34  159 1    
    72   35   36 2    
    73   35   37 1    
    74   37   38 1    
    75   37   39 1    
    76   37  160 1    
    77   38  161 1    
    78   38  162 1    
    79   38  163 1    
    80   39   40 am   BACKBONE|DICT|INTERRES
    81   39  164 1    
    82   40   41 2    
    83   40   42 1    
    84   42   43 1    
    85   42   44 1    
    86   42  165 1    
    87   43  166 1    
    88   43  167 1    
    89   43  168 1    
    90   44   45 am   BACKBONE|DICT|INTERRES
    91   44  169 1    
    92   45   46 2    
    93   45   47 1    
    94   47   48 1    
    95   47   49 1    
    96   47  170 1    
    97   48  171 1    
    98   48  172 1    
    99   48  173 1    
   100   49   50 am   BACKBONE|DICT|INTERRES
   101   49  174 1    
   102   50   51 2    
   103   50   52 1    
   104   52   53 1    
   105   52   54 1    
   106   52  175 1    
   107   53  176 1    
   108   53  177 1    
   109   53  178 1    
   110   54   55 am   BACKBONE|DICT|INTERRES
   111   54  179 1    
   112   55   56 2    
   113   55   57 1    
   114   57   58 1    
   115   57   59 1    
   116   57  180 1    
   117   58  181 1    
   118   58  182 1    
   119   58  183 1    
   120   59   60 am   BACKBONE|DICT|INTERRES
   121   59  184 1    
   122   60   61 2    
   123   60   62 1    
   124   62   63 1    
   125   62   64 1    
   126   62  185 1    
   127   63  186 1    
   128   63  187 1    
   129   63  188 1    
   130   64   65 am   BACKBONE|DICT|INTERRES
   131   64  189 1    
   132   65   66 2    
   133   67   68 2    
   134   67   69 am   BACKBONE|DICT|INTERRES
   135   69   70 1    
   136   69  190 1    
   137   70   71 1    
   138   70   72 1    
   139   70  191 1    
   140   71  192 1    
   141   71  193 1    
   142   71  194 1    
   143   72   73 2    
   144   72   74 am   BACKBONE|DICT|INTERRES
   145   74   75 1    
   146   74  195 1    
   147   75   76 1    
   148   75   77 1    
   149   75  196 1    
   150   76  197 1    
   151   76  198 1    
   152   76  199 1    
   153   77   78 2    
   154   77   79 am   BACKBONE|DICT|INTERRES
   155   79   80 1    
   156   79  200 1    
   157   80   81 1    
   158   80   82 1    
   159   80  201 1    
   160   81  202 1    
   161   81  203 1    
   162   81  204 1    
   163   82   83 2    
   164   82   84 am   BACKBONE|DICT|INTERRES
   165   84   85 1    
   166   84  205 1    
   167   85   86 1    
   168   85   87 1    
   169   85  206 1    
   170   86  207 1    
   171   86  208 1    
   172   86  209 1    
   173   87   88 2    
   174   87   89 am   BACKBONE|DICT|INTERRES
   175   89   90 1    
   176   89  210 1    
   177   90   91 1    
   178   90   92 1    
   179   90  211 1    
   180   91  212 1    
   181   91  213 1    
   182   91  214 1    
   183   92   93 2    
   184   92   94 am   BACKBONE|DICT|INTERRES
   185   94   95 1    
   186   94  215 1    
   187   95   96 1    
   188   95   97 1    
   189   95  216 1    
   190   96  217 1    
   191   96  218 1    
   192   96  219 1    
   193   97   98 2    
   194   97   99 am   BACKBONE|DICT|INTERRES
   195   99  100 1    
   196   99  220 1    
   197  100  101 1    
   198  100  102 1    
   199  100  221 1    
   200  101  222 1    
   201  101  223 1    
   202  101  224 1    
   203  102  103 2    
   204  102  104 am   BACKBONE|DICT|INTERRES
   205  104  105 1    
   206  104  225 1    
   207  105  106 1    
   208  105  107 1    
   209  105  226 1    
   210  106  227 1    
   211  106  228 1    
   212  106  229 1    
   213  107  108 2    
   214  107  109 am   BACKBONE|DICT|INTERRES
   215  109  110 1    
   216  109  230 1    
   217  110  111 1    
   218  110  112 1    
   219  110  231 1    
   220  111  232 1    
   221  111  233 1    
   222  111  234 1    
   223  112  113 2    
   224  112  114 am   BACKBONE|DICT|INTERRES
   225  114  115 1    
   226  114  235 1    
   227  115  116 1    
   228  115  117 1    
   229  115  236 1    
   230  116  237 1    
   231  116  238 1    
   232  116  239 1    
   233  117  118 2    
   234  117  119 am   BACKBONE|DICT|INTERRES
   235  119  120 1    
   236  119  240 1    
   237  120  121 1    
   238  120  124 1    
   239  120  241 1    
   240  121  122 am   BACKBONE|DICT|INTERRES
   241  121  123 2    
   242  122  242 1    
   243  122  243 1    
   244  124  125 1    
   245  124  244 1    
   246  124  245 1    
   247  125  126 1    
   248  126  246 1    
   249  126  247 1    
@<TRIPOS>SUBSTRUCTURE
     1 UNK         1 GROUP             0       ****    0 ROOT    
