@<TRIPOS>MOLECULE
3R540
247   249    1
SMALL
USER_CHARGES


@<TRIPOS>ATOM
      1 CA          0.1188  -15.4825  -48.0142 C.3       0 UNK        -0.1800 
      2 C           1.2903  -14.8270  -48.7263 C.2       0 UNK         0.5000 
      3 O           1.2291  -13.6363  -49.0278 O.2       0 UNK        -0.5000 
      4 N           2.3591  -15.5925  -48.9845 N.am      1 UNK        -0.5000 
      5 CA          3.5102  -15.2014  -49.8126 C.3       1 UNK         0.1400 
      6 C6          4.4901  -16.3764  -50.0740 C.3       23 UNK        -0.0398 
      7 S7          3.7162  -17.9989  -50.4144 S.3       23 UNK        -0.2404 
      8 C8          2.9511  -17.7630  -52.0522 C.3       23 UNK        -0.0205 
      9 C9          1.5725  -17.1262  -51.9486 C.ar      23 UNK        -0.0193 
     10 C10         1.3282  -15.8690  -52.5047 C.ar      23 UNK        -0.1150 
     11 C11         0.0697  -15.2722  -52.3907 C.ar      23 UNK        -0.0193 
     12 C12        -0.9476  -15.9490  -51.7137 C.ar      23 UNK        -0.1150 
     13 C13        -0.7323  -17.2198  -51.1707 C.ar      23 UNK        -0.0193 
     14 C14         0.5368  -17.8003  -51.2955 C.ar      23 UNK        -0.1150 
     15 C15        -1.8992  -17.9101  -50.4609 C.3       23 UNK        -0.0205 
     16 S16        -1.7243  -19.7101  -50.2075 S.3       23 UNK        -0.2404 
     17 C17        -0.9361  -19.7666  -48.5608 C.3       23 UNK        -0.0398 
     18 CA         -0.6800  -21.1998  -48.0264 C.3       11 UNK         0.1400 
     19 N          -0.0063  -21.1746  -46.7252 N.am      11 UNK        -0.5000 
     20 C           0.4368  -22.2486  -46.0553 C.2       10 UNK         0.5000 
     21 O           0.3970  -23.3975  -46.4945 O.2       10 UNK        -0.5000 
     22 CA          0.9605  -22.0067  -44.6278 C.3       10 UNK         0.1400 
     23 CB          2.4036  -21.4820  -44.6530 C.3       10 UNK        -0.1800 
     24 N           0.1086  -21.0927  -43.8635 N.am      10 UNK        -0.5000 
     25 C          -1.1684  -21.3439  -43.5379 C.2       9 UNK         0.5000 
     26 O          -1.7461  -22.3965  -43.8062 O.2       9 UNK        -0.5000 
     27 CA         -1.9496  -20.2166  -42.8391 C.3       9 UNK         0.1400 
     28 CB         -1.6199  -20.1668  -41.3400 C.3       9 UNK        -0.1800 
     29 N          -1.7087  -18.9073  -43.4454 N.am      9 UNK        -0.5000 
     30 C          -2.0382  -18.5810  -44.7034 C.2       8 UNK         0.5000 
     31 O          -2.6368  -19.3347  -45.4703 O.2       8 UNK        -0.5000 
     32 CA         -1.5649  -17.2076  -45.2122 C.3       8 UNK         0.1400 
     33 CB         -2.4988  -16.0847  -44.7399 C.3       8 UNK        -0.1800 
     34 N          -0.1906  -16.9114  -44.8074 N.am      8 UNK        -0.5000 
     35 C           0.8827  -17.6113  -45.2009 C.2       7 UNK         0.5000 
     36 O           0.8341  -18.5384  -46.0078 O.2       7 UNK        -0.5000 
     37 CA          2.2277  -17.2400  -44.5560 C.3       7 UNK         0.1400 
     38 CB          2.8863  -16.0599  -45.2862 C.3       7 UNK        -0.1800 
     39 N           2.0780  -16.9291  -43.1347 N.am      7 UNK        -0.5000 
     40 C           1.8037  -17.8430  -42.1926 C.2       6 UNK         0.5000 
     41 O           1.6886  -19.0465  -42.4227 O.2       6 UNK        -0.5000 
     42 CA          1.5796  -17.3178  -40.7627 C.3       6 UNK         0.1400 
     43 CB          2.9206  -17.1385  -40.0360 C.3       6 UNK        -0.1800 
     44 N           0.8425  -16.0535  -40.7393 N.am      6 UNK        -0.5000 
     45 C          -0.4377  -15.9152  -41.1133 C.2       5 UNK         0.5000 
     46 O          -1.1482  -16.8527  -41.4729 O.2       5 UNK        -0.5000 
     47 CA         -0.9984  -14.4803  -41.1440 C.3       5 UNK         0.1400 
     48 CB         -1.5631  -14.0913  -39.7699 C.3       5 UNK        -0.1800 
     49 N          -0.0061  -13.4855  -41.5638 N.am      5 UNK        -0.5000 
     50 C           0.5870  -13.4693  -42.7644 C.2       4 UNK         0.5000 
     51 O           0.3556  -14.2951  -43.6513 O.2       4 UNK        -0.5000 
     52 CA          1.6774  -12.4066  -42.9721 C.3       4 UNK         0.1400 
     53 CB          3.0171  -12.9114  -42.4119 C.3       4 UNK        -0.1800 
     54 N           1.8572  -12.1088  -44.3893 N.am      4 UNK        -0.5000 
     55 C           1.0999  -11.2760  -45.1129 C.2       3 UNK         0.5000 
     56 O           0.1702  -10.6233  -44.6354 O.2       3 UNK        -0.5000 
     57 CA          1.4145  -11.1608  -46.6232 C.3       3 UNK         0.1400 
     58 CB          1.4691   -9.6933  -47.0952 C.3       3 UNK        -0.1800 
     59 N           2.6061  -11.9046  -47.0618 N.am      3 UNK        -0.5000 
     60 C           3.8924  -11.6817  -46.7433 C.2       2 UNK         0.5000 
     61 O           4.2667  -10.7410  -46.0433 O.2       2 UNK        -0.5000 
     62 CA          4.9359  -12.7066  -47.2360 C.3       2 UNK         0.1400 
     63 CB          5.7423  -13.2690  -46.0522 C.3       2 UNK        -0.1800 
     64 N           4.3215  -13.8309  -47.9463 N.am      2 UNK        -0.5000 
     65 C           4.2794  -13.9740  -49.2770 C.2       1 UNK         0.5000 
     66 O           4.7989  -13.1875  -50.0696 O.2       1 UNK        -0.5000 
     67 C          -1.9660  -22.0524  -47.9709 C.2       11 UNK         0.5000 
     68 O          -2.1277  -22.9541  -48.7928 O.2       11 UNK        -0.5000 
     69 N          -2.8292  -21.7882  -46.9794 N.am      12 UNK        -0.5000 
     70 CA         -4.0754  -22.5208  -46.7577 C.3       12 UNK         0.1400 
     71 CB         -4.8866  -21.8467  -45.6426 C.3       12 UNK        -0.1800 
     72 C          -3.8593  -24.0130  -46.4546 C.2       12 UNK         0.5000 
     73 O          -4.6044  -24.8445  -46.9732 O.2       12 UNK        -0.5000 
     74 N          -2.8327  -24.3297  -45.6541 N.am      13 UNK        -0.5000 
     75 CA         -2.4139  -25.6958  -45.3446 C.3       13 UNK         0.1400 
     76 CB         -1.3610  -25.6774  -44.2263 C.3       13 UNK        -0.1800 
     77 C          -1.8911  -26.4435  -46.5837 C.2       13 UNK         0.5000 
     78 O          -2.3213  -27.5699  -46.8332 O.2       13 UNK        -0.5000 
     79 N          -1.0105  -25.7936  -47.3590 N.am      14 UNK        -0.5000 
     80 CA         -0.4438  -26.3218  -48.6035 C.3       14 UNK         0.1400 
     81 CB          0.6597  -25.3782  -49.1052 C.3       14 UNK        -0.1800 
     82 C          -1.5012  -26.5484  -49.6999 C.2       14 UNK         0.5000 
     83 O          -1.4283  -27.5424  -50.4230 O.2       14 UNK        -0.5000 
     84 N          -2.4807  -25.6396  -49.7784 N.am      15 UNK        -0.5000 
     85 CA         -3.6215  -25.7050  -50.6911 C.3       15 UNK         0.1400 
     86 CB         -4.1799  -24.2877  -50.8656 C.3       15 UNK        -0.1800 
     87 C          -4.7316  -26.6765  -50.2360 C.2       15 UNK         0.5000 
     88 O          -5.6817  -26.8822  -50.9913 O.2       15 UNK        -0.5000 
     89 N          -4.5990  -27.2491  -49.0296 N.am      16 UNK        -0.5000 
     90 CA         -5.5164  -28.1873  -48.3777 C.3       16 UNK         0.1400 
     91 CB         -5.6013  -29.5141  -49.1616 C.3       16 UNK        -0.1800 
     92 C          -6.8930  -27.5550  -48.0886 C.2       16 UNK         0.5000 
     93 O          -7.9203  -28.0551  -48.5507 O.2       16 UNK        -0.5000 
     94 N          -6.8670  -26.4597  -47.3164 N.am      17 UNK        -0.5000 
     95 CA         -8.0014  -25.6401  -46.8786 C.3       17 UNK         0.1400 
     96 CB         -9.0158  -26.4599  -46.0525 C.3       17 UNK        -0.1800 
     97 C          -8.6361  -24.8605  -48.0460 C.2       17 UNK         0.5000 
     98 O          -9.8579  -24.8542  -48.2096 O.2       17 UNK        -0.5000 
     99 N          -7.7755  -24.2042  -48.8294 N.am      18 UNK        -0.5000 
    100 CA        -8.1324  -23.3155  -49.9306 C.3       18 UNK         0.1400 
    101 CB        -8.2684  -24.1260  -51.2367 C.3       18 UNK        -0.1800 
    102 C         -7.0956  -22.1790  -49.9776 C.2       18 UNK         0.5000 
    103 O         -6.7480  -21.6442  -48.9235 O.2       18 UNK        -0.5000 
    104 N         -6.5992  -21.8392  -51.1700 N.am      19 UNK        -0.5000 
    105 CA        -5.4984  -20.9083  -51.3933 C.3       19 UNK         0.1400 
    106 CB        -6.0261  -19.4648  -51.4622 C.3       19 UNK        -0.1800 
    107 C         -4.7853  -21.3050  -52.6928 C.2       19 UNK         0.5000 
    108 O         -5.3882  -21.9595  -53.5484 O.2       19 UNK        -0.5000 
    109 N         -3.5202  -20.9010  -52.8088 N.am      20 UNK        -0.5000 
    110 CA        -2.6566  -21.1045  -53.9664 C.3       20 UNK         0.1400 
    111 CB        -1.5171  -22.0548  -53.5606 C.3       20 UNK        -0.1800 
    112 C         -2.1003  -19.7451  -54.4174 C.2       20 UNK         0.5000 
    113 O         -2.2067  -18.7636  -53.6778 O.2       20 UNK        -0.5000 
    114 N         -1.5097  -19.7125  -55.6206 N.am      21 UNK        -0.5000 
    115 CA        -0.8862  -18.5431  -56.2512 C.3       21 UNK         0.1400 
    116 CB         0.4445  -18.2059  -55.5376 C.3       21 UNK        -0.1800 
    117 C         -1.8704  -17.3554  -56.3513 C.2       21 UNK         0.5000 
    118 O         -2.9200  -17.4969  -56.9819 O.2       21 UNK        -0.5000 
    119 N         -1.5286  -16.2283  -55.7195 N.am      22 UNK        -0.5000 
    120 CA        -2.3756  -15.0385  -55.5544 C.3       22 UNK         0.1400 
    121 C         -3.4500  -15.1464  -54.4295 C.2       22 UNK         0.5000 
    122 N         -3.5669  -16.2478  -53.6984 N.am      22 UNK        -0.7600 
    123 O         -4.2223  -14.2125  -54.2305 O.2       22 UNK        -0.5000 
    124 C124       -1.5464  -13.7193  -55.4780 C.3       23 UNK        -0.0398 
    125 S125        0.1345  -13.8352  -54.7625 S.3       23 UNK        -0.2404 
    126 C126       -0.1734  -13.8842  -52.9679 C.3       23 UNK        -0.0205 
    127 H127        0.0301  -15.0909  -47.0011 H         1 UNK         0.0600 
    128 H128        0.2344  -16.5651  -47.9653 H         1 UNK         0.0600 
    129 H129       -0.8083  -15.2685  -48.5456 H         1 UNK         0.0600 
    130 H130        2.3341  -16.5719  -48.7380 H         1 UNK         0.3000 
    131 H131        3.1048  -14.8921  -50.7752 H         1 UNK         0.0600 
    132 H132        5.1365  -16.5255  -49.2069 H         1 UNK         0.0800 
    133 H133        5.1573  -16.1310  -50.9022 H         1 UNK         0.0800 
    134 H134        3.6141  -17.1753  -52.6888 H         1 UNK         0.0800 
    135 H135        2.8475  -18.7362  -52.5338 H         1 UNK         0.0800 
    136 H136        2.1213  -15.3441  -53.0181 H         1 UNK         0.1150 
    137 H137       -1.9185  -15.4855  -51.6119 H         1 UNK         0.1150 
    138 H138        0.7394  -18.7758  -50.8805 H         1 UNK         0.1150 
    139 H139       -2.0785  -17.4184  -49.5043 H         1 UNK         0.0800 
    140 H140       -2.8005  -17.7570  -51.0560 H         1 UNK         0.0800 
    141 H141       -1.5639  -19.2103  -47.8653 H         1 UNK         0.0800 
    142 H142        0.0078  -19.2226  -48.6143 H         1 UNK         0.0800 
    143 H143        0.0010  -21.6934  -48.7229 H         1 UNK         0.0600 
    144 H144        0.1237  -20.2576  -46.3057 H         1 UNK         0.3000 
    145 H145        0.9615  -22.9675  -44.1091 H         1 UNK         0.0600 
    146 H146        2.8004  -21.3716  -43.6437 H         1 UNK         0.0600 
    147 H147        3.0590  -22.1712  -45.1868 H         1 UNK         0.0600 
    148 H148        2.4739  -20.5138  -45.1479 H         1 UNK         0.0600 
    149 H149        0.5324  -20.2232  -43.5562 H         1 UNK         0.3000 
    150 H150       -3.0137  -20.4385  -42.9427 H         1 UNK         0.0600 
    151 H151       -1.8145  -21.1294  -40.8655 H         1 UNK         0.0600 
    152 H152       -2.2296  -19.4224  -40.8277 H         1 UNK         0.0600 
    153 H153       -0.5732  -19.9193  -41.1639 H         1 UNK         0.0600 
    154 H154       -1.2728  -18.2051  -42.8546 H         1 UNK         0.3000 
    155 H155       -1.5942  -17.2314  -46.3030 H         1 UNK         0.0600 
    156 H156       -2.1780  -15.1169  -45.1264 H         1 UNK         0.0600 
    157 H157       -2.5319  -16.0164  -43.6531 H         1 UNK         0.0600 
    158 H158       -3.5180  -16.2546  -45.0887 H         1 UNK         0.0600 
    159 H159       -0.0542  -16.1148  -44.1920 H         1 UNK         0.3000 
    160 H160        2.8916  -18.1022  -44.6468 H         1 UNK         0.0600 
    161 H161        3.8370  -15.7957  -44.8236 H         1 UNK         0.0600 
    162 H162        2.2526  -15.1730  -45.2895 H         1 UNK         0.0600 
    163 H163        3.0936  -16.3231  -46.3232 H         1 UNK         0.0600 
    164 H164        2.0982  -15.9549  -42.8754 H         1 UNK         0.3000 
    165 H165        0.9938  -18.0637  -40.2213 H         1 UNK         0.0600 
    166 H166        2.7697  -16.8391  -38.9987 H         1 UNK         0.0600 
    167 H167        3.4856  -18.0716  -40.0248 H         1 UNK         0.0600 
    168 H168        3.5435  -16.3830  -40.5167 H         1 UNK         0.0600 
    169 H169        1.3514  -15.2317  -40.4497 H         1 UNK         0.3000 
    170 H170       -1.8166  -14.4608  -41.8665 H         1 UNK         0.0600 
    171 H171       -2.3195  -14.8061  -39.4427 H         1 UNK         0.0600 
    172 H172       -0.7849  -14.0639  -39.0062 H         1 UNK         0.0600 
    173 H173       -2.0378  -13.1104  -39.8019 H         1 UNK         0.0600 
    174 H174        0.2430  -12.7829  -40.8823 H         1 UNK         0.3000 
    175 H175        1.3920  -11.4940  -42.4445 H         1 UNK         0.0600 
    176 H176        3.3434  -13.8283  -42.9045 H         1 UNK         0.0600 
    177 H177        3.8024  -12.1664  -42.5427 H         1 UNK         0.0600 
    178 H178        2.9454  -13.1192  -41.3436 H         1 UNK         0.0600 
    179 H179        2.5771  -12.6239  -44.8696 H         1 UNK         0.3000 
    180 H180        0.5733  -11.6328  -47.1327 H         1 UNK         0.0600 
    181 H181        1.6748   -9.6306  -48.1638 H         1 UNK         0.0600 
    182 H182        2.2365   -9.1241  -46.5702 H         1 UNK         0.0600 
    183 H183        0.5172   -9.1909  -46.9201 H         1 UNK         0.0600 
    184 H184        2.4015  -12.6699  -47.6961 H         1 UNK         0.3000 
    185 H185        5.6262  -12.1742  -47.8933 H         1 UNK         0.0600 
    186 H186        6.4768  -14.0013  -46.3877 H         1 UNK         0.0600 
    187 H187        6.2895  -12.4777  -45.5383 H         1 UNK         0.0600 
    188 H188        5.0986  -13.7514  -45.3164 H         1 UNK         0.0600 
    189 H189        3.8636  -14.5288  -47.3798 H         1 UNK         0.3000 
    190 H190       -2.6415  -21.0102  -46.3519 H         1 UNK         0.3000 
    191 H191       -4.6507  -22.4614  -47.6816 H         1 UNK         0.0600 
    192 H192       -5.8329  -22.3644  -45.4807 H         1 UNK         0.0600 
    193 H193       -5.1217  -20.8135  -45.8991 H         1 UNK         0.0600 
    194 H194       -4.3450  -21.8423  -44.6964 H         1 UNK         0.0600 
    195 H195       -2.3050  -23.5802  -45.2148 H         1 UNK         0.3000 
    196 H196       -3.2879  -26.2361  -44.9749 H         1 UNK         0.0600 
    197 H197       -0.4721  -25.1171  -44.5166 H         1 UNK         0.0600 
    198 H198       -1.7594  -25.2228  -43.3191 H         1 UNK         0.0600 
    199 H199       -1.0437  -26.6893  -43.9712 H         1 UNK         0.0600 
    200 H200       -0.6891  -24.8719  -47.0732 H         1 UNK         0.3000 
    201 H201        0.0111  -27.2884  -48.3779 H         1 UNK         0.0600 
    202 H202        0.2718  -24.3795  -49.3100 H         1 UNK         0.0600 
    203 H203        1.1079  -25.7532  -50.0261 H         1 UNK         0.0600 
    204 H204        1.4589  -25.2813  -48.3702 H         1 UNK         0.0600 
    205 H205       -2.4213  -24.8098  -49.1931 H         1 UNK         0.3000 
    206 H206       -3.2673  -26.0501  -51.6645 H         1 UNK         0.0600 
    207 H207       -3.4055  -23.6000  -51.2053 H         1 UNK         0.0600 
    208 H208       -4.9756  -24.2705  -51.6099 H         1 UNK         0.0600 
    209 H209       -4.5838  -23.8997  -49.9301 H         1 UNK         0.0600 
    210 H210       -3.7865  -26.9957  -48.4820 H         1 UNK         0.3000 
    211 H211       -5.0748  -28.4154  -47.4065 H         1 UNK         0.0600 
    212 H212       -6.1951  -30.2488  -48.6168 H         1 UNK         0.0600 
    213 H213       -4.6114  -29.9447  -49.3130 H         1 UNK         0.0600 
    214 H214       -6.0636  -29.3840  -50.1403 H         1 UNK         0.0600 
    215 H215       -5.9543  -26.0778  -47.0734 H         1 UNK         0.3000 
    216 H216       -7.5814  -24.8867  -46.2102 H         1 UNK         0.0600 
    217 H217       -9.7707  -25.8087  -45.6104 H         1 UNK         0.0600 
    218 H218       -9.5411  -27.1965  -46.6606 H         1 UNK         0.0600 
    219 H219       -8.5241  -26.9873  -45.2352 H         1 UNK         0.0600 
    220 H220       -6.7934  -24.2300  -48.5919 H         1 UNK         0.3000 
    221 H221       -9.0925  -22.8417  -49.7166 H         1 UNK         0.0600 
    222 H222       -9.0177  -24.9107  -51.1308 H         1 UNK         0.0600 
    223 H223       -7.3309  -24.6071  -51.5155 H         1 UNK         0.0600 
    224 H224       -8.5864  -23.4955  -52.0676 H         1 UNK         0.0600 
    225 H225       -6.8893  -22.3387  -52.0018 H         1 UNK         0.3000 
    226 H226       -4.7805  -20.9949  -50.5738 H         1 UNK         0.0600 
    227 H227       -6.7536  -19.3423  -52.2654 H         1 UNK         0.0600 
    228 H228       -6.5059  -19.1746  -50.5274 H         1 UNK         0.0600 
    229 H229       -5.2139  -18.7594  -51.6422 H         1 UNK         0.0600 
    230 H230       -3.1182  -20.3057  -52.0946 H         1 UNK         0.3000 
    231 H231       -3.2149  -21.5386  -54.7982 H         1 UNK         0.0600 
    232 H232       -0.9176  -21.6387  -52.7495 H         1 UNK         0.0600 
    233 H233       -0.8470  -22.2504  -54.3984 H         1 UNK         0.0600 
    234 H234       -1.9074  -23.0163  -53.2268 H         1 UNK         0.0600 
    235 H235       -1.4992  -20.5579  -56.1733 H         1 UNK         0.3000 
    236 H236       -0.6483  -18.8287  -57.2768 H         1 UNK         0.0600 
    237 H237        0.9626  -17.3820  -56.0300 H         1 UNK         0.0600 
    238 H238        0.2914  -17.9290  -54.4940 H         1 UNK         0.0600 
    239 H239        1.1203  -19.0609  -55.5516 H         1 UNK         0.0600 
    240 H240       -0.6615  -16.2071  -55.2015 H         1 UNK         0.3000 
    241 H241       -2.9765  -14.9567  -56.4622 H         1 UNK         0.0600 
    242 H242       -4.2884  -16.2883  -52.9988 H         1 UNK         0.3800 
    243 H243       -2.9493  -17.0469  -53.8240 H         1 UNK         0.3800 
    244 H244       -2.0902  -12.9155  -54.9788 H         1 UNK         0.0800 
    245 H245       -1.4030  -13.3563  -56.4965 H         1 UNK         0.0800 
    246 H246        0.5019  -13.1826  -52.4761 H         1 UNK         0.0800 
    247 H247       -1.1849  -13.5384  -52.7500 H         1 UNK         0.0800 
@<TRIPOS>BOND
     1    1    2 1    
     2    1  127 1    
     3    1  128 1    
     4    1  129 1    
     5    2    3 2    
     6    2    4 am   BACKBONE|DICT|INTERRES
     7    4    5 1    
     8    4  130 1    
     9    5    6 1    
    10    5   65 1    
    11    5  131 1    
    12    6    7 1    
    13    6  132 1    
    14    6  133 1    
    15    7    8 1    
    16    8    9 1    
    17    8  134 1    
    18    8  135 1    
    19    9   10 ar   
    20    9   14 ar   
    21   10   11 ar   
    22   10  136 1    
    23   11   12 ar   
    24   11  126 1    
    25   12   13 ar   
    26   12  137 1    
    27   13   14 ar   
    28   13   15 1    
    29   14  138 1    
    30   15   16 1    
    31   15  139 1    
    32   15  140 1    
    33   16   17 1    
    34   17   18 1    
    35   17  141 1    
    36   17  142 1    
    37   18   19 1    
    38   18   67 1    
    39   18  143 1    
    40   19   20 am   BACKBONE|DICT|INTERRES
    41   19  144 1    
    42   20   21 2    
    43   20   22 1    
    44   22   23 1    
    45   22   24 1    
    46   22  145 1    
    47   23  146 1    
    48   23  147 1    
    49   23  148 1    
    50   24   25 am   BACKBONE|DICT|INTERRES
    51   24  149 1    
    52   25   26 2    
    53   25   27 1    
    54   27   28 1    
    55   27   29 1    
    56   27  150 1    
    57   28  151 1    
    58   28  152 1    
    59   28  153 1    
    60   29   30 am   BACKBONE|DICT|INTERRES
    61   29  154 1    
    62   30   31 2    
    63   30   32 1    
    64   32   33 1    
    65   32   34 1    
    66   32  155 1    
    67   33  156 1    
    68   33  157 1    
    69   33  158 1    
    70   34   35 am   BACKBONE|DICT|INTERRES
    71   34  159 1    
    72   35   36 2    
    73   35   37 1    
    74   37   38 1    
    75   37   39 1    
    76   37  160 1    
    77   38  161 1    
    78   38  162 1    
    79   38  163 1    
    80   39   40 am   BACKBONE|DICT|INTERRES
    81   39  164 1    
    82   40   41 2    
    83   40   42 1    
    84   42   43 1    
    85   42   44 1    
    86   42  165 1    
    87   43  166 1    
    88   43  167 1    
    89   43  168 1    
    90   44   45 am   BACKBONE|DICT|INTERRES
    91   44  169 1    
    92   45   46 2    
    93   45   47 1    
    94   47   48 1    
    95   47   49 1    
    96   47  170 1    
    97   48  171 1    
    98   48  172 1    
    99   48  173 1    
   100   49   50 am   BACKBONE|DICT|INTERRES
   101   49  174 1    
   102   50   51 2    
   103   50   52 1    
   104   52   53 1    
   105   52   54 1    
   106   52  175 1    
   107   53  176 1    
   108   53  177 1    
   109   53  178 1    
   110   54   55 am   BACKBONE|DICT|INTERRES
   111   54  179 1    
   112   55   56 2    
   113   55   57 1    
   114   57   58 1    
   115   57   59 1    
   116   57  180 1    
   117   58  181 1    
   118   58  182 1    
   119   58  183 1    
   120   59   60 am   BACKBONE|DICT|INTERRES
   121   59  184 1    
   122   60   61 2    
   123   60   62 1    
   124   62   63 1    
   125   62   64 1    
   126   62  185 1    
   127   63  186 1    
   128   63  187 1    
   129   63  188 1    
   130   64   65 am   BACKBONE|DICT|INTERRES
   131   64  189 1    
   132   65   66 2    
   133   67   68 2    
   134   67   69 am   BACKBONE|DICT|INTERRES
   135   69   70 1    
   136   69  190 1    
   137   70   71 1    
   138   70   72 1    
   139   70  191 1    
   140   71  192 1    
   141   71  193 1    
   142   71  194 1    
   143   72   73 2    
   144   72   74 am   BACKBONE|DICT|INTERRES
   145   74   75 1    
   146   74  195 1    
   147   75   76 1    
   148   75   77 1    
   149   75  196 1    
   150   76  197 1    
   151   76  198 1    
   152   76  199 1    
   153   77   78 2    
   154   77   79 am   BACKBONE|DICT|INTERRES
   155   79   80 1    
   156   79  200 1    
   157   80   81 1    
   158   80   82 1    
   159   80  201 1    
   160   81  202 1    
   161   81  203 1    
   162   81  204 1    
   163   82   83 2    
   164   82   84 am   BACKBONE|DICT|INTERRES
   165   84   85 1    
   166   84  205 1    
   167   85   86 1    
   168   85   87 1    
   169   85  206 1    
   170   86  207 1    
   171   86  208 1    
   172   86  209 1    
   173   87   88 2    
   174   87   89 am   BACKBONE|DICT|INTERRES
   175   89   90 1    
   176   89  210 1    
   177   90   91 1    
   178   90   92 1    
   179   90  211 1    
   180   91  212 1    
   181   91  213 1    
   182   91  214 1    
   183   92   93 2    
   184   92   94 am   BACKBONE|DICT|INTERRES
   185   94   95 1    
   186   94  215 1    
   187   95   96 1    
   188   95   97 1    
   189   95  216 1    
   190   96  217 1    
   191   96  218 1    
   192   96  219 1    
   193   97   98 2    
   194   97   99 am   BACKBONE|DICT|INTERRES
   195   99  100 1    
   196   99  220 1    
   197  100  101 1    
   198  100  102 1    
   199  100  221 1    
   200  101  222 1    
   201  101  223 1    
   202  101  224 1    
   203  102  103 2    
   204  102  104 am   BACKBONE|DICT|INTERRES
   205  104  105 1    
   206  104  225 1    
   207  105  106 1    
   208  105  107 1    
   209  105  226 1    
   210  106  227 1    
   211  106  228 1    
   212  106  229 1    
   213  107  108 2    
   214  107  109 am   BACKBONE|DICT|INTERRES
   215  109  110 1    
   216  109  230 1    
   217  110  111 1    
   218  110  112 1    
   219  110  231 1    
   220  111  232 1    
   221  111  233 1    
   222  111  234 1    
   223  112  113 2    
   224  112  114 am   BACKBONE|DICT|INTERRES
   225  114  115 1    
   226  114  235 1    
   227  115  116 1    
   228  115  117 1    
   229  115  236 1    
   230  116  237 1    
   231  116  238 1    
   232  116  239 1    
   233  117  118 2    
   234  117  119 am   BACKBONE|DICT|INTERRES
   235  119  120 1    
   236  119  240 1    
   237  120  121 1    
   238  120  124 1    
   239  120  241 1    
   240  121  122 am   BACKBONE|DICT|INTERRES
   241  121  123 2    
   242  122  242 1    
   243  122  243 1    
   244  124  125 1    
   245  124  244 1    
   246  124  245 1    
   247  125  126 1    
   248  126  246 1    
   249  126  247 1    
@<TRIPOS>SUBSTRUCTURE
     1 UNK         1 GROUP             0       ****    0 ROOT    
