@<TRIPOS>MOLECULE
3R540
247   249    1
SMALL
USER_CHARGES


@<TRIPOS>ATOM
      1 CA          5.5627  -11.9849  -50.9333 C.3       0 UNK        -0.1800 
      2 C           4.3896  -12.9430  -50.7809 C.2       0 UNK         0.5000 
      3 O           3.5526  -13.0259  -51.6793 O.2       0 UNK        -0.5000 
      4 N           4.3360  -13.6592  -49.6493 N.am      1 UNK        -0.5000 
      5 CA          3.3044  -14.6350  -49.2729 C.3       1 UNK         0.1400 
      6 C6          3.2536  -15.8910  -50.1782 C.3       23 UNK        -0.0398 
      7 S7          4.7913  -16.8634  -50.2723 S.3       23 UNK        -0.2404 
      8 C8          4.3682  -18.0007  -51.6394 C.3       23 UNK        -0.0205 
      9 C9          3.2045  -18.9202  -51.2856 C.ar      23 UNK        -0.0193 
     10 C10         1.8868  -18.4916  -51.4743 C.ar      23 UNK        -0.1150 
     11 C11         0.8111  -19.2826  -51.0669 C.ar      23 UNK        -0.0193 
     12 C12         1.0593  -20.5528  -50.5386 C.ar      23 UNK        -0.1150 
     13 C13         2.3704  -21.0211  -50.3997 C.ar      23 UNK        -0.0193 
     14 C14         3.4392  -20.1943  -50.7610 C.ar      23 UNK        -0.1150 
     15 C15         2.6304  -22.4310  -49.8880 C.3       23 UNK        -0.0205 
     16 S16         3.4340  -22.4711  -48.2519 S.3       23 UNK        -0.2404 
     17 C17         2.2304  -21.6228  -47.1752 C.3       23 UNK        -0.0398 
     18 CA          1.1804  -22.5814  -46.5563 C.3       11 UNK         0.1400 
     19 N           0.7450  -22.1482  -45.2246 N.am      11 UNK        -0.5000 
     20 C          -0.0769  -22.8412  -44.4219 C.2       10 UNK         0.5000 
     21 O          -0.5139  -23.9590  -44.6894 O.2       10 UNK        -0.5000 
     22 CA         -0.5356  -22.1519  -43.1259 C.3       10 UNK         0.1400 
     23 CB          0.5233  -22.2970  -42.0232 C.3       10 UNK        -0.1800 
     24 N          -0.8573  -20.7397  -43.3281 N.am      10 UNK        -0.5000 
     25 C          -1.8450  -20.2907  -44.1167 C.2       9 UNK         0.5000 
     26 O          -2.6318  -21.0269  -44.7123 O.2       9 UNK        -0.5000 
     27 CA         -1.9356  -18.7657  -44.3122 C.3       9 UNK         0.1400 
     28 CB         -2.6065  -18.1056  -43.0997 C.3       9 UNK        -0.1800 
     29 N          -0.6268  -18.1526  -44.5492 N.am      9 UNK        -0.5000 
     30 C           0.1651  -18.4406  -45.5934 C.2       8 UNK         0.5000 
     31 O          -0.1491  -19.2113  -46.4996 O.2       8 UNK        -0.5000 
     32 CA          1.5718  -17.8198  -45.5906 C.3       8 UNK         0.1400 
     33 CB          1.5552  -16.3921  -46.1487 C.3       8 UNK        -0.1800 
     34 N           2.1649  -17.8153  -44.2537 N.am      8 UNK        -0.5000 
     35 C           2.5788  -18.9164  -43.6123 C.2       7 UNK         0.5000 
     36 O           2.5257  -20.0475  -44.0935 O.2       7 UNK        -0.5000 
     37 CA          3.0990  -18.7235  -42.1768 C.3       7 UNK         0.1400 
     38 CB          4.5484  -18.2151  -42.1862 C.3       7 UNK        -0.1800 
     39 N           2.2658  -17.8074  -41.3965 N.am      7 UNK        -0.5000 
     40 C           0.9963  -18.0555  -41.0450 C.2       6 UNK         0.5000 
     41 O           0.4013  -19.0944  -41.3258 O.2       6 UNK        -0.5000 
     42 CA          0.2526  -16.9437  -40.2835 C.3       6 UNK         0.1400 
     43 CB          0.4634  -17.0954  -38.7698 C.3       6 UNK        -0.1800 
     44 N           0.6336  -15.5896  -40.6930 N.am      6 UNK        -0.5000 
     45 C           0.4645  -15.0876  -41.9227 C.2       5 UNK         0.5000 
     46 O           0.0360  -15.7395  -42.8796 O.2       5 UNK        -0.5000 
     47 CA          0.8851  -13.6229  -42.1227 C.3       5 UNK         0.1400 
     48 CB          2.2328  -13.5498  -42.8571 C.3       5 UNK        -0.1800 
     49 N          -0.1286  -12.9196  -42.9009 N.am      5 UNK        -0.5000 
     50 C          -1.2767  -12.4381  -42.3992 C.2       4 UNK         0.5000 
     51 O          -1.5303  -12.3988  -41.1945 O.2       4 UNK        -0.5000 
     52 CA         -2.3320  -11.9385  -43.4109 C.3       4 UNK         0.1400 
     53 CB         -2.1633  -10.4340  -43.6709 C.3       4 UNK        -0.1800 
     54 N          -2.2495  -12.6540  -44.6834 N.am      4 UNK        -0.5000 
     55 C          -2.5251  -13.9555  -44.8380 C.2       3 UNK         0.5000 
     56 O          -3.1627  -14.6042  -44.0089 O.2       3 UNK        -0.5000 
     57 CA         -1.9685  -14.6639  -46.0946 C.3       3 UNK         0.1400 
     58 CB         -3.0650  -15.4451  -46.8353 C.3       3 UNK        -0.1800 
     59 N          -1.2504  -13.8060  -47.0511 N.am      3 UNK        -0.5000 
     60 C          -0.1008  -13.1568  -46.8227 C.2       2 UNK         0.5000 
     61 O           0.4772  -13.1604  -45.7351 O.2       2 UNK        -0.5000 
     62 CA          0.5033  -12.3460  -47.9797 C.3       2 UNK         0.1400 
     63 CB          0.7101  -10.8768  -47.5768 C.3       2 UNK        -0.1800 
     64 N           1.7912  -12.9316  -48.3435 N.am      2 UNK        -0.5000 
     65 C           1.9051  -13.9876  -49.1566 C.2       1 UNK         0.5000 
     66 O           0.9588  -14.4432  -49.7982 O.2       1 UNK        -0.5000 
     67 C          -0.0186  -22.7827  -47.5043 C.2       11 UNK         0.5000 
     68 O          -0.1379  -23.8432  -48.1177 O.2       11 UNK        -0.5000 
     69 N          -0.9036  -21.7778  -47.5701 N.am      12 UNK        -0.5000 
     70 CA         -2.1340  -21.7888  -48.3602 C.3       12 UNK         0.1400 
     71 CB         -2.8263  -20.4244  -48.2361 C.3       12 UNK        -0.1800 
     72 C          -3.0858  -22.9338  -47.9715 C.2       12 UNK         0.5000 
     73 O          -3.5947  -23.6258  -48.8538 O.2       12 UNK        -0.5000 
     74 N          -3.2677  -23.1399  -46.6599 N.am      13 UNK        -0.5000 
     75 CA         -4.0640  -24.2262  -46.0914 C.3       13 UNK         0.1400 
     76 CB         -4.2305  -24.0020  -44.5810 C.3       13 UNK        -0.1800 
     77 C          -3.4744  -25.6206  -46.3754 C.2       13 UNK         0.5000 
     78 O          -4.2266  -26.5304  -46.7251 O.2       13 UNK        -0.5000 
     79 N          -2.1484  -25.7625  -46.2344 N.am      14 UNK        -0.5000 
     80 CA         -1.4127  -27.0031  -46.4876 C.3       14 UNK         0.1400 
     81 CB          0.0218  -26.8742  -45.9527 C.3       14 UNK        -0.1800 
     82 C          -1.4019  -27.3986  -47.9741 C.2       14 UNK         0.5000 
     83 O          -1.5817  -28.5756  -48.2899 O.2       14 UNK        -0.5000 
     84 N          -1.2063  -26.4104  -48.8576 N.am      15 UNK        -0.5000 
     85 CA         -1.2542  -26.5775  -50.3105 C.3       15 UNK         0.1400 
     86 CB         -0.6666  -25.3264  -50.9768 C.3       15 UNK        -0.1800 
     87 C          -2.6771  -26.8476  -50.8337 C.2       15 UNK         0.5000 
     88 O          -2.8285  -27.5416  -51.8399 O.2       15 UNK        -0.5000 
     89 N          -3.6843  -26.2854  -50.1496 N.am      16 UNK        -0.5000 
     90 CA         -5.1329  -26.3824  -50.3646 C.3       16 UNK         0.1400 
     91 CB         -5.6244  -27.8393  -50.2823 C.3       16 UNK        -0.1800 
     92 C          -5.6248  -25.6898  -51.6481 C.2       16 UNK         0.5000 
     93 O          -6.5690  -24.9038  -51.5873 O.2       16 UNK        -0.5000 
     94 N          -4.9624  -25.9495  -52.7814 N.am      17 UNK        -0.5000 
     95 CA         -5.2126  -25.2968  -54.0686 C.3       17 UNK         0.1400 
     96 CB         -4.4412  -26.0421  -55.1677 C.3       17 UNK        -0.1800 
     97 C          -4.8305  -23.8041  -54.0554 C.2       17 UNK         0.5000 
     98 O          -5.4666  -23.0017  -54.7388 O.2       17 UNK        -0.5000 
     99 N          -3.8233  -23.4563  -53.2428 N.am      18 UNK        -0.5000 
    100 CA        -3.3320  -22.0932  -53.0416 C.3       18 UNK         0.1400 
    101 CB        -1.8412  -22.1480  -52.6707 C.3       18 UNK        -0.1800 
    102 C         -4.1502  -21.2976  -52.0020 C.2       18 UNK         0.5000 
    103 O         -3.7429  -20.1951  -51.6423 O.2       18 UNK        -0.5000 
    104 N         -5.2880  -21.8394  -51.5384 N.am      19 UNK        -0.5000 
    105 CA        -6.2625  -21.1181  -50.7141 C.3       19 UNK         0.1400 
    106 CB        -7.2657  -22.1127  -50.1140 C.3       19 UNK        -0.1800 
    107 C         -6.9910  -20.0063  -51.4973 C.2       19 UNK         0.5000 
    108 O         -7.4462  -19.0367  -50.8899 O.2       19 UNK        -0.5000 
    109 N         -7.0674  -20.1520  -52.8280 N.am      20 UNK        -0.5000 
    110 CA        -7.4489  -19.0900  -53.7545 C.3       20 UNK         0.1400 
    111 CB        -7.8564  -19.7184  -55.0959 C.3       20 UNK        -0.1800 
    112 C         -6.2679  -18.1201  -53.9418 C.2       20 UNK         0.5000 
    113 O         -5.1291  -18.5744  -54.0725 O.2       20 UNK        -0.5000 
    114 N         -6.5640  -16.8138  -53.9658 N.am      21 UNK        -0.5000 
    115 CA        -5.6051  -15.7031  -53.9730 C.3       21 UNK         0.1400 
    116 CB        -4.7688  -15.6825  -55.2740 C.3       21 UNK        -0.1800 
    117 C         -4.7780  -15.6776  -52.6677 C.2       21 UNK         0.5000 
    118 O         -5.3789  -15.6792  -51.5916 O.2       21 UNK        -0.5000 
    119 N         -3.4415  -15.6363  -52.7702 N.am      22 UNK        -0.5000 
    120 CA        -2.5005  -15.5522  -51.6358 C.3       22 UNK         0.1400 
    121 C         -2.5572  -14.1869  -50.8751 C.2       22 UNK         0.5000 
    122 N         -2.9340  -13.0956  -51.5321 N.am      22 UNK        -0.7600 
    123 O         -2.2644  -14.0952  -49.6875 O.2       22 UNK        -0.5000 
    124 C124       -2.5758  -16.8064  -50.7105 C.3       23 UNK        -0.0398 
    125 S125       -0.9395  -17.3502  -50.1044 S.3       23 UNK        -0.2404 
    126 C126       -0.6112  -18.7597  -51.2124 C.3       23 UNK        -0.0205 
    127 H127        6.1421  -12.2402  -51.8207 H         1 UNK         0.0600 
    128 H128        6.2298  -12.0180  -50.0714 H         1 UNK         0.0600 
    129 H129        5.2004  -10.9627  -51.0437 H         1 UNK         0.0600 
    130 H130        5.0696  -13.5328  -48.9661 H         1 UNK         0.3000 
    131 H131        3.5639  -14.9720  -48.2686 H         1 UNK         0.0600 
    132 H132        2.4854  -16.5615  -49.7904 H         1 UNK         0.0800 
    133 H133        2.9523  -15.6177  -51.1907 H         1 UNK         0.0800 
    134 H134        5.2492  -18.5942  -51.8882 H         1 UNK         0.0800 
    135 H135        4.1303  -17.4229  -52.5338 H         1 UNK         0.0800 
    136 H136        1.6916  -17.5162  -51.8964 H         1 UNK         0.1150 
    137 H137        0.2318  -21.1817  -50.2459 H         1 UNK         0.1150 
    138 H138        4.4537  -20.5445  -50.6308 H         1 UNK         0.1150 
    139 H139        1.7075  -23.0102  -49.8582 H         1 UNK         0.0800 
    140 H140        3.2767  -22.9455  -50.6003 H         1 UNK         0.0800 
    141 H141        1.7718  -20.7799  -47.6945 H         1 UNK         0.0800 
    142 H142        2.8285  -21.1744  -46.3828 H         1 UNK         0.0800 
    143 H143        1.6479  -23.5580  -46.4123 H         1 UNK         0.0600 
    144 H144        1.0976  -21.2541  -44.9001 H         1 UNK         0.3000 
    145 H145       -1.4447  -22.6537  -42.7884 H         1 UNK         0.0600 
    146 H146        1.4476  -21.7789  -42.2792 H         1 UNK         0.0600 
    147 H147        0.1641  -21.8909  -41.0776 H         1 UNK         0.0600 
    148 H148        0.7698  -23.3458  -41.8539 H         1 UNK         0.0600 
    149 H149       -0.2892  -20.0686  -42.8183 H         1 UNK         0.3000 
    150 H150       -2.5535  -18.5742  -45.1919 H         1 UNK         0.0600 
    151 H151       -3.6235  -18.4767  -42.9686 H         1 UNK         0.0600 
    152 H152       -2.6662  -17.0254  -43.2201 H         1 UNK         0.0600 
    153 H153       -2.0634  -18.3065  -42.1769 H         1 UNK         0.0600 
    154 H154       -0.3054  -17.4775  -43.8625 H         1 UNK         0.3000 
    155 H155        2.2005  -18.4276  -46.2452 H         1 UNK         0.0600 
    156 H156        1.0353  -15.7133  -45.4747 H         1 UNK         0.0600 
    157 H157        2.5672  -16.0120  -46.2833 H         1 UNK         0.0600 
    158 H158        1.0546  -16.3506  -47.1175 H         1 UNK         0.0600 
    159 H159        2.1861  -16.9313  -43.7672 H         1 UNK         0.3000 
    160 H160        3.0829  -19.6982  -41.6842 H         1 UNK         0.0600 
    161 H161        5.1937  -18.8880  -42.7526 H         1 UNK         0.0600 
    162 H162        4.6278  -17.2257  -42.6384 H         1 UNK         0.0600 
    163 H163        4.9514  -18.1554  -41.1750 H         1 UNK         0.0600 
    164 H164        2.6785  -16.9277  -41.1241 H         1 UNK         0.3000 
    165 H165       -0.8128  -17.0616  -40.4904 H         1 UNK         0.0600 
    166 H166       -0.1347  -16.3734  -38.2135 H         1 UNK         0.0600 
    167 H167        0.1665  -18.0894  -38.4321 H         1 UNK         0.0600 
    168 H168        1.5084  -16.9527  -38.4917 H         1 UNK         0.0600 
    169 H169        1.0025  -14.9914  -39.9677 H         1 UNK         0.3000 
    170 H170        0.9938  -13.1357  -41.1514 H         1 UNK         0.0600 
    171 H171        3.0219  -14.0254  -42.2737 H         1 UNK         0.0600 
    172 H172        2.1942  -14.0503  -43.8255 H         1 UNK         0.0600 
    173 H173        2.5321  -12.5158  -43.0287 H         1 UNK         0.0600 
    174 H174       -0.0087  -12.9602  -43.9098 H         1 UNK         0.3000 
    175 H175       -3.3209  -12.1080  -42.9799 H         1 UNK         0.0600 
    176 H176       -1.1930  -10.2085  -44.1155 H         1 UNK         0.0600 
    177 H177       -2.9362  -10.0607  -44.3430 H         1 UNK         0.0600 
    178 H178       -2.2391   -9.8671  -42.7421 H         1 UNK         0.0600 
    179 H179       -1.7244  -12.2034  -45.4173 H         1 UNK         0.3000 
    180 H180       -1.2531  -15.3967  -45.7199 H         1 UNK         0.0600 
    181 H181       -3.7930  -14.7764  -47.2956 H         1 UNK         0.0600 
    182 H182       -3.6046  -16.1126  -46.1624 H         1 UNK         0.0600 
    183 H183       -2.6327  -16.0662  -47.6193 H         1 UNK         0.0600 
    184 H184       -1.6327  -13.7952  -47.9970 H         1 UNK         0.3000 
    185 H185       -0.1768  -12.3681  -48.8343 H         1 UNK         0.0600 
    186 H186        1.1193  -10.2971  -48.4044 H         1 UNK         0.0600 
    187 H187       -0.2358  -10.4143  -47.2922 H         1 UNK         0.0600 
    188 H188        1.3916  -10.7783  -46.7307 H         1 UNK         0.0600 
    189 H189        2.5981  -12.6109  -47.8284 H         1 UNK         0.3000 
    190 H190       -0.7122  -20.9242  -47.0499 H         1 UNK         0.3000 
    191 H191       -1.8546  -21.9330  -49.4037 H         1 UNK         0.0600 
    192 H192       -3.1442  -20.2199  -47.2141 H         1 UNK         0.0600 
    193 H193       -3.7090  -20.3751  -48.8707 H         1 UNK         0.0600 
    194 H194       -2.1624  -19.6173  -48.5436 H         1 UNK         0.0600 
    195 H195       -2.8401  -22.4951  -46.0011 H         1 UNK         0.3000 
    196 H196       -5.0541  -24.1861  -46.5504 H         1 UNK         0.0600 
    197 H197       -4.8405  -24.7875  -44.1335 H         1 UNK         0.0600 
    198 H198       -4.7221  -23.0508  -44.3761 H         1 UNK         0.0600 
    199 H199       -3.2692  -23.9978  -44.0663 H         1 UNK         0.0600 
    200 H200       -1.6014  -24.9763  -45.8932 H         1 UNK         0.3000 
    201 H201       -1.9075  -27.8046  -45.9353 H         1 UNK         0.0600 
    202 H202        0.0257  -26.6949  -44.8775 H         1 UNK         0.0600 
    203 H203        0.5573  -26.0531  -46.4306 H         1 UNK         0.0600 
    204 H204        0.5906  -27.7874  -46.1316 H         1 UNK         0.0600 
    205 H205       -1.0012  -25.4751  -48.5124 H         1 UNK         0.3000 
    206 H206       -0.6332  -27.4339  -50.5811 H         1 UNK         0.0600 
    207 H207        0.3837  -25.1981  -50.7146 H         1 UNK         0.0600 
    208 H208       -0.7283  -25.3861  -52.0642 H         1 UNK         0.0600 
    209 H209       -1.1989  -24.4313  -50.6584 H         1 UNK         0.0600 
    210 H210       -3.4274  -25.6561  -49.3970 H         1 UNK         0.3000 
    211 H211       -5.5814  -25.8420  -49.5291 H         1 UNK         0.0600 
    212 H212       -5.2346  -28.4516  -51.0958 H         1 UNK         0.0600 
    213 H213       -6.7128  -27.8844  -50.3344 H         1 UNK         0.0600 
    214 H214       -5.3240  -28.3005  -49.3411 H         1 UNK         0.0600 
    215 H215       -4.1912  -26.6108  -52.7308 H         1 UNK         0.3000 
    216 H216       -6.2802  -25.3668  -54.2872 H         1 UNK         0.0600 
    217 H217       -4.6187  -25.5906  -56.1447 H         1 UNK         0.0600 
    218 H218       -4.7539  -27.0846  -55.2302 H         1 UNK         0.0600 
    219 H219       -3.3656  -26.0250  -54.9870 H         1 UNK         0.0600 
    220 H220       -3.3826  -24.1806  -52.6960 H         1 UNK         0.3000 
    221 H221       -3.4148  -21.5526  -53.9870 H         1 UNK         0.0600 
    222 H222       -1.6940  -22.4942  -51.6504 H         1 UNK         0.0600 
    223 H223       -1.2851  -22.8072  -53.3374 H         1 UNK         0.0600 
    224 H224       -1.3876  -21.1603  -52.7491 H         1 UNK         0.0600 
    225 H225       -5.5511  -22.7673  -51.8411 H         1 UNK         0.3000 
    226 H226       -5.7311  -20.6414  -49.8898 H         1 UNK         0.0600 
    227 H227       -6.7573  -22.8821  -49.5320 H         1 UNK         0.0600 
    228 H228       -7.9638  -21.6069  -49.4459 H         1 UNK         0.0600 
    229 H229       -7.8532  -22.6073  -50.8883 H         1 UNK         0.0600 
    230 H230       -6.6272  -20.9619  -53.2409 H         1 UNK         0.3000 
    231 H231       -8.3058  -18.5489  -53.3475 H         1 UNK         0.0600 
    232 H232       -8.1544  -18.9512  -55.8115 H         1 UNK         0.0600 
    233 H233       -8.7018  -20.3957  -54.9732 H         1 UNK         0.0600 
    234 H234       -7.0364  -20.2836  -55.5415 H         1 UNK         0.0600 
    235 H235       -7.5284  -16.5426  -53.8342 H         1 UNK         0.3000 
    236 H236       -6.2028  -14.7906  -53.9623 H         1 UNK         0.0600 
    237 H237       -4.1657  -14.7762  -55.3385 H         1 UNK         0.0600 
    238 H238       -5.4161  -15.6953  -56.1510 H         1 UNK         0.0600 
    239 H239       -4.0947  -16.5358  -55.3516 H         1 UNK         0.0600 
    240 H240       -3.0269  -15.6437  -53.6908 H         1 UNK         0.3000 
    241 H241       -1.5168  -15.5542  -52.1065 H         1 UNK         0.0600 
    242 H242       -2.9751  -12.2163  -51.0424 H         1 UNK         0.3800 
    243 H243       -3.1795  -13.1376  -52.5078 H         1 UNK         0.3800 
    244 H244       -3.2358  -16.6296  -49.8606 H         1 UNK         0.0800 
    245 H245       -3.0262  -17.6439  -51.2445 H         1 UNK         0.0800 
    246 H246       -1.3283  -19.5479  -50.9861 H         1 UNK         0.0800 
    247 H247       -0.7830  -18.4627  -52.2479 H         1 UNK         0.0800 
@<TRIPOS>BOND
     1    1    2 1    
     2    1  127 1    
     3    1  128 1    
     4    1  129 1    
     5    2    3 2    
     6    2    4 am   BACKBONE|DICT|INTERRES
     7    4    5 1    
     8    4  130 1    
     9    5    6 1    
    10    5   65 1    
    11    5  131 1    
    12    6    7 1    
    13    6  132 1    
    14    6  133 1    
    15    7    8 1    
    16    8    9 1    
    17    8  134 1    
    18    8  135 1    
    19    9   10 ar   
    20    9   14 ar   
    21   10   11 ar   
    22   10  136 1    
    23   11   12 ar   
    24   11  126 1    
    25   12   13 ar   
    26   12  137 1    
    27   13   14 ar   
    28   13   15 1    
    29   14  138 1    
    30   15   16 1    
    31   15  139 1    
    32   15  140 1    
    33   16   17 1    
    34   17   18 1    
    35   17  141 1    
    36   17  142 1    
    37   18   19 1    
    38   18   67 1    
    39   18  143 1    
    40   19   20 am   BACKBONE|DICT|INTERRES
    41   19  144 1    
    42   20   21 2    
    43   20   22 1    
    44   22   23 1    
    45   22   24 1    
    46   22  145 1    
    47   23  146 1    
    48   23  147 1    
    49   23  148 1    
    50   24   25 am   BACKBONE|DICT|INTERRES
    51   24  149 1    
    52   25   26 2    
    53   25   27 1    
    54   27   28 1    
    55   27   29 1    
    56   27  150 1    
    57   28  151 1    
    58   28  152 1    
    59   28  153 1    
    60   29   30 am   BACKBONE|DICT|INTERRES
    61   29  154 1    
    62   30   31 2    
    63   30   32 1    
    64   32   33 1    
    65   32   34 1    
    66   32  155 1    
    67   33  156 1    
    68   33  157 1    
    69   33  158 1    
    70   34   35 am   BACKBONE|DICT|INTERRES
    71   34  159 1    
    72   35   36 2    
    73   35   37 1    
    74   37   38 1    
    75   37   39 1    
    76   37  160 1    
    77   38  161 1    
    78   38  162 1    
    79   38  163 1    
    80   39   40 am   BACKBONE|DICT|INTERRES
    81   39  164 1    
    82   40   41 2    
    83   40   42 1    
    84   42   43 1    
    85   42   44 1    
    86   42  165 1    
    87   43  166 1    
    88   43  167 1    
    89   43  168 1    
    90   44   45 am   BACKBONE|DICT|INTERRES
    91   44  169 1    
    92   45   46 2    
    93   45   47 1    
    94   47   48 1    
    95   47   49 1    
    96   47  170 1    
    97   48  171 1    
    98   48  172 1    
    99   48  173 1    
   100   49   50 am   BACKBONE|DICT|INTERRES
   101   49  174 1    
   102   50   51 2    
   103   50   52 1    
   104   52   53 1    
   105   52   54 1    
   106   52  175 1    
   107   53  176 1    
   108   53  177 1    
   109   53  178 1    
   110   54   55 am   BACKBONE|DICT|INTERRES
   111   54  179 1    
   112   55   56 2    
   113   55   57 1    
   114   57   58 1    
   115   57   59 1    
   116   57  180 1    
   117   58  181 1    
   118   58  182 1    
   119   58  183 1    
   120   59   60 am   BACKBONE|DICT|INTERRES
   121   59  184 1    
   122   60   61 2    
   123   60   62 1    
   124   62   63 1    
   125   62   64 1    
   126   62  185 1    
   127   63  186 1    
   128   63  187 1    
   129   63  188 1    
   130   64   65 am   BACKBONE|DICT|INTERRES
   131   64  189 1    
   132   65   66 2    
   133   67   68 2    
   134   67   69 am   BACKBONE|DICT|INTERRES
   135   69   70 1    
   136   69  190 1    
   137   70   71 1    
   138   70   72 1    
   139   70  191 1    
   140   71  192 1    
   141   71  193 1    
   142   71  194 1    
   143   72   73 2    
   144   72   74 am   BACKBONE|DICT|INTERRES
   145   74   75 1    
   146   74  195 1    
   147   75   76 1    
   148   75   77 1    
   149   75  196 1    
   150   76  197 1    
   151   76  198 1    
   152   76  199 1    
   153   77   78 2    
   154   77   79 am   BACKBONE|DICT|INTERRES
   155   79   80 1    
   156   79  200 1    
   157   80   81 1    
   158   80   82 1    
   159   80  201 1    
   160   81  202 1    
   161   81  203 1    
   162   81  204 1    
   163   82   83 2    
   164   82   84 am   BACKBONE|DICT|INTERRES
   165   84   85 1    
   166   84  205 1    
   167   85   86 1    
   168   85   87 1    
   169   85  206 1    
   170   86  207 1    
   171   86  208 1    
   172   86  209 1    
   173   87   88 2    
   174   87   89 am   BACKBONE|DICT|INTERRES
   175   89   90 1    
   176   89  210 1    
   177   90   91 1    
   178   90   92 1    
   179   90  211 1    
   180   91  212 1    
   181   91  213 1    
   182   91  214 1    
   183   92   93 2    
   184   92   94 am   BACKBONE|DICT|INTERRES
   185   94   95 1    
   186   94  215 1    
   187   95   96 1    
   188   95   97 1    
   189   95  216 1    
   190   96  217 1    
   191   96  218 1    
   192   96  219 1    
   193   97   98 2    
   194   97   99 am   BACKBONE|DICT|INTERRES
   195   99  100 1    
   196   99  220 1    
   197  100  101 1    
   198  100  102 1    
   199  100  221 1    
   200  101  222 1    
   201  101  223 1    
   202  101  224 1    
   203  102  103 2    
   204  102  104 am   BACKBONE|DICT|INTERRES
   205  104  105 1    
   206  104  225 1    
   207  105  106 1    
   208  105  107 1    
   209  105  226 1    
   210  106  227 1    
   211  106  228 1    
   212  106  229 1    
   213  107  108 2    
   214  107  109 am   BACKBONE|DICT|INTERRES
   215  109  110 1    
   216  109  230 1    
   217  110  111 1    
   218  110  112 1    
   219  110  231 1    
   220  111  232 1    
   221  111  233 1    
   222  111  234 1    
   223  112  113 2    
   224  112  114 am   BACKBONE|DICT|INTERRES
   225  114  115 1    
   226  114  235 1    
   227  115  116 1    
   228  115  117 1    
   229  115  236 1    
   230  116  237 1    
   231  116  238 1    
   232  116  239 1    
   233  117  118 2    
   234  117  119 am   BACKBONE|DICT|INTERRES
   235  119  120 1    
   236  119  240 1    
   237  120  121 1    
   238  120  124 1    
   239  120  241 1    
   240  121  122 am   BACKBONE|DICT|INTERRES
   241  121  123 2    
   242  122  242 1    
   243  122  243 1    
   244  124  125 1    
   245  124  244 1    
   246  124  245 1    
   247  125  126 1    
   248  126  246 1    
   249  126  247 1    
@<TRIPOS>SUBSTRUCTURE
     1 UNK         1 GROUP             0       ****    0 ROOT    
