@<TRIPOS>MOLECULE
3R540
247   249    1
SMALL
USER_CHARGES


@<TRIPOS>ATOM
      1 CA         -1.1372   -8.1143  -45.9889 C.3       0 UNK        -0.1800 
      2 C          -0.6447   -9.4958  -45.5857 C.2       0 UNK         0.5000 
      3 O           0.5564   -9.7571  -45.6384 O.2       0 UNK        -0.5000 
      4 N          -1.5595  -10.3770  -45.1594 N.am      1 UNK        -0.5000 
      5 CA         -1.2861  -11.7691  -44.7666 C.3       1 UNK         0.1400 
      6 C6         -2.6020  -12.5734  -44.5810 C.3       23 UNK        -0.0398 
      7 S7         -2.5415  -14.2149  -45.3753 S.3       23 UNK        -0.2404 
      8 C8         -3.5617  -13.9187  -46.8507 C.3       23 UNK        -0.0205 
      9 C9         -3.8495  -15.2071  -47.6047 C.ar      23 UNK        -0.0193 
     10 C10        -3.1878  -15.4953  -48.8014 C.ar      23 UNK        -0.1150 
     11 C11        -3.4948  -16.6555  -49.5196 C.ar      23 UNK        -0.0193 
     12 C12        -4.4749  -17.5252  -49.0333 C.ar      23 UNK        -0.1150 
     13 C13        -5.1220  -17.2656  -47.8199 C.ar      23 UNK        -0.0193 
     14 C14        -4.8083  -16.0991  -47.1171 C.ar      23 UNK        -0.1150 
     15 C15        -6.1715  -18.2217  -47.2596 C.3       23 UNK        -0.0205 
     16 S16        -5.7100  -19.9834  -47.3671 S.3       23 UNK        -0.2404 
     17 C17        -4.0999  -20.0018  -46.5099 C.3       23 UNK        -0.0398 
     18 CA         -3.4783  -21.4213  -46.4821 C.3       11 UNK         0.1400 
     19 N          -2.0255  -21.3664  -46.6609 N.am      11 UNK        -0.5000 
     20 C          -1.2915  -22.2558  -47.3408 C.2       10 UNK         0.5000 
     21 O          -1.7668  -23.1982  -47.9745 O.2       10 UNK        -0.5000 
     22 CA          0.2385  -22.0728  -47.3173 C.3       10 UNK         0.1400 
     23 CB          0.7112  -21.4111  -48.6186 C.3       10 UNK        -0.1800 
     24 N           0.7338  -21.3065  -46.1699 N.am      10 UNK        -0.5000 
     25 C           0.6302  -21.7000  -44.8929 C.2       9 UNK         0.5000 
     26 O           0.1053  -22.7590  -44.5521 O.2       9 UNK        -0.5000 
     27 CA          1.1264  -20.7252  -43.8117 C.3       9 UNK         0.1400 
     28 CB          2.6542  -20.7931  -43.6752 C.3       9 UNK        -0.1800 
     29 N           0.7108  -19.3451  -44.0614 N.am      9 UNK        -0.5000 
     30 C          -0.5614  -18.9211  -44.1075 C.2       8 UNK         0.5000 
     31 O          -1.5349  -19.6479  -43.9097 O.2       8 UNK        -0.5000 
     32 CA         -0.7817  -17.4487  -44.5010 C.3       8 UNK         0.1400 
     33 CB         -0.4643  -16.5172  -43.3209 C.3       8 UNK        -0.1800 
     34 N           0.0127  -17.0676  -45.6706 N.am      8 UNK        -0.5000 
     35 C          -0.1046  -17.6373  -46.8801 C.2       7 UNK         0.5000 
     36 O          -0.9343  -18.5040  -47.1495 O.2       7 UNK        -0.5000 
     37 CA          0.9321  -17.2279  -47.9396 C.3       7 UNK         0.1400 
     38 CB          0.5298  -15.9233  -48.6443 C.3       7 UNK        -0.1800 
     39 N           2.2635  -17.0841  -47.3499 N.am      7 UNK        -0.5000 
     40 C           3.0234  -18.1136  -46.9482 C.2       6 UNK         0.5000 
     41 O           2.6945  -19.2923  -47.0733 O.2       6 UNK        -0.5000 
     42 CA          4.3563  -17.7729  -46.2545 C.3       6 UNK         0.1400 
     43 CB          5.4680  -17.5627  -47.2929 C.3       6 UNK        -0.1800 
     44 N           4.2619  -16.5896  -45.4000 N.am      6 UNK        -0.5000 
     45 C           3.5191  -16.5158  -44.2867 C.2       5 UNK         0.5000 
     46 O           2.8989  -17.4702  -43.8201 O.2       5 UNK        -0.5000 
     47 CA          3.4097  -15.1360  -43.6098 C.3       5 UNK         0.1400 
     48 CB          4.4568  -14.9921  -42.4965 C.3       5 UNK        -0.1800 
     49 N           3.5377  -14.0095  -44.5373 N.am      5 UNK        -0.5000 
     50 C           2.7244  -13.7602  -45.5717 C.2       4 UNK         0.5000 
     51 O           1.8021  -14.5080  -45.9000 O.2       4 UNK        -0.5000 
     52 CA          3.0043  -12.4672  -46.3645 C.3       4 UNK         0.1400 
     53 CB          2.0302  -12.2692  -47.5397 C.3       4 UNK        -0.1800 
     54 N           2.9489  -11.2897  -45.4990 N.am      4 UNK        -0.5000 
     55 C           3.9191  -10.8785  -44.6714 C.2       3 UNK         0.5000 
     56 O           5.0109  -11.4397  -44.5694 O.2       3 UNK        -0.5000 
     57 CA          3.5890   -9.6781  -43.7714 C.3       3 UNK         0.1400 
     58 CB          3.6087   -8.3644  -44.5691 C.3       3 UNK        -0.1800 
     59 N           2.2791   -9.8566  -43.1471 N.am      3 UNK        -0.5000 
     60 C           2.0704  -10.5247  -42.0033 C.2       2 UNK         0.5000 
     61 O           2.9744  -10.9835  -41.3042 O.2       2 UNK        -0.5000 
     62 CA          0.6049  -10.7215  -41.5658 C.3       2 UNK         0.1400 
     63 CB          0.1497   -9.5606  -40.6684 C.3       2 UNK        -0.1800 
     64 N          -0.3143  -10.8398  -42.6985 N.am      2 UNK        -0.5000 
     65 C          -0.3626  -11.8910  -43.5302 C.2       1 UNK         0.5000 
     66 O           0.3016  -12.9120  -43.3617 O.2       1 UNK        -0.5000 
     67 C          -3.8852  -22.2023  -45.2117 C.2       11 UNK         0.5000 
     68 O          -5.0621  -22.5316  -45.0582 O.2       11 UNK        -0.5000 
     69 N          -2.9248  -22.4872  -44.3223 N.am      12 UNK        -0.5000 
     70 CA         -3.1209  -23.2936  -43.1194 C.3       12 UNK         0.1400 
     71 CB         -2.2968  -22.6968  -41.9672 C.3       12 UNK        -0.1800 
     72 C          -2.7235  -24.7557  -43.3768 C.2       12 UNK         0.5000 
     73 O          -3.4545  -25.6657  -42.9847 O.2       12 UNK        -0.5000 
     74 N          -1.5734  -24.9543  -44.0343 N.am      13 UNK        -0.5000 
     75 CA         -0.9976  -26.2627  -44.3443 C.3       13 UNK         0.1400 
     76 CB          0.5022  -26.0811  -44.6266 C.3       13 UNK        -0.1800 
     77 C          -1.6777  -26.9733  -45.5292 C.2       13 UNK         0.5000 
     78 O          -1.5541  -28.1934  -45.6476 O.2       13 UNK        -0.5000 
     79 N          -2.3633  -26.2140  -46.3896 N.am      14 UNK        -0.5000 
     80 CA         -3.0314  -26.6910  -47.5943 C.3       14 UNK         0.1400 
     81 CB         -2.0050  -26.7914  -48.7386 C.3       14 UNK        -0.1800 
     82 C          -4.1767  -25.7344  -47.9542 C.2       14 UNK         0.5000 
     83 O          -4.3315  -24.6865  -47.3244 O.2       14 UNK        -0.5000 
     84 N          -4.9515  -26.0913  -48.9849 N.am      15 UNK        -0.5000 
     85 CA         -6.0187  -25.2669  -49.5548 C.3       15 UNK         0.1400 
     86 CB         -6.9943  -26.1818  -50.3172 C.3       15 UNK        -0.1800 
     87 C          -5.4331  -24.1522  -50.4466 C.2       15 UNK         0.5000 
     88 O          -5.5527  -24.2196  -51.6707 O.2       15 UNK        -0.5000 
     89 N          -4.7527  -23.1864  -49.8109 N.am      16 UNK        -0.5000 
     90 CA         -4.0320  -22.0558  -50.4098 C.3       16 UNK         0.1400 
     91 CB         -5.0186  -21.0494  -51.0344 C.3       16 UNK        -0.1800 
     92 C          -2.9546  -22.5469  -51.3948 C.2       16 UNK         0.5000 
     93 O          -3.0621  -22.3202  -52.6013 O.2       16 UNK        -0.5000 
     94 N          -1.9728  -23.2757  -50.8439 N.am      17 UNK        -0.5000 
     95 CA         -0.8731  -23.9709  -51.5285 C.3       17 UNK         0.1400 
     96 CB         -0.0034  -22.9915  -52.3459 C.3       17 UNK        -0.1800 
     97 C          -1.3286  -25.1756  -52.3805 C.2       17 UNK         0.5000 
     98 O          -0.5737  -25.6251  -53.2429 O.2       17 UNK        -0.5000 
     99 N          -2.5567  -25.6651  -52.1486 N.am      18 UNK        -0.5000 
    100 CA        -3.2645  -26.7709  -52.8176 C.3       18 UNK         0.1400 
    101 CB        -2.4877  -28.0971  -52.7053 C.3       18 UNK        -0.1800 
    102 C         -3.6634  -26.4890  -54.2812 C.2       18 UNK         0.5000 
    103 O         -4.7123  -26.9586  -54.7224 O.2       18 UNK        -0.5000 
    104 N         -2.8481  -25.7066  -54.9974 N.am      19 UNK        -0.5000 
    105 CA        -3.0951  -25.2045  -56.3502 C.3       19 UNK         0.1400 
    106 CB        -1.7681  -24.6739  -56.9163 C.3       19 UNK        -0.1800 
    107 C         -4.1820  -24.1097  -56.4124 C.2       19 UNK         0.5000 
    108 O         -4.6316  -23.7806  -57.5109 O.2       19 UNK        -0.5000 
    109 N         -4.5690  -23.5822  -55.2413 N.am      20 UNK        -0.5000 
    110 CA        -5.4800  -22.4694  -54.9741 C.3       20 UNK         0.1400 
    111 CB        -6.8229  -22.6066  -55.7190 C.3       20 UNK        -0.1800 
    112 C         -4.8180  -21.1030  -55.2234 C.2       20 UNK         0.5000 
    113 O         -3.8757  -20.9855  -56.0124 O.2       20 UNK        -0.5000 
    114 N         -5.3182  -20.0888  -54.5022 N.am      21 UNK        -0.5000 
    115 CA        -4.8910  -18.6824  -54.5263 C.3       21 UNK         0.1400 
    116 CB        -5.3009  -18.0283  -55.8620 C.3       21 UNK        -0.1800 
    117 C         -3.3964  -18.4564  -54.1981 C.2       21 UNK         0.5000 
    118 O         -2.8469  -17.4149  -54.5599 O.2       21 UNK        -0.5000 
    119 N         -2.7689  -19.4287  -53.5212 N.am      22 UNK        -0.5000 
    120 CA        -1.3281  -19.4966  -53.2305 C.3       22 UNK         0.1400 
    121 C         -0.4394  -19.7028  -54.4964 C.2       22 UNK         0.5000 
    122 N         -0.9786  -20.1889  -55.6101 N.am      22 UNK        -0.7600 
    123 O          0.7618  -19.4498  -54.4675 O.2       22 UNK        -0.5000 
    124 C124       -0.8254  -18.3636  -52.2925 C.3       23 UNK        -0.0398 
    125 S125       -1.6581  -18.3834  -50.6673 S.3       23 UNK        -0.2404 
    126 C126       -2.7860  -16.9632  -50.8296 C.3       23 UNK        -0.0205 
    127 H127       -0.6597   -7.3523  -45.3730 H         1 UNK         0.0600 
    128 H128       -0.8859   -7.9182  -47.0312 H         1 UNK         0.0600 
    129 H129       -2.2171   -8.0188  -45.8745 H         1 UNK         0.0600 
    130 H130       -2.5283  -10.0931  -45.1247 H         1 UNK         0.3000 
    131 H131       -0.7293  -12.2039  -45.5989 H         1 UNK         0.0600 
    132 H132       -2.8513  -12.7106  -43.5268 H         1 UNK         0.0800 
    133 H133       -3.4510  -12.0283  -44.9951 H         1 UNK         0.0800 
    134 H134       -3.0579  -13.1975  -47.4963 H         1 UNK         0.0800 
    135 H135       -4.5089  -13.4637  -46.5570 H         1 UNK         0.0800 
    136 H136       -2.4436  -14.8087  -49.1792 H         1 UNK         0.1150 
    137 H137       -4.7157  -18.4181  -49.5914 H         1 UNK         0.1150 
    138 H138       -5.3135  -15.8775  -46.1874 H         1 UNK         0.1150 
    139 H139       -6.3812  -17.9886  -46.2145 H         1 UNK         0.0800 
    140 H140       -7.1051  -18.0707  -47.8027 H         1 UNK         0.0800 
    141 H141       -4.2001  -19.5739  -45.5104 H         1 UNK         0.0800 
    142 H142       -3.4449  -19.3220  -47.0555 H         1 UNK         0.0800 
    143 H143       -3.8883  -21.9881  -47.3179 H         1 UNK         0.0600 
    144 H144       -1.5514  -20.5816  -46.2305 H         1 UNK         0.3000 
    145 H145        0.6802  -23.0700  -47.2638 H         1 UNK         0.0600 
    146 H146        1.7984  -21.3456  -48.6589 H         1 UNK         0.0600 
    147 H147        0.3904  -21.9899  -49.4829 H         1 UNK         0.0600 
    148 H148        0.3068  -20.4048  -48.7294 H         1 UNK         0.0600 
    149 H149        1.2150  -20.4376  -46.3816 H         1 UNK         0.3000 
    150 H150        0.6875  -21.0346  -42.8610 H         1 UNK         0.0600 
    151 H151        2.9831  -21.8124  -43.4690 H         1 UNK         0.0600 
    152 H152        3.0043  -20.1661  -42.8551 H         1 UNK         0.0600 
    153 H153        3.1558  -20.4632  -44.5851 H         1 UNK         0.0600 
    154 H154        1.4558  -18.6647  -44.1865 H         1 UNK         0.3000 
    155 H155       -1.8338  -17.3212  -44.7649 H         1 UNK         0.0600 
    156 H156        0.5460  -16.6654  -42.9421 H         1 UNK         0.0600 
    157 H157       -1.1509  -16.6961  -42.4930 H         1 UNK         0.0600 
    158 H158       -0.5600  -15.4697  -43.6024 H         1 UNK         0.0600 
    159 H159        0.7003  -16.3334  -45.5474 H         1 UNK         0.3000 
    160 H160        0.9760  -18.0157  -48.6945 H         1 UNK         0.0600 
    161 H161        1.3051  -15.5864  -49.3322 H         1 UNK         0.0600 
    162 H162        0.3296  -15.1179  -47.9378 H         1 UNK         0.0600 
    163 H163       -0.3766  -16.0708  -49.2285 H         1 UNK         0.0600 
    164 H164        2.5512  -16.1416  -47.1226 H         1 UNK         0.3000 
    165 H165        4.6317  -18.6230  -45.6268 H         1 UNK         0.0600 
    166 H166        6.4314  -17.3953  -46.8110 H         1 UNK         0.0600 
    167 H167        5.5739  -18.4396  -47.9330 H         1 UNK         0.0600 
    168 H168        5.2615  -16.7080  -47.9384 H         1 UNK         0.0600 
    169 H169        4.7441  -15.7590  -45.7099 H         1 UNK         0.3000 
    170 H170        2.4184  -15.0716  -43.1568 H         1 UNK         0.0600 
    171 H171        4.3704  -15.8025  -41.7715 H         1 UNK         0.0600 
    172 H172        5.4722  -15.0121  -42.8942 H         1 UNK         0.0600 
    173 H173        4.3267  -14.0555  -41.9533 H         1 UNK         0.0600 
    174 H174        4.2620  -13.3283  -44.3369 H         1 UNK         0.3000 
    175 H175        4.0101  -12.5532  -46.7805 H         1 UNK         0.0600 
    176 H176        0.9976  -12.1905  -47.2003 H         1 UNK         0.0600 
    177 H177        2.2665  -11.3638  -48.0987 H         1 UNK         0.0600 
    178 H178        2.0839  -13.1051  -48.2381 H         1 UNK         0.0600 
    179 H179        2.0748  -10.7683  -45.5149 H         1 UNK         0.3000 
    180 H180        4.3576   -9.6110  -42.9984 H         1 UNK         0.0600 
    181 H181        2.8647   -8.3580  -45.3661 H         1 UNK         0.0600 
    182 H182        4.5840   -8.2049  -45.0304 H         1 UNK         0.0600 
    183 H183        3.4117   -7.5097  -43.9219 H         1 UNK         0.0600 
    184 H184        1.4795   -9.5684  -43.6960 H         1 UNK         0.3000 
    185 H185        0.5529  -11.6440  -40.9834 H         1 UNK         0.0600 
    186 H186        0.8022   -9.4601  -39.8000 H         1 UNK         0.0600 
    187 H187        0.1639   -8.6091  -41.2015 H         1 UNK         0.0600 
    188 H188       -0.8619   -9.7229  -40.2961 H         1 UNK         0.0600 
    189 H189       -0.8977  -10.0409  -42.8997 H         1 UNK         0.3000 
    190 H190       -1.9797  -22.1791  -44.5110 H         1 UNK         0.3000 
    191 H191       -4.1709  -23.2759  -42.8199 H         1 UNK         0.0600 
    192 H192       -1.2279  -22.7060  -42.1810 H         1 UNK         0.0600 
    193 H193       -2.4517  -23.2596  -41.0459 H         1 UNK         0.0600 
    194 H194       -2.5870  -21.6642  -41.7717 H         1 UNK         0.0600 
    195 H195       -1.0066  -24.1468  -44.2868 H         1 UNK         0.3000 
    196 H196       -1.1045  -26.9057  -43.4681 H         1 UNK         0.0600 
    197 H197        0.6720  -25.4423  -45.4946 H         1 UNK         0.0600 
    198 H198        0.9838  -27.0397  -44.8237 H         1 UNK         0.0600 
    199 H199        1.0122  -25.6298  -43.7752 H         1 UNK         0.0600 
    200 H200       -2.4770  -25.2240  -46.2105 H         1 UNK         0.3000 
    201 H201       -3.4683  -27.6734  -47.4041 H         1 UNK         0.0600 
    202 H202       -2.4662  -27.1645  -49.6516 H         1 UNK         0.0600 
    203 H203       -1.1958  -27.4770  -48.4872 H         1 UNK         0.0600 
    204 H204       -1.5611  -25.8213  -48.9635 H         1 UNK         0.0600 
    205 H205       -4.7701  -26.9680  -49.4511 H         1 UNK         0.3000 
    206 H206       -6.5751  -24.7872  -48.7464 H         1 UNK         0.0600 
    207 H207       -7.4413  -26.9210  -49.6522 H         1 UNK         0.0600 
    208 H208       -7.8101  -25.6040  -50.7534 H         1 UNK         0.0600 
    209 H209       -6.5006  -26.7170  -51.1292 H         1 UNK         0.0600 
    210 H210       -4.6402  -23.3015  -48.8086 H         1 UNK         0.3000 
    211 H211       -3.5087  -21.5387  -49.6048 H         1 UNK         0.0600 
    212 H212       -5.5795  -21.4850  -51.8590 H         1 UNK         0.0600 
    213 H213       -4.4935  -20.1723  -51.4121 H         1 UNK         0.0600 
    214 H214       -5.7403  -20.6996  -50.2974 H         1 UNK         0.0600 
    215 H215       -1.9840  -23.3850  -49.8312 H         1 UNK         0.3000 
    216 H216       -0.2463  -24.3823  -50.7362 H         1 UNK         0.0600 
    217 H217       -0.5084  -22.6672  -53.2562 H         1 UNK         0.0600 
    218 H218        0.9310  -23.4640  -52.6505 H         1 UNK         0.0600 
    219 H219        0.2592  -22.1047  -51.7716 H         1 UNK         0.0600 
    220 H220       -3.1124  -25.1585  -51.4752 H         1 UNK         0.3000 
    221 H221       -4.1976  -26.8922  -52.2657 H         1 UNK         0.0600 
    222 H222       -1.5561  -28.0748  -53.2710 H         1 UNK         0.0600 
    223 H223       -2.2448  -28.3336  -51.6704 H         1 UNK         0.0600 
    224 H224       -3.0805  -28.9256  -53.0950 H         1 UNK         0.0600 
    225 H225       -1.9766  -25.4276  -54.5580 H         1 UNK         0.3000 
    226 H226       -3.4296  -26.0376  -56.9715 H         1 UNK         0.0600 
    227 H227       -1.0043  -25.4517  -56.9288 H         1 UNK         0.0600 
    228 H228       -1.8912  -24.3234  -57.9418 H         1 UNK         0.0600 
    229 H229       -1.3877  -23.8381  -56.3271 H         1 UNK         0.0600 
    230 H230       -4.0832  -23.9138  -54.4193 H         1 UNK         0.3000 
    231 H231       -5.6919  -22.5401  -53.9074 H         1 UNK         0.0600 
    232 H232       -7.2519  -23.5992  -55.5818 H         1 UNK         0.0600 
    233 H233       -6.7188  -22.4269  -56.7892 H         1 UNK         0.0600 
    234 H234       -7.5490  -21.8849  -55.3435 H         1 UNK         0.0600 
    235 H235       -6.0832  -20.2887  -53.8733 H         1 UNK         0.3000 
    236 H236       -5.4468  -18.1839  -53.7309 H         1 UNK         0.0600 
    237 H237       -5.1274  -16.9517  -55.8440 H         1 UNK         0.0600 
    238 H238       -4.7361  -18.4368  -56.7006 H         1 UNK         0.0600 
    239 H239       -6.3608  -18.1795  -56.0664 H         1 UNK         0.0600 
    240 H240       -3.2803  -20.2747  -53.3032 H         1 UNK         0.3000 
    241 H241       -1.1997  -20.4222  -52.6745 H         1 UNK         0.0600 
    242 H242       -1.9666  -20.4177  -55.6589 H         1 UNK         0.3800 
    243 H243       -0.3963  -20.3267  -56.4202 H         1 UNK         0.3800 
    244 H244        0.2407  -18.4831  -52.0939 H         1 UNK         0.0800 
    245 H245       -0.9304  -17.3864  -52.7642 H         1 UNK         0.0800 
    246 H246       -2.2248  -16.0925  -51.1720 H         1 UNK         0.0800 
    247 H247       -3.5310  -17.1739  -51.5962 H         1 UNK         0.0800 
@<TRIPOS>BOND
     1    1    2 1    
     2    1  127 1    
     3    1  128 1    
     4    1  129 1    
     5    2    3 2    
     6    2    4 am   BACKBONE|DICT|INTERRES
     7    4    5 1    
     8    4  130 1    
     9    5    6 1    
    10    5   65 1    
    11    5  131 1    
    12    6    7 1    
    13    6  132 1    
    14    6  133 1    
    15    7    8 1    
    16    8    9 1    
    17    8  134 1    
    18    8  135 1    
    19    9   10 ar   
    20    9   14 ar   
    21   10   11 ar   
    22   10  136 1    
    23   11   12 ar   
    24   11  126 1    
    25   12   13 ar   
    26   12  137 1    
    27   13   14 ar   
    28   13   15 1    
    29   14  138 1    
    30   15   16 1    
    31   15  139 1    
    32   15  140 1    
    33   16   17 1    
    34   17   18 1    
    35   17  141 1    
    36   17  142 1    
    37   18   19 1    
    38   18   67 1    
    39   18  143 1    
    40   19   20 am   BACKBONE|DICT|INTERRES
    41   19  144 1    
    42   20   21 2    
    43   20   22 1    
    44   22   23 1    
    45   22   24 1    
    46   22  145 1    
    47   23  146 1    
    48   23  147 1    
    49   23  148 1    
    50   24   25 am   BACKBONE|DICT|INTERRES
    51   24  149 1    
    52   25   26 2    
    53   25   27 1    
    54   27   28 1    
    55   27   29 1    
    56   27  150 1    
    57   28  151 1    
    58   28  152 1    
    59   28  153 1    
    60   29   30 am   BACKBONE|DICT|INTERRES
    61   29  154 1    
    62   30   31 2    
    63   30   32 1    
    64   32   33 1    
    65   32   34 1    
    66   32  155 1    
    67   33  156 1    
    68   33  157 1    
    69   33  158 1    
    70   34   35 am   BACKBONE|DICT|INTERRES
    71   34  159 1    
    72   35   36 2    
    73   35   37 1    
    74   37   38 1    
    75   37   39 1    
    76   37  160 1    
    77   38  161 1    
    78   38  162 1    
    79   38  163 1    
    80   39   40 am   BACKBONE|DICT|INTERRES
    81   39  164 1    
    82   40   41 2    
    83   40   42 1    
    84   42   43 1    
    85   42   44 1    
    86   42  165 1    
    87   43  166 1    
    88   43  167 1    
    89   43  168 1    
    90   44   45 am   BACKBONE|DICT|INTERRES
    91   44  169 1    
    92   45   46 2    
    93   45   47 1    
    94   47   48 1    
    95   47   49 1    
    96   47  170 1    
    97   48  171 1    
    98   48  172 1    
    99   48  173 1    
   100   49   50 am   BACKBONE|DICT|INTERRES
   101   49  174 1    
   102   50   51 2    
   103   50   52 1    
   104   52   53 1    
   105   52   54 1    
   106   52  175 1    
   107   53  176 1    
   108   53  177 1    
   109   53  178 1    
   110   54   55 am   BACKBONE|DICT|INTERRES
   111   54  179 1    
   112   55   56 2    
   113   55   57 1    
   114   57   58 1    
   115   57   59 1    
   116   57  180 1    
   117   58  181 1    
   118   58  182 1    
   119   58  183 1    
   120   59   60 am   BACKBONE|DICT|INTERRES
   121   59  184 1    
   122   60   61 2    
   123   60   62 1    
   124   62   63 1    
   125   62   64 1    
   126   62  185 1    
   127   63  186 1    
   128   63  187 1    
   129   63  188 1    
   130   64   65 am   BACKBONE|DICT|INTERRES
   131   64  189 1    
   132   65   66 2    
   133   67   68 2    
   134   67   69 am   BACKBONE|DICT|INTERRES
   135   69   70 1    
   136   69  190 1    
   137   70   71 1    
   138   70   72 1    
   139   70  191 1    
   140   71  192 1    
   141   71  193 1    
   142   71  194 1    
   143   72   73 2    
   144   72   74 am   BACKBONE|DICT|INTERRES
   145   74   75 1    
   146   74  195 1    
   147   75   76 1    
   148   75   77 1    
   149   75  196 1    
   150   76  197 1    
   151   76  198 1    
   152   76  199 1    
   153   77   78 2    
   154   77   79 am   BACKBONE|DICT|INTERRES
   155   79   80 1    
   156   79  200 1    
   157   80   81 1    
   158   80   82 1    
   159   80  201 1    
   160   81  202 1    
   161   81  203 1    
   162   81  204 1    
   163   82   83 2    
   164   82   84 am   BACKBONE|DICT|INTERRES
   165   84   85 1    
   166   84  205 1    
   167   85   86 1    
   168   85   87 1    
   169   85  206 1    
   170   86  207 1    
   171   86  208 1    
   172   86  209 1    
   173   87   88 2    
   174   87   89 am   BACKBONE|DICT|INTERRES
   175   89   90 1    
   176   89  210 1    
   177   90   91 1    
   178   90   92 1    
   179   90  211 1    
   180   91  212 1    
   181   91  213 1    
   182   91  214 1    
   183   92   93 2    
   184   92   94 am   BACKBONE|DICT|INTERRES
   185   94   95 1    
   186   94  215 1    
   187   95   96 1    
   188   95   97 1    
   189   95  216 1    
   190   96  217 1    
   191   96  218 1    
   192   96  219 1    
   193   97   98 2    
   194   97   99 am   BACKBONE|DICT|INTERRES
   195   99  100 1    
   196   99  220 1    
   197  100  101 1    
   198  100  102 1    
   199  100  221 1    
   200  101  222 1    
   201  101  223 1    
   202  101  224 1    
   203  102  103 2    
   204  102  104 am   BACKBONE|DICT|INTERRES
   205  104  105 1    
   206  104  225 1    
   207  105  106 1    
   208  105  107 1    
   209  105  226 1    
   210  106  227 1    
   211  106  228 1    
   212  106  229 1    
   213  107  108 2    
   214  107  109 am   BACKBONE|DICT|INTERRES
   215  109  110 1    
   216  109  230 1    
   217  110  111 1    
   218  110  112 1    
   219  110  231 1    
   220  111  232 1    
   221  111  233 1    
   222  111  234 1    
   223  112  113 2    
   224  112  114 am   BACKBONE|DICT|INTERRES
   225  114  115 1    
   226  114  235 1    
   227  115  116 1    
   228  115  117 1    
   229  115  236 1    
   230  116  237 1    
   231  116  238 1    
   232  116  239 1    
   233  117  118 2    
   234  117  119 am   BACKBONE|DICT|INTERRES
   235  119  120 1    
   236  119  240 1    
   237  120  121 1    
   238  120  124 1    
   239  120  241 1    
   240  121  122 am   BACKBONE|DICT|INTERRES
   241  121  123 2    
   242  122  242 1    
   243  122  243 1    
   244  124  125 1    
   245  124  244 1    
   246  124  245 1    
   247  125  126 1    
   248  126  246 1    
   249  126  247 1    
@<TRIPOS>SUBSTRUCTURE
     1 UNK         1 GROUP             0       ****    0 ROOT    
