@<TRIPOS>MOLECULE
3R540
247   249    1
SMALL
USER_CHARGES


@<TRIPOS>ATOM
      1 CA         -6.2569   -9.8257  -44.5579 C.3       0 UNK        -0.1800 
      2 C          -4.9537  -10.2687  -45.2083 C.2       0 UNK         0.5000 
      3 O          -4.0660   -9.4432  -45.4254 O.2       0 UNK        -0.5000 
      4 N          -4.8394  -11.5640  -45.5270 N.am      1 UNK        -0.5000 
      5 CA         -3.6367  -12.1846  -46.0896 C.3       1 UNK         0.1400 
      6 C6         -3.9601  -13.5688  -46.7025 C.3       23 UNK        -0.0398 
      7 S7         -2.7251  -14.0994  -47.9336 S.3       23 UNK        -0.2404 
      8 C8         -3.5084  -15.6332  -48.5132 C.3       23 UNK        -0.0205 
      9 C9         -2.6408  -16.3410  -49.5392 C.ar      23 UNK        -0.0193 
     10 C10        -2.8347  -16.1056  -50.9034 C.ar      23 UNK        -0.1150 
     11 C11        -2.0510  -16.7629  -51.8559 C.ar      23 UNK        -0.0193 
     12 C12        -1.0763  -17.6703  -51.4301 C.ar      23 UNK        -0.1150 
     13 C13        -0.8565  -17.8981  -50.0687 C.ar      23 UNK        -0.0193 
     14 C14        -1.6450  -17.2314  -49.1266 C.ar      23 UNK        -0.1150 
     15 C15         0.2538  -18.8387  -49.6252 C.3       23 UNK        -0.0205 
     16 S16        -0.3791  -20.4944  -49.2175 S.3       23 UNK        -0.2404 
     17 C17        -0.8467  -20.2848  -47.4675 C.3       23 UNK        -0.0398 
     18 CA         -0.9067  -21.6469  -46.7241 C.3       11 UNK         0.1400 
     19 N          -0.1881  -21.6422  -45.4496 N.am      11 UNK        -0.5000 
     20 C           0.1577  -22.7489  -44.7741 C.2       10 UNK         0.5000 
     21 O           0.0225  -23.8904  -45.2135 O.2       10 UNK        -0.5000 
     22 CA          0.7045  -22.5514  -43.3493 C.3       10 UNK         0.1400 
     23 CB          2.2391  -22.6034  -43.3296 C.3       10 UNK        -0.1800 
     24 N           0.2318  -21.3002  -42.7518 N.am      10 UNK        -0.5000 
     25 C          -1.0157  -21.1348  -42.2881 C.2       9 UNK         0.5000 
     26 O          -1.8669  -22.0252  -42.2938 O.2       9 UNK        -0.5000 
     27 CA         -1.3944  -19.7341  -41.7781 C.3       9 UNK         0.1400 
     28 CB         -0.9846  -19.5697  -40.3080 C.3       9 UNK        -0.1800 
     29 N          -0.8262  -18.6489  -42.5826 N.am      9 UNK        -0.5000 
     30 C          -1.1728  -18.3977  -43.8538 C.2       8 UNK         0.5000 
     31 O          -1.9399  -19.1221  -44.4881 O.2       8 UNK        -0.5000 
     32 CA         -0.5624  -17.1811  -44.5795 C.3       8 UNK         0.1400 
     33 CB         -1.6600  -16.2601  -45.1443 C.3       8 UNK        -0.1800 
     34 N           0.4290  -16.4183  -43.8185 N.am      8 UNK        -0.5000 
     35 C           0.2636  -15.6653  -42.7233 C.2       7 UNK         0.5000 
     36 O          -0.8217  -15.4431  -42.1871 O.2       7 UNK        -0.5000 
     37 CA          1.5734  -15.1242  -42.1108 C.3       7 UNK         0.1400 
     38 CB          1.3805  -14.4914  -40.7170 C.3       7 UNK        -0.1800 
     39 N           2.6227  -16.1556  -42.0882 N.am      7 UNK        -0.5000 
     40 C           2.5564  -17.3394  -41.4592 C.2       6 UNK         0.5000 
     41 O           1.6069  -17.6811  -40.7543 O.2       6 UNK        -0.5000 
     42 CA          3.7277  -18.3132  -41.6995 C.3       6 UNK         0.1400 
     43 CB          3.5155  -19.6805  -41.0156 C.3       6 UNK        -0.1800 
     44 N           4.0362  -18.5010  -43.1215 N.am      6 UNK        -0.5000 
     45 C           3.2293  -18.9618  -44.0873 C.2       5 UNK         0.5000 
     46 O           2.0403  -19.2408  -43.9162 O.2       5 UNK        -0.5000 
     47 CA          3.8734  -19.1322  -45.4825 C.3       5 UNK         0.1400 
     48 CB          2.9335  -19.8198  -46.4876 C.3       5 UNK        -0.1800 
     49 N           4.2861  -17.8523  -46.0543 N.am      5 UNK        -0.5000 
     50 C           5.3180  -17.0963  -45.6589 C.2       4 UNK         0.5000 
     51 O           6.1319  -17.4506  -44.8043 O.2       4 UNK        -0.5000 
     52 CA          5.4443  -15.6959  -46.2956 C.3       4 UNK         0.1400 
     53 CB          6.5459  -15.6941  -47.3665 C.3       4 UNK        -0.1800 
     54 N           4.2074  -15.1648  -46.8864 N.am      4 UNK        -0.5000 
     55 C           3.0559  -14.9563  -46.2334 C.2       3 UNK         0.5000 
     56 O           2.8689  -15.2803  -45.0585 O.2       3 UNK        -0.5000 
     57 CA          1.9082  -14.3372  -47.0553 C.3       3 UNK         0.1400 
     58 CB          1.2089  -15.4205  -47.8924 C.3       3 UNK        -0.1800 
     59 N           0.9052  -13.6782  -46.2172 N.am      3 UNK        -0.5000 
     60 C           1.1220  -12.6061  -45.4433 C.2       2 UNK         0.5000 
     61 O           2.1918  -11.9964  -45.4022 O.2       2 UNK        -0.5000 
     62 CA         -0.0786  -12.1294  -44.6088 C.3       2 UNK         0.1400 
     63 CB          0.1479  -10.7639  -43.9311 C.3       2 UNK        -0.1800 
     64 N          -1.2722  -12.0811  -45.4505 N.am      2 UNK        -0.5000 
     65 C          -2.5231  -12.2806  -45.0233 C.2       1 UNK         0.5000 
     66 O          -2.8155  -12.5456  -43.8545 O.2       1 UNK        -0.5000 
     67 C          -2.3585  -22.1035  -46.5058 C.2       11 UNK         0.5000 
     68 O          -2.8052  -23.0355  -47.1691 O.2       11 UNK        -0.5000 
     69 N          -3.0569  -21.4705  -45.5517 N.am      12 UNK        -0.5000 
     70 CA         -4.4426  -21.7627  -45.1757 C.3       12 UNK         0.1400 
     71 CB         -4.8915  -20.7825  -44.0827 C.3       12 UNK        -0.1800 
     72 C          -4.6596  -23.2197  -44.7288 C.2       12 UNK         0.5000 
     73 O          -5.6588  -23.8281  -45.1127 O.2       12 UNK        -0.5000 
     74 N          -3.6825  -23.7781  -44.0002 N.am      13 UNK        -0.5000 
     75 CA         -3.6229  -25.1902  -43.6096 C.3       13 UNK         0.1400 
     76 CB         -2.4349  -25.3913  -42.6567 C.3       13 UNK        -0.1800 
     77 C          -3.5289  -26.1726  -44.7990 C.2       13 UNK         0.5000 
     78 O          -3.8988  -27.3372  -44.6474 O.2       13 UNK        -0.5000 
     79 N          -3.0575  -25.6878  -45.9545 N.am      14 UNK        -0.5000 
     80 CA         -2.9499  -26.4139  -47.2194 C.3       14 UNK         0.1400 
     81 CB         -1.5063  -26.2731  -47.7306 C.3       14 UNK        -0.1800 
     82 C          -3.9832  -25.9157  -48.2558 C.2       14 UNK         0.5000 
     83 O          -3.8343  -26.2013  -49.4440 O.2       14 UNK        -0.5000 
     84 N          -5.0141  -25.1918  -47.7911 N.am      15 UNK        -0.5000 
     85 CA         -6.1344  -24.6306  -48.5532 C.3       15 UNK         0.1400 
     86 CB         -6.9973  -25.7431  -49.1859 C.3       15 UNK        -0.1800 
     87 C          -5.7433  -23.5049  -49.5374 C.2       15 UNK         0.5000 
     88 O          -6.3937  -23.3432  -50.5718 O.2       15 UNK        -0.5000 
     89 N          -4.7235  -22.7170  -49.1638 N.am      16 UNK        -0.5000 
     90 CA         -4.2777  -21.4439  -49.7420 C.3       16 UNK         0.1400 
     91 CB         -5.2309  -20.3073  -49.3184 C.3       16 UNK        -0.1800 
     92 C          -4.0373  -21.5057  -51.2597 C.2       16 UNK         0.5000 
     93 O          -2.9625  -21.9316  -51.6800 O.2       16 UNK        -0.5000 
     94 N          -5.0513  -21.1253  -52.0503 N.am      17 UNK        -0.5000 
     95 CA         -5.0585  -21.1479  -53.5148 C.3       17 UNK         0.1400 
     96 CB         -6.4077  -20.6133  -54.0164 C.3       17 UNK        -0.1800 
     97 C          -4.7627  -22.5305  -54.1312 C.2       17 UNK         0.5000 
     98 O          -4.2541  -22.5966  -55.2501 O.2       17 UNK        -0.5000 
     99 N          -5.0640  -23.6053  -53.3893 N.am      18 UNK        -0.5000 
    100 CA        -4.7254  -24.9803  -53.7542 C.3       18 UNK         0.1400 
    101 CB        -5.5407  -25.9399  -52.8773 C.3       18 UNK        -0.1800 
    102 C         -3.2196  -25.2913  -53.6244 C.2       18 UNK         0.5000 
    103 O         -2.7288  -26.1737  -54.3300 O.2       18 UNK        -0.5000 
    104 N         -2.5180  -24.5807  -52.7309 N.am      19 UNK        -0.5000 
    105 CA        -1.0866  -24.7367  -52.4801 C.3       19 UNK         0.1400 
    106 CB        -0.8029  -24.4957  -50.9893 C.3       19 UNK        -0.1800 
    107 C         -0.2629  -23.7777  -53.3526 C.2       19 UNK         0.5000 
    108 O          0.7355  -24.1973  -53.9394 O.2       19 UNK        -0.5000 
    109 N         -0.7008  -22.5170  -53.4350 N.am      20 UNK        -0.5000 
    110 CA        -0.0863  -21.4630  -54.2307 C.3       20 UNK         0.1400 
    111 CB         0.9504  -20.7076  -53.3813 C.3       20 UNK        -0.1800 
    112 C         -1.2061  -20.5412  -54.7206 C.2       20 UNK         0.5000 
    113 O         -1.8346  -19.8710  -53.9046 O.2       20 UNK        -0.5000 
    114 N         -1.4623  -20.5476  -56.0338 N.am      21 UNK        -0.5000 
    115 CA        -2.5833  -19.8391  -56.6580 C.3       21 UNK         0.1400 
    116 CB        -2.8368  -20.4471  -58.0463 C.3       21 UNK        -0.1800 
    117 C         -2.3953  -18.3130  -56.7662 C.2       21 UNK         0.5000 
    118 O         -3.3868  -17.6044  -56.9422 O.2       21 UNK        -0.5000 
    119 N         -1.1430  -17.8395  -56.6877 N.am      22 UNK        -0.5000 
    120 CA        -0.7300  -16.4328  -56.8736 C.3       22 UNK         0.1400 
    121 C         -0.9091  -15.8938  -58.3293 C.2       22 UNK         0.5000 
    122 N         -1.0664  -16.7442  -59.3369 N.am      22 UNK        -0.7600 
    123 O         -0.8710  -14.6885  -58.5628 O.2       22 UNK        -0.5000 
    124 C124       -1.3167  -15.4639  -55.8044 C.3       23 UNK        -0.0398 
    125 S125       -0.7404  -15.8350  -54.1142 S.3       23 UNK        -0.2404 
    126 C126       -2.2537  -16.4901  -53.3408 C.3       23 UNK        -0.0205 
    127 H127       -6.9534  -10.6559  -44.4377 H         1 UNK         0.0600 
    128 H128       -6.7403   -9.0622  -45.1676 H         1 UNK         0.0600 
    129 H129       -6.0594   -9.4026  -43.5730 H         1 UNK         0.0600 
    130 H130       -5.5905  -12.1961  -45.2902 H         1 UNK         0.3000 
    131 H131       -3.2896  -11.5292  -46.8920 H         1 UNK         0.0600 
    132 H132       -4.9218  -13.5271  -47.2166 H         1 UNK         0.0800 
    133 H133       -4.0633  -14.3339  -45.9303 H         1 UNK         0.0800 
    134 H134       -4.4836  -15.4008  -48.9440 H         1 UNK         0.0800 
    135 H135       -3.6981  -16.2954  -47.6678 H         1 UNK         0.0800 
    136 H136       -3.5947  -15.4058  -51.2213 H         1 UNK         0.1150 
    137 H137       -0.4739  -18.1820  -52.1670 H         1 UNK         0.1150 
    138 H138       -1.4796  -17.3981  -48.0725 H         1 UNK         0.1150 
    139 H139        0.7912  -18.4139  -48.7771 H         1 UNK         0.0800 
    140 H140        0.9924  -18.9401  -50.4215 H         1 UNK         0.0800 
    141 H141       -1.7900  -19.7366  -47.4216 H         1 UNK         0.0800 
    142 H142       -0.1176  -19.6299  -46.9950 H         1 UNK         0.0800 
    143 H143       -0.4266  -22.4087  -47.3432 H         1 UNK         0.0600 
    144 H144       -0.0659  -20.7506  -44.9920 H         1 UNK         0.3000 
    145 H145        0.3406  -23.3822  -42.7409 H         1 UNK         0.0600 
    146 H146        2.6825  -21.8307  -43.9541 H         1 UNK         0.0600 
    147 H147        2.5972  -23.5640  -43.7016 H         1 UNK         0.0600 
    148 H148        2.6261  -22.4841  -42.3178 H         1 UNK         0.0600 
    149 H149        0.8557  -20.5009  -42.8001 H         1 UNK         0.3000 
    150 H150       -2.4814  -19.6457  -41.8328 H         1 UNK         0.0600 
    151 H151        0.0846  -19.7307  -40.1672 H         1 UNK         0.0600 
    152 H152       -1.5067  -20.2903  -39.6775 H         1 UNK         0.0600 
    153 H153       -1.2274  -18.5740  -39.9364 H         1 UNK         0.0600 
    154 H154       -0.1495  -18.0493  -42.1269 H         1 UNK         0.3000 
    155 H155       -0.0159  -17.5971  -45.4263 H         1 UNK         0.0600 
    156 H156       -2.2693  -15.8165  -44.3567 H         1 UNK         0.0600 
    157 H157       -2.3342  -16.8131  -45.7977 H         1 UNK         0.0600 
    158 H158       -1.2316  -15.4512  -45.7316 H         1 UNK         0.0600 
    159 H159        1.3818  -16.5020  -44.1545 H         1 UNK         0.3000 
    160 H160        1.9234  -14.3352  -42.7773 H         1 UNK         0.0600 
    161 H161        0.9715  -15.2019  -39.9983 H         1 UNK         0.0600 
    162 H162        0.6927  -13.6464  -40.7664 H         1 UNK         0.0600 
    163 H163        2.3245  -14.1183  -40.3201 H         1 UNK         0.0600 
    164 H164        3.4087  -15.9828  -42.7005 H         1 UNK         0.3000 
    165 H165        4.6080  -17.8523  -41.2494 H         1 UNK         0.0600 
    166 H166        3.4130  -19.5648  -39.9361 H         1 UNK         0.0600 
    167 H167        2.6151  -20.1780  -41.3755 H         1 UNK         0.0600 
    168 H168        4.3600  -20.3467  -41.1918 H         1 UNK         0.0600 
    169 H169        4.9756  -18.2393  -43.4062 H         1 UNK         0.3000 
    170 H170        4.7551  -19.7645  -45.3598 H         1 UNK         0.0600 
    171 H171        3.4399  -20.0116  -47.4336 H         1 UNK         0.0600 
    172 H172        2.5781  -20.7797  -46.1128 H         1 UNK         0.0600 
    173 H173        2.0634  -19.2000  -46.6966 H         1 UNK         0.0600 
    174 H174        3.6698  -17.4583  -46.7482 H         1 UNK         0.3000 
    175 H175        5.7424  -15.0119  -45.4986 H         1 UNK         0.0600 
    176 H176        7.4913  -16.0535  -46.9576 H         1 UNK         0.0600 
    177 H177        6.2876  -16.3366  -48.2093 H         1 UNK         0.0600 
    178 H178        6.7227  -14.6893  -47.7505 H         1 UNK         0.0600 
    179 H179        4.2672  -14.8926  -47.8572 H         1 UNK         0.3000 
    180 H180        2.3297  -13.5873  -47.7278 H         1 UNK         0.0600 
    181 H181        0.7783  -16.2002  -47.2644 H         1 UNK         0.0600 
    182 H182        1.9057  -15.9013  -48.5799 H         1 UNK         0.0600 
    183 H183        0.4056  -14.9969  -48.4960 H         1 UNK         0.0600 
    184 H184       -0.0054  -14.1104  -46.1898 H         1 UNK         0.3000 
    185 H185       -0.2211  -12.8771  -43.8263 H         1 UNK         0.0600 
    186 H186        1.0224  -10.7888  -43.2798 H         1 UNK         0.0600 
    187 H187        0.3038   -9.9735  -44.6661 H         1 UNK         0.0600 
    188 H188       -0.7054  -10.4827  -43.3136 H         1 UNK         0.0600 
    189 H189       -1.1089  -11.8896  -46.4302 H         1 UNK         0.3000 
    190 H190       -2.6202  -20.6880  -45.0669 H         1 UNK         0.3000 
    191 H191       -5.0619  -21.5952  -46.0591 H         1 UNK         0.0600 
    192 H192       -4.8106  -19.7497  -44.4224 H         1 UNK         0.0600 
    193 H193       -5.9325  -20.9543  -43.8063 H         1 UNK         0.0600 
    194 H194       -4.2895  -20.8848  -43.1795 H         1 UNK         0.0600 
    195 H195       -2.9215  -23.1881  -43.6810 H         1 UNK         0.3000 
    196 H196       -4.5411  -25.4228  -43.0667 H         1 UNK         0.0600 
    197 H197       -1.4878  -25.1568  -43.1435 H         1 UNK         0.0600 
    198 H198       -2.3799  -26.4243  -42.3109 H         1 UNK         0.0600 
    199 H199       -2.5244  -24.7579  -41.7739 H         1 UNK         0.0600 
    200 H200       -2.8022  -24.7076  -46.0056 H         1 UNK         0.3000 
    201 H201       -3.1495  -27.4757  -47.0645 H         1 UNK         0.0600 
    202 H202       -1.2579  -25.2334  -47.9470 H         1 UNK         0.0600 
    203 H203       -0.7916  -26.6365  -46.9921 H         1 UNK         0.0600 
    204 H204       -1.3510  -26.8525  -48.6412 H         1 UNK         0.0600 
    205 H205       -5.0341  -24.9892  -46.7984 H         1 UNK         0.3000 
    206 H206       -6.7629  -24.1378  -47.8103 H         1 UNK         0.0600 
    207 H207       -7.3472  -26.4430  -48.4273 H         1 UNK         0.0600 
    208 H208       -7.8815  -25.3294  -49.6721 H         1 UNK         0.0600 
    209 H209       -6.4503  -26.3139  -49.9341 H         1 UNK         0.0600 
    210 H210       -4.1825  -23.0097  -48.3526 H         1 UNK         0.3000 
    211 H211       -3.3060  -21.2295  -49.2975 H         1 UNK         0.0600 
    212 H212       -5.2250  -20.1817  -48.2357 H         1 UNK         0.0600 
    213 H213       -4.9227  -19.3546  -49.7521 H         1 UNK         0.0600 
    214 H214       -6.2609  -20.4967  -49.6219 H         1 UNK         0.0600 
    215 H215       -5.9142  -20.8492  -51.6055 H         1 UNK         0.3000 
    216 H216       -4.2828  -20.4628  -53.8517 H         1 UNK         0.0600 
    217 H217       -7.2366  -21.2370  -53.6793 H         1 UNK         0.0600 
    218 H218       -6.4367  -20.5880  -55.1067 H         1 UNK         0.0600 
    219 H219       -6.5853  -19.5967  -53.6649 H         1 UNK         0.0600 
    220 H220       -5.4947  -23.4634  -52.4812 H         1 UNK         0.3000 
    221 H221       -5.0125  -25.1410  -54.7955 H         1 UNK         0.0600 
    222 H222       -5.2575  -25.8464  -51.8293 H         1 UNK         0.0600 
    223 H223       -6.6102  -25.7443  -52.9574 H         1 UNK         0.0600 
    224 H224       -5.3734  -26.9769  -53.1708 H         1 UNK         0.0600 
    225 H225       -2.9724  -23.8182  -52.2402 H         1 UNK         0.3000 
    226 H226       -0.7819  -25.7588  -52.7151 H         1 UNK         0.0600 
    227 H227       -1.3986  -25.1666  -50.3734 H         1 UNK         0.0600 
    228 H228        0.2464  -24.6790  -50.7559 H         1 UNK         0.0600 
    229 H229       -1.0331  -23.4743  -50.6843 H         1 UNK         0.0600 
    230 H230       -1.5290  -22.2407  -52.9100 H         1 UNK         0.3000 
    231 H231        0.4179  -21.8929  -55.0989 H         1 UNK         0.0600 
    232 H232        0.5118  -20.3380  -52.4541 H         1 UNK         0.0600 
    233 H233        1.3544  -19.8513  -53.9226 H         1 UNK         0.0600 
    234 H234        1.7874  -21.3536  -53.1169 H         1 UNK         0.0600 
    235 H235       -0.9102  -21.1363  -56.6406 H         1 UNK         0.3000 
    236 H236       -3.4763  -20.0073  -56.0537 H         1 UNK         0.0600 
    237 H237       -1.9691  -20.3416  -58.6985 H         1 UNK         0.0600 
    238 H238       -3.0756  -21.5084  -57.9713 H         1 UNK         0.0600 
    239 H239       -3.6803  -19.9619  -58.5394 H         1 UNK         0.0600 
    240 H240       -0.3957  -18.5011  -56.5387 H         1 UNK         0.3000 
    241 H241        0.3514  -16.4358  -56.7334 H         1 UNK         0.0600 
    242 H242       -1.1691  -16.3874  -60.2743 H         1 UNK         0.3800 
    243 H243       -1.0812  -17.7378  -59.1748 H         1 UNK         0.3800 
    244 H244       -2.4062  -15.4504  -55.8404 H         1 UNK         0.0800 
    245 H245       -1.0050  -14.4382  -56.0071 H         1 UNK         0.0800 
    246 H246       -2.5546  -17.4094  -53.8415 H         1 UNK         0.0800 
    247 H247       -3.0658  -15.7770  -53.4901 H         1 UNK         0.0800 
@<TRIPOS>BOND
     1    1    2 1    
     2    1  127 1    
     3    1  128 1    
     4    1  129 1    
     5    2    3 2    
     6    2    4 am   BACKBONE|DICT|INTERRES
     7    4    5 1    
     8    4  130 1    
     9    5    6 1    
    10    5   65 1    
    11    5  131 1    
    12    6    7 1    
    13    6  132 1    
    14    6  133 1    
    15    7    8 1    
    16    8    9 1    
    17    8  134 1    
    18    8  135 1    
    19    9   10 ar   
    20    9   14 ar   
    21   10   11 ar   
    22   10  136 1    
    23   11   12 ar   
    24   11  126 1    
    25   12   13 ar   
    26   12  137 1    
    27   13   14 ar   
    28   13   15 1    
    29   14  138 1    
    30   15   16 1    
    31   15  139 1    
    32   15  140 1    
    33   16   17 1    
    34   17   18 1    
    35   17  141 1    
    36   17  142 1    
    37   18   19 1    
    38   18   67 1    
    39   18  143 1    
    40   19   20 am   BACKBONE|DICT|INTERRES
    41   19  144 1    
    42   20   21 2    
    43   20   22 1    
    44   22   23 1    
    45   22   24 1    
    46   22  145 1    
    47   23  146 1    
    48   23  147 1    
    49   23  148 1    
    50   24   25 am   BACKBONE|DICT|INTERRES
    51   24  149 1    
    52   25   26 2    
    53   25   27 1    
    54   27   28 1    
    55   27   29 1    
    56   27  150 1    
    57   28  151 1    
    58   28  152 1    
    59   28  153 1    
    60   29   30 am   BACKBONE|DICT|INTERRES
    61   29  154 1    
    62   30   31 2    
    63   30   32 1    
    64   32   33 1    
    65   32   34 1    
    66   32  155 1    
    67   33  156 1    
    68   33  157 1    
    69   33  158 1    
    70   34   35 am   BACKBONE|DICT|INTERRES
    71   34  159 1    
    72   35   36 2    
    73   35   37 1    
    74   37   38 1    
    75   37   39 1    
    76   37  160 1    
    77   38  161 1    
    78   38  162 1    
    79   38  163 1    
    80   39   40 am   BACKBONE|DICT|INTERRES
    81   39  164 1    
    82   40   41 2    
    83   40   42 1    
    84   42   43 1    
    85   42   44 1    
    86   42  165 1    
    87   43  166 1    
    88   43  167 1    
    89   43  168 1    
    90   44   45 am   BACKBONE|DICT|INTERRES
    91   44  169 1    
    92   45   46 2    
    93   45   47 1    
    94   47   48 1    
    95   47   49 1    
    96   47  170 1    
    97   48  171 1    
    98   48  172 1    
    99   48  173 1    
   100   49   50 am   BACKBONE|DICT|INTERRES
   101   49  174 1    
   102   50   51 2    
   103   50   52 1    
   104   52   53 1    
   105   52   54 1    
   106   52  175 1    
   107   53  176 1    
   108   53  177 1    
   109   53  178 1    
   110   54   55 am   BACKBONE|DICT|INTERRES
   111   54  179 1    
   112   55   56 2    
   113   55   57 1    
   114   57   58 1    
   115   57   59 1    
   116   57  180 1    
   117   58  181 1    
   118   58  182 1    
   119   58  183 1    
   120   59   60 am   BACKBONE|DICT|INTERRES
   121   59  184 1    
   122   60   61 2    
   123   60   62 1    
   124   62   63 1    
   125   62   64 1    
   126   62  185 1    
   127   63  186 1    
   128   63  187 1    
   129   63  188 1    
   130   64   65 am   BACKBONE|DICT|INTERRES
   131   64  189 1    
   132   65   66 2    
   133   67   68 2    
   134   67   69 am   BACKBONE|DICT|INTERRES
   135   69   70 1    
   136   69  190 1    
   137   70   71 1    
   138   70   72 1    
   139   70  191 1    
   140   71  192 1    
   141   71  193 1    
   142   71  194 1    
   143   72   73 2    
   144   72   74 am   BACKBONE|DICT|INTERRES
   145   74   75 1    
   146   74  195 1    
   147   75   76 1    
   148   75   77 1    
   149   75  196 1    
   150   76  197 1    
   151   76  198 1    
   152   76  199 1    
   153   77   78 2    
   154   77   79 am   BACKBONE|DICT|INTERRES
   155   79   80 1    
   156   79  200 1    
   157   80   81 1    
   158   80   82 1    
   159   80  201 1    
   160   81  202 1    
   161   81  203 1    
   162   81  204 1    
   163   82   83 2    
   164   82   84 am   BACKBONE|DICT|INTERRES
   165   84   85 1    
   166   84  205 1    
   167   85   86 1    
   168   85   87 1    
   169   85  206 1    
   170   86  207 1    
   171   86  208 1    
   172   86  209 1    
   173   87   88 2    
   174   87   89 am   BACKBONE|DICT|INTERRES
   175   89   90 1    
   176   89  210 1    
   177   90   91 1    
   178   90   92 1    
   179   90  211 1    
   180   91  212 1    
   181   91  213 1    
   182   91  214 1    
   183   92   93 2    
   184   92   94 am   BACKBONE|DICT|INTERRES
   185   94   95 1    
   186   94  215 1    
   187   95   96 1    
   188   95   97 1    
   189   95  216 1    
   190   96  217 1    
   191   96  218 1    
   192   96  219 1    
   193   97   98 2    
   194   97   99 am   BACKBONE|DICT|INTERRES
   195   99  100 1    
   196   99  220 1    
   197  100  101 1    
   198  100  102 1    
   199  100  221 1    
   200  101  222 1    
   201  101  223 1    
   202  101  224 1    
   203  102  103 2    
   204  102  104 am   BACKBONE|DICT|INTERRES
   205  104  105 1    
   206  104  225 1    
   207  105  106 1    
   208  105  107 1    
   209  105  226 1    
   210  106  227 1    
   211  106  228 1    
   212  106  229 1    
   213  107  108 2    
   214  107  109 am   BACKBONE|DICT|INTERRES
   215  109  110 1    
   216  109  230 1    
   217  110  111 1    
   218  110  112 1    
   219  110  231 1    
   220  111  232 1    
   221  111  233 1    
   222  111  234 1    
   223  112  113 2    
   224  112  114 am   BACKBONE|DICT|INTERRES
   225  114  115 1    
   226  114  235 1    
   227  115  116 1    
   228  115  117 1    
   229  115  236 1    
   230  116  237 1    
   231  116  238 1    
   232  116  239 1    
   233  117  118 2    
   234  117  119 am   BACKBONE|DICT|INTERRES
   235  119  120 1    
   236  119  240 1    
   237  120  121 1    
   238  120  124 1    
   239  120  241 1    
   240  121  122 am   BACKBONE|DICT|INTERRES
   241  121  123 2    
   242  122  242 1    
   243  122  243 1    
   244  124  125 1    
   245  124  244 1    
   246  124  245 1    
   247  125  126 1    
   248  126  246 1    
   249  126  247 1    
@<TRIPOS>SUBSTRUCTURE
     1 UNK         1 GROUP             0       ****    0 ROOT    
