@<TRIPOS>MOLECULE
3R540
247   249    1
SMALL
USER_CHARGES


@<TRIPOS>ATOM
      1 CA          0.0194  -14.2105  -52.6543 C.3       0 UNK        -0.1800 
      2 C          -0.3171  -14.5137  -51.2030 C.2       0 UNK         0.5000 
      3 O           0.1200  -15.5282  -50.6595 O.2       0 UNK        -0.5000 
      4 N          -1.0798  -13.6223  -50.5555 N.am      1 UNK        -0.5000 
      5 CA         -1.5518  -13.7762  -49.1699 C.3       1 UNK         0.1400 
      6 C6         -2.8527  -12.9872  -48.8767 C.3       23 UNK        -0.0398 
      7 S7         -4.2294  -13.2181  -50.0658 S.3       23 UNK        -0.2404 
      8 C8         -4.1464  -14.9610  -50.6031 C.3       23 UNK        -0.0205 
      9 C9         -4.9711  -15.8956  -49.7314 C.ar      23 UNK        -0.0193 
     10 C10        -6.2084  -16.3445  -50.1957 C.ar      23 UNK        -0.1150 
     11 C11        -6.9516  -17.2728  -49.4666 C.ar      23 UNK        -0.0193 
     12 C12        -6.4553  -17.7364  -48.2449 C.ar      23 UNK        -0.1150 
     13 C13        -5.2255  -17.2856  -47.7488 C.ar      23 UNK        -0.0193 
     14 C14        -4.4901  -16.3572  -48.5004 C.ar      23 UNK        -0.1150 
     15 C15        -4.7485  -17.8111  -46.3921 C.3       23 UNK        -0.0205 
     16 S16        -2.9338  -17.8813  -46.1762 S.3       23 UNK        -0.2404 
     17 C17        -2.7592  -19.1412  -44.8543 C.3       23 UNK        -0.0398 
     18 CA         -1.6363  -20.1866  -45.1233 C.3       11 UNK         0.1400 
     19 N          -1.4301  -21.0860  -43.9816 N.am      11 UNK        -0.5000 
     20 C          -2.1939  -22.1388  -43.6449 C.2       10 UNK         0.5000 
     21 O          -3.2557  -22.4216  -44.2020 O.2       10 UNK        -0.5000 
     22 CA         -1.6721  -23.0515  -42.5247 C.3       10 UNK         0.1400 
     23 CB         -0.5536  -23.9604  -43.0581 C.3       10 UNK        -0.1800 
     24 N          -1.1518  -22.2913  -41.3926 N.am      10 UNK        -0.5000 
     25 C          -1.8373  -22.0165  -40.2741 C.2       9 UNK         0.5000 
     26 O          -3.0097  -22.3421  -40.0861 O.2       9 UNK        -0.5000 
     27 CA         -1.0807  -21.2432  -39.1836 C.3       9 UNK         0.1400 
     28 CB         -0.2600  -22.2156  -38.3132 C.3       9 UNK        -0.1800 
     29 N          -0.2281  -20.2362  -39.8082 N.am      9 UNK        -0.5000 
     30 C           0.4730  -19.2702  -39.2157 C.2       8 UNK         0.5000 
     31 O           0.5405  -19.1244  -37.9938 O.2       8 UNK        -0.5000 
     32 CA          1.2018  -18.2942  -40.1676 C.3       8 UNK         0.1400 
     33 CB          1.9391  -17.1789  -39.4043 C.3       8 UNK        -0.1800 
     34 N           2.1491  -18.9244  -41.0957 N.am      8 UNK        -0.5000 
     35 C           1.8753  -19.7558  -42.1118 C.2       7 UNK         0.5000 
     36 O           0.7468  -20.1802  -42.3748 O.2       7 UNK        -0.5000 
     37 CA          3.0685  -20.1326  -43.0018 C.3       7 UNK         0.1400 
     38 CB          2.6888  -21.0959  -44.1431 C.3       7 UNK        -0.1800 
     39 N           3.6062  -18.9019  -43.5696 N.am      7 UNK        -0.5000 
     40 C           4.8931  -18.5401  -43.5852 C.2       6 UNK         0.5000 
     41 O           5.8057  -19.2334  -43.1343 O.2       6 UNK        -0.5000 
     42 CA          5.2190  -17.1638  -44.1966 C.3       6 UNK         0.1400 
     43 CB          5.4156  -17.2807  -45.7154 C.3       6 UNK        -0.1800 
     44 N           4.2047  -16.1436  -43.9211 N.am      6 UNK        -0.5000 
     45 C           3.9612  -15.6162  -42.7120 C.2       5 UNK         0.5000 
     46 O           4.5478  -15.9620  -41.6864 O.2       5 UNK        -0.5000 
     47 CA          2.8794  -14.5260  -42.6323 C.3       5 UNK         0.1400 
     48 CB          3.4331  -13.1730  -43.1070 C.3       5 UNK        -0.1800 
     49 N           1.7225  -14.8909  -43.4470 N.am      5 UNK        -0.5000 
     50 C           0.5720  -15.3792  -42.9644 C.2       4 UNK         0.5000 
     51 O           0.3132  -15.4483  -41.7637 O.2       4 UNK        -0.5000 
     52 CA         -0.4795  -15.8749  -43.9778 C.3       4 UNK         0.1400 
     53 CB         -1.6694  -14.9044  -44.0353 C.3       4 UNK        -0.1800 
     54 N           0.0484  -16.0709  -45.3294 N.am      4 UNK        -0.5000 
     55 C           0.8827  -17.0606  -45.6821 C.2       3 UNK         0.5000 
     56 O           1.2878  -17.9138  -44.8966 O.2       3 UNK        -0.5000 
     57 CA          1.4026  -17.0750  -47.1342 C.3       3 UNK         0.1400 
     58 CB          0.4328  -17.8639  -48.0256 C.3       3 UNK        -0.1800 
     59 N           1.5896  -15.7439  -47.7120 N.am      3 UNK        -0.5000 
     60 C           2.2492  -14.7160  -47.1537 C.2       2 UNK         0.5000 
     61 O           2.9451  -14.8244  -46.1438 O.2       2 UNK        -0.5000 
     62 CA          2.0137  -13.3183  -47.7683 C.3       2 UNK         0.1400 
     63 CB          3.2055  -12.9102  -48.6456 C.3       2 UNK        -0.1800 
     64 N           0.7823  -13.2401  -48.5629 N.am      2 UNK        -0.5000 
     65 C          -0.4559  -13.5063  -48.1159 C.2       1 UNK         0.5000 
     66 O          -0.7220  -13.6452  -46.9228 O.2       1 UNK        -0.5000 
     67 C          -1.7873  -21.0074  -46.4280 C.2       11 UNK         0.5000 
     68 O          -0.8408  -21.6852  -46.8350 O.2       11 UNK        -0.5000 
     69 N          -2.9849  -20.9840  -47.0232 N.am      12 UNK        -0.5000 
     70 CA         -3.3573  -21.6838  -48.2463 C.3       12 UNK         0.1400 
     71 CB         -4.7622  -21.2303  -48.6565 C.3       12 UNK        -0.1800 
     72 C          -3.2776  -23.2168  -48.1572 C.2       12 UNK         0.5000 
     73 O          -3.1065  -23.8582  -49.1920 O.2       12 UNK        -0.5000 
     74 N          -3.3449  -23.7847  -46.9441 N.am      13 UNK        -0.5000 
     75 CA         -3.1408  -25.2180  -46.7170 C.3       13 UNK         0.1400 
     76 CB         -3.6262  -25.5941  -45.3091 C.3       13 UNK        -0.1800 
     77 C          -1.6802  -25.6647  -46.9429 C.2       13 UNK         0.5000 
     78 O          -1.4526  -26.8453  -47.2092 O.2       13 UNK        -0.5000 
     79 N          -0.7281  -24.7244  -46.8536 N.am      14 UNK        -0.5000 
     80 CA          0.6829  -24.9382  -47.1704 C.3       14 UNK         0.1400 
     81 CB          1.5546  -24.2798  -46.0884 C.3       14 UNK        -0.1800 
     82 C           1.0270  -24.3732  -48.5586 C.2       14 UNK         0.5000 
     83 O           1.6993  -25.0481  -49.3387 O.2       14 UNK        -0.5000 
     84 N           0.5748  -23.1426  -48.8368 N.am      15 UNK        -0.5000 
     85 CA          0.9082  -22.3880  -50.0465 C.3       15 UNK         0.1400 
     86 CB          0.6241  -20.9044  -49.7871 C.3       15 UNK        -0.1800 
     87 C           0.1928  -22.8699  -51.3223 C.2       15 UNK         0.5000 
     88 O           0.7226  -22.6572  -52.4145 O.2       15 UNK        -0.5000 
     89 N          -0.9795  -23.5048  -51.1701 N.am      16 UNK        -0.5000 
     90 CA         -1.8051  -24.1119  -52.2175 C.3       16 UNK         0.1400 
     91 CB         -1.1492  -25.4215  -52.7088 C.3       16 UNK        -0.1800 
     92 C          -2.1543  -23.1231  -53.3494 C.2       16 UNK         0.5000 
     93 O          -2.9989  -22.2456  -53.1530 O.2       16 UNK        -0.5000 
     94 N          -1.4984  -23.2829  -54.5061 N.am      17 UNK        -0.5000 
     95 CA         -1.6584  -22.4553  -55.6986 C.3       17 UNK         0.1400 
     96 CB         -0.8586  -23.0786  -56.8522 C.3       17 UNK        -0.1800 
     97 C          -1.2417  -20.9880  -55.4911 C.2       17 UNK         0.5000 
     98 O          -1.8719  -20.0978  -56.0632 O.2       17 UNK        -0.5000 
     99 N          -0.1954  -20.7611  -54.6825 N.am      18 UNK        -0.5000 
    100 CA         0.4067  -19.4429  -54.4705 C.3       18 UNK         0.1400 
    101 CB         1.7632  -19.6021  -53.7684 C.3       18 UNK        -0.1800 
    102 C         -0.5019  -18.4699  -53.6997 C.2       18 UNK         0.5000 
    103 O         -0.4845  -17.2728  -53.9850 O.2       18 UNK        -0.5000 
    104 N         -1.3161  -18.9967  -52.7766 N.am      19 UNK        -0.5000 
    105 CA        -2.2963  -18.2391  -51.9991 C.3       19 UNK         0.1400 
    106 CB        -2.5253  -18.9493  -50.6561 C.3       19 UNK        -0.1800 
    107 C         -3.6007  -18.0518  -52.7957 C.2       19 UNK         0.5000 
    108 O         -4.6509  -18.5353  -52.3772 O.2       19 UNK        -0.5000 
    109 N         -3.4974  -17.3937  -53.9601 N.am      20 UNK        -0.5000 
    110 CA        -4.5831  -17.0519  -54.8920 C.3       20 UNK         0.1400 
    111 CB        -5.4245  -15.8966  -54.3141 C.3       20 UNK        -0.1800 
    112 C         -5.4539  -18.2556  -55.3238 C.2       20 UNK         0.5000 
    113 O         -6.6523  -18.0975  -55.5629 O.2       20 UNK        -0.5000 
    114 N         -4.8286  -19.4390  -55.3994 N.am      21 UNK        -0.5000 
    115 CA        -5.4276  -20.7465  -55.6759 C.3       21 UNK         0.1400 
    116 CB        -5.9698  -20.8114  -57.1191 C.3       21 UNK        -0.1800 
    117 C         -6.4484  -21.2319  -54.6217 C.2       21 UNK         0.5000 
    118 O         -7.2667  -22.0987  -54.9359 O.2       21 UNK        -0.5000 
    119 N         -6.3775  -20.7093  -53.3885 N.am      22 UNK        -0.5000 
    120 CA        -7.1937  -21.1748  -52.2532 C.3       22 UNK         0.1400 
    121 C         -6.7715  -22.5643  -51.6916 C.2       22 UNK         0.5000 
    122 N         -5.5725  -23.0673  -51.9620 N.am      22 UNK        -0.7600 
    123 O         -7.5549  -23.2040  -50.9954 O.2       22 UNK        -0.5000 
    124 C124       -7.2673  -20.1278  -51.1123 C.3       23 UNK        -0.0398 
    125 S125       -8.1466  -18.6097  -51.6055 S.3       23 UNK        -0.2404 
    126 C126       -8.2944  -17.7577  -49.9991 C.3       23 UNK        -0.0205 
    127 H127        0.0387  -13.1368  -52.8422 H         1 UNK         0.0600 
    128 H128       -0.7235  -14.6615  -53.3116 H         1 UNK         0.0600 
    129 H129        0.9971  -14.6183  -52.9120 H         1 UNK         0.0600 
    130 H130       -1.4083  -12.7991  -51.0415 H         1 UNK         0.3000 
    131 H131       -1.7824  -14.8313  -49.0207 H         1 UNK         0.0600 
    132 H132       -3.2337  -13.2522  -47.8886 H         1 UNK         0.0800 
    133 H133       -2.6370  -11.9183  -48.8353 H         1 UNK         0.0800 
    134 H134       -4.5246  -14.9965  -51.6248 H         1 UNK         0.0800 
    135 H135       -3.1294  -15.3343  -50.6789 H         1 UNK         0.0800 
    136 H136       -6.5882  -15.9931  -51.1442 H         1 UNK         0.1150 
    137 H137       -7.0331  -18.4496  -47.6739 H         1 UNK         0.1150 
    138 H138       -3.5396  -16.0011  -48.1349 H         1 UNK         0.1150 
    139 H139       -5.1683  -17.1814  -45.6068 H         1 UNK         0.0800 
    140 H140       -5.1612  -18.8089  -46.2405 H         1 UNK         0.0800 
    141 H141       -2.5358  -18.6086  -43.9294 H         1 UNK         0.0800 
    142 H142       -3.7110  -19.6418  -44.6730 H         1 UNK         0.0800 
    143 H143       -0.7015  -19.6377  -45.2327 H         1 UNK         0.0600 
    144 H144       -0.5823  -20.9081  -43.4496 H         1 UNK         0.3000 
    145 H145       -2.4972  -23.6900  -42.2012 H         1 UNK         0.0600 
    146 H146       -0.2319  -24.6735  -42.2989 H         1 UNK         0.0600 
    147 H147       -0.8846  -24.5361  -43.9218 H         1 UNK         0.0600 
    148 H148        0.3194  -23.3848  -43.3655 H         1 UNK         0.0600 
    149 H149       -0.1965  -21.9708  -41.4718 H         1 UNK         0.3000 
    150 H150       -1.8159  -20.7338  -38.5577 H         1 UNK         0.0600 
    151 H151       -0.8916  -23.0115  -37.9164 H         1 UNK         0.0600 
    152 H152        0.1892  -21.7107  -37.4586 H         1 UNK         0.0600 
    153 H153        0.5418  -22.6858  -38.8836 H         1 UNK         0.0600 
    154 H154       -0.1984  -20.2497  -40.8248 H         1 UNK         0.3000 
    155 H155        0.4217  -17.8268  -40.7694 H         1 UNK         0.0600 
    156 H156        1.2600  -16.6393  -38.7431 H         1 UNK         0.0600 
    157 H157        2.3627  -16.4460  -40.0892 H         1 UNK         0.0600 
    158 H158        2.7509  -17.5765  -38.7941 H         1 UNK         0.0600 
    159 H159        3.1119  -18.6426  -40.9796 H         1 UNK         0.3000 
    160 H160        3.8064  -20.6226  -42.3635 H         1 UNK         0.0600 
    161 H161        1.9230  -20.6716  -44.7942 H         1 UNK         0.0600 
    162 H162        2.3038  -22.0359  -43.7479 H         1 UNK         0.0600 
    163 H163        3.5547  -21.3348  -44.7603 H         1 UNK         0.0600 
    164 H164        2.9058  -18.2821  -43.9698 H         1 UNK         0.3000 
    165 H165        6.1606  -16.8240  -43.7601 H         1 UNK         0.0600 
    166 H166        4.5085  -17.6233  -46.2121 H         1 UNK         0.0600 
    167 H167        5.6956  -16.3222  -46.1529 H         1 UNK         0.0600 
    168 H168        6.2080  -17.9916  -45.9528 H         1 UNK         0.0600 
    169 H169        3.7160  -15.7631  -44.7268 H         1 UNK         0.3000 
    170 H170        2.5909  -14.4170  -41.5849 H         1 UNK         0.0600 
    171 H171        2.6797  -12.3898  -43.0219 H         1 UNK         0.0600 
    172 H172        4.2880  -12.8690  -42.5018 H         1 UNK         0.0600 
    173 H173        3.7629  -13.2073  -44.1457 H         1 UNK         0.0600 
    174 H174        1.8603  -14.8721  -44.4505 H         1 UNK         0.3000 
    175 H175       -0.8447  -16.8385  -43.6173 H         1 UNK         0.0600 
    176 H176       -2.1546  -14.8247  -43.0619 H         1 UNK         0.0600 
    177 H177       -1.3552  -13.9017  -44.3265 H         1 UNK         0.0600 
    178 H178       -2.4237  -15.2390  -44.7473 H         1 UNK         0.0600 
    179 H179       -0.2191  -15.3725  -46.0151 H         1 UNK         0.3000 
    180 H180        2.3683  -17.5814  -47.1396 H         1 UNK         0.0600 
    181 H181       -0.5313  -17.3614  -48.1151 H         1 UNK         0.0600 
    182 H182        0.2461  -18.8578  -47.6180 H         1 UNK         0.0600 
    183 H183        0.8344  -17.9894  -49.0312 H         1 UNK         0.0600 
    184 H184        1.0826  -15.5662  -48.5702 H         1 UNK         0.3000 
    185 H185        1.9276  -12.6081  -46.9435 H         1 UNK         0.0600 
    186 H186        3.0864  -11.8957  -49.0264 H         1 UNK         0.0600 
    187 H187        4.1359  -12.9353  -48.0765 H         1 UNK         0.0600 
    188 H188        3.3242  -13.5788  -49.4993 H         1 UNK         0.0600 
    189 H189        0.9021  -13.1489  -49.5612 H         1 UNK         0.3000 
    190 H190       -3.7053  -20.4145  -46.6074 H         1 UNK         0.3000 
    191 H191       -2.6554  -21.3810  -49.0225 H         1 UNK         0.0600 
    192 H192       -5.0575  -21.7051  -49.5893 H         1 UNK         0.0600 
    193 H193       -4.7974  -20.1528  -48.8163 H         1 UNK         0.0600 
    194 H194       -5.5084  -21.4868  -47.9038 H         1 UNK         0.0600 
    195 H195       -3.4674  -23.2005  -46.1232 H         1 UNK         0.3000 
    196 H196       -3.7578  -25.7630  -47.4348 H         1 UNK         0.0600 
    197 H197       -3.5348  -26.6676  -45.1394 H         1 UNK         0.0600 
    198 H198       -4.6753  -25.3320  -45.1713 H         1 UNK         0.0600 
    199 H199       -3.0528  -25.0918  -44.5324 H         1 UNK         0.0600 
    200 H200       -1.0041  -23.7687  -46.6632 H         1 UNK         0.3000 
    201 H201        0.9166  -26.0048  -47.1800 H         1 UNK         0.0600 
    202 H202        1.4153  -24.7691  -45.1251 H         1 UNK         0.0600 
    203 H203        1.3218  -23.2215  -45.9654 H         1 UNK         0.0600 
    204 H204        2.6137  -24.3566  -46.3373 H         1 UNK         0.0600 
    205 H205        0.0580  -22.6370  -48.1213 H         1 UNK         0.3000 
    206 H206        1.9799  -22.4933  -50.2284 H         1 UNK         0.0600 
    207 H207        1.2912  -20.5178  -49.0172 H         1 UNK         0.0600 
    208 H208        0.7730  -20.2983  -50.6801 H         1 UNK         0.0600 
    209 H209       -0.3993  -20.7516  -49.4499 H         1 UNK         0.0600 
    210 H210       -1.3626  -23.5966  -50.2365 H         1 UNK         0.3000 
    211 H211       -2.7541  -24.3808  -51.7533 H         1 UNK         0.0600 
    212 H212       -0.1527  -25.2585  -53.1206 H         1 UNK         0.0600 
    213 H213       -1.7557  -25.9036  -53.4767 H         1 UNK         0.0600 
    214 H214       -1.0492  -26.1324  -51.8883 H         1 UNK         0.0600 
    215 H215       -0.8029  -24.0129  -54.5565 H         1 UNK         0.3000 
    216 H216       -2.7102  -22.4752  -55.9796 H         1 UNK         0.0600 
    217 H217        0.2076  -23.1227  -56.6262 H         1 UNK         0.0600 
    218 H218       -1.1990  -24.0918  -57.0667 H         1 UNK         0.0600 
    219 H219       -0.9765  -22.4973  -57.7678 H         1 UNK         0.0600 
    220 H220        0.2279  -21.5425  -54.1937 H         1 UNK         0.3000 
    221 H221        0.5912  -19.0008  -55.4519 H         1 UNK         0.0600 
    222 H222        2.4484  -20.2006  -54.3688 H         1 UNK         0.0600 
    223 H223        2.2358  -18.6326  -53.6053 H         1 UNK         0.0600 
    224 H224        1.6627  -20.0857  -52.7980 H         1 UNK         0.0600 
    225 H225       -1.3275  -20.0002  -52.6647 H         1 UNK         0.3000 
    226 H226       -1.9017  -17.2446  -51.7820 H         1 UNK         0.0600 
    227 H227       -2.8317  -19.9841  -50.8083 H         1 UNK         0.0600 
    228 H228       -1.6220  -18.9363  -50.0492 H         1 UNK         0.0600 
    229 H229       -3.3045  -18.4568  -50.0741 H         1 UNK         0.0600 
    230 H230       -2.5682  -17.0934  -54.2348 H         1 UNK         0.3000 
    231 H231       -4.1018  -16.6886  -55.8009 H         1 UNK         0.0600 
    232 H232       -6.1566  -15.5404  -55.0396 H         1 UNK         0.0600 
    233 H233       -4.7975  -15.0460  -54.0478 H         1 UNK         0.0600 
    234 H234       -5.9711  -16.2090  -53.4242 H         1 UNK         0.0600 
    235 H235       -3.8323  -19.4536  -55.2179 H         1 UNK         0.3000 
    236 H236       -4.6084  -21.4578  -55.6091 H         1 UNK         0.0600 
    237 H237       -5.2146  -20.4932  -57.8378 H         1 UNK         0.0600 
    238 H238       -6.2581  -21.8289  -57.3853 H         1 UNK         0.0600 
    239 H239       -6.8480  -20.1791  -57.2510 H         1 UNK         0.0600 
    240 H240       -5.7064  -19.9738  -53.1842 H         1 UNK         0.3000 
    241 H241       -8.2119  -21.3119  -52.6228 H         1 UNK         0.0600 
    242 H242       -4.8851  -22.5486  -52.4969 H         1 UNK         0.3800 
    243 H243       -5.3295  -23.9656  -51.5784 H         1 UNK         0.3800 
    244 H244       -7.7840  -20.5389  -50.2432 H         1 UNK         0.0800 
    245 H245       -6.2660  -19.8584  -50.7756 H         1 UNK         0.0800 
    246 H246       -8.7841  -18.4196  -49.2833 H         1 UNK         0.0800 
    247 H247       -8.9533  -16.8970  -50.1196 H         1 UNK         0.0800 
@<TRIPOS>BOND
     1    1    2 1    
     2    1  127 1    
     3    1  128 1    
     4    1  129 1    
     5    2    3 2    
     6    2    4 am   BACKBONE|DICT|INTERRES
     7    4    5 1    
     8    4  130 1    
     9    5    6 1    
    10    5   65 1    
    11    5  131 1    
    12    6    7 1    
    13    6  132 1    
    14    6  133 1    
    15    7    8 1    
    16    8    9 1    
    17    8  134 1    
    18    8  135 1    
    19    9   10 ar   
    20    9   14 ar   
    21   10   11 ar   
    22   10  136 1    
    23   11   12 ar   
    24   11  126 1    
    25   12   13 ar   
    26   12  137 1    
    27   13   14 ar   
    28   13   15 1    
    29   14  138 1    
    30   15   16 1    
    31   15  139 1    
    32   15  140 1    
    33   16   17 1    
    34   17   18 1    
    35   17  141 1    
    36   17  142 1    
    37   18   19 1    
    38   18   67 1    
    39   18  143 1    
    40   19   20 am   BACKBONE|DICT|INTERRES
    41   19  144 1    
    42   20   21 2    
    43   20   22 1    
    44   22   23 1    
    45   22   24 1    
    46   22  145 1    
    47   23  146 1    
    48   23  147 1    
    49   23  148 1    
    50   24   25 am   BACKBONE|DICT|INTERRES
    51   24  149 1    
    52   25   26 2    
    53   25   27 1    
    54   27   28 1    
    55   27   29 1    
    56   27  150 1    
    57   28  151 1    
    58   28  152 1    
    59   28  153 1    
    60   29   30 am   BACKBONE|DICT|INTERRES
    61   29  154 1    
    62   30   31 2    
    63   30   32 1    
    64   32   33 1    
    65   32   34 1    
    66   32  155 1    
    67   33  156 1    
    68   33  157 1    
    69   33  158 1    
    70   34   35 am   BACKBONE|DICT|INTERRES
    71   34  159 1    
    72   35   36 2    
    73   35   37 1    
    74   37   38 1    
    75   37   39 1    
    76   37  160 1    
    77   38  161 1    
    78   38  162 1    
    79   38  163 1    
    80   39   40 am   BACKBONE|DICT|INTERRES
    81   39  164 1    
    82   40   41 2    
    83   40   42 1    
    84   42   43 1    
    85   42   44 1    
    86   42  165 1    
    87   43  166 1    
    88   43  167 1    
    89   43  168 1    
    90   44   45 am   BACKBONE|DICT|INTERRES
    91   44  169 1    
    92   45   46 2    
    93   45   47 1    
    94   47   48 1    
    95   47   49 1    
    96   47  170 1    
    97   48  171 1    
    98   48  172 1    
    99   48  173 1    
   100   49   50 am   BACKBONE|DICT|INTERRES
   101   49  174 1    
   102   50   51 2    
   103   50   52 1    
   104   52   53 1    
   105   52   54 1    
   106   52  175 1    
   107   53  176 1    
   108   53  177 1    
   109   53  178 1    
   110   54   55 am   BACKBONE|DICT|INTERRES
   111   54  179 1    
   112   55   56 2    
   113   55   57 1    
   114   57   58 1    
   115   57   59 1    
   116   57  180 1    
   117   58  181 1    
   118   58  182 1    
   119   58  183 1    
   120   59   60 am   BACKBONE|DICT|INTERRES
   121   59  184 1    
   122   60   61 2    
   123   60   62 1    
   124   62   63 1    
   125   62   64 1    
   126   62  185 1    
   127   63  186 1    
   128   63  187 1    
   129   63  188 1    
   130   64   65 am   BACKBONE|DICT|INTERRES
   131   64  189 1    
   132   65   66 2    
   133   67   68 2    
   134   67   69 am   BACKBONE|DICT|INTERRES
   135   69   70 1    
   136   69  190 1    
   137   70   71 1    
   138   70   72 1    
   139   70  191 1    
   140   71  192 1    
   141   71  193 1    
   142   71  194 1    
   143   72   73 2    
   144   72   74 am   BACKBONE|DICT|INTERRES
   145   74   75 1    
   146   74  195 1    
   147   75   76 1    
   148   75   77 1    
   149   75  196 1    
   150   76  197 1    
   151   76  198 1    
   152   76  199 1    
   153   77   78 2    
   154   77   79 am   BACKBONE|DICT|INTERRES
   155   79   80 1    
   156   79  200 1    
   157   80   81 1    
   158   80   82 1    
   159   80  201 1    
   160   81  202 1    
   161   81  203 1    
   162   81  204 1    
   163   82   83 2    
   164   82   84 am   BACKBONE|DICT|INTERRES
   165   84   85 1    
   166   84  205 1    
   167   85   86 1    
   168   85   87 1    
   169   85  206 1    
   170   86  207 1    
   171   86  208 1    
   172   86  209 1    
   173   87   88 2    
   174   87   89 am   BACKBONE|DICT|INTERRES
   175   89   90 1    
   176   89  210 1    
   177   90   91 1    
   178   90   92 1    
   179   90  211 1    
   180   91  212 1    
   181   91  213 1    
   182   91  214 1    
   183   92   93 2    
   184   92   94 am   BACKBONE|DICT|INTERRES
   185   94   95 1    
   186   94  215 1    
   187   95   96 1    
   188   95   97 1    
   189   95  216 1    
   190   96  217 1    
   191   96  218 1    
   192   96  219 1    
   193   97   98 2    
   194   97   99 am   BACKBONE|DICT|INTERRES
   195   99  100 1    
   196   99  220 1    
   197  100  101 1    
   198  100  102 1    
   199  100  221 1    
   200  101  222 1    
   201  101  223 1    
   202  101  224 1    
   203  102  103 2    
   204  102  104 am   BACKBONE|DICT|INTERRES
   205  104  105 1    
   206  104  225 1    
   207  105  106 1    
   208  105  107 1    
   209  105  226 1    
   210  106  227 1    
   211  106  228 1    
   212  106  229 1    
   213  107  108 2    
   214  107  109 am   BACKBONE|DICT|INTERRES
   215  109  110 1    
   216  109  230 1    
   217  110  111 1    
   218  110  112 1    
   219  110  231 1    
   220  111  232 1    
   221  111  233 1    
   222  111  234 1    
   223  112  113 2    
   224  112  114 am   BACKBONE|DICT|INTERRES
   225  114  115 1    
   226  114  235 1    
   227  115  116 1    
   228  115  117 1    
   229  115  236 1    
   230  116  237 1    
   231  116  238 1    
   232  116  239 1    
   233  117  118 2    
   234  117  119 am   BACKBONE|DICT|INTERRES
   235  119  120 1    
   236  119  240 1    
   237  120  121 1    
   238  120  124 1    
   239  120  241 1    
   240  121  122 am   BACKBONE|DICT|INTERRES
   241  121  123 2    
   242  122  242 1    
   243  122  243 1    
   244  124  125 1    
   245  124  244 1    
   246  124  245 1    
   247  125  126 1    
   248  126  246 1    
   249  126  247 1    
@<TRIPOS>SUBSTRUCTURE
     1 UNK         1 GROUP             0       ****    0 ROOT    
