@<TRIPOS>MOLECULE
3R540
247   249    1
SMALL
USER_CHARGES


@<TRIPOS>ATOM
      1 CA          0.5254  -11.1979  -48.6781 C.3       0 UNK        -0.1800 
      2 C           0.1969  -12.0838  -47.4863 C.2       0 UNK         0.5000 
      3 O           0.5747  -11.7599  -46.3612 O.2       0 UNK        -0.5000 
      4 N          -0.5226  -13.1887  -47.7218 N.am      1 UNK        -0.5000 
      5 CA         -0.8929  -14.2199  -46.7380 C.3       1 UNK         0.1400 
      6 C6         -1.6077  -15.4117  -47.4148 C.3       23 UNK        -0.0398 
      7 S7         -0.5176  -16.2939  -48.5815 S.3       23 UNK        -0.2404 
      8 C8         -0.0979  -17.7431  -47.5694 C.3       23 UNK        -0.0205 
      9 C9          0.6067  -18.8246  -48.3674 C.ar      23 UNK        -0.0193 
     10 C10        -0.0874  -19.5153  -49.3599 C.ar      23 UNK        -0.1150 
     11 C11         0.5198  -20.5570  -50.0618 C.ar      23 UNK        -0.0193 
     12 C12         1.8379  -20.9111  -49.7615 C.ar      23 UNK        -0.1150 
     13 C13         2.5317  -20.2558  -48.7364 C.ar      23 UNK        -0.0193 
     14 C14         1.9179  -19.1947  -48.0638 C.ar      23 UNK        -0.1150 
     15 C15         3.9206  -20.7138  -48.3007 C.3       23 UNK        -0.0205 
     16 S16         4.0793  -22.5210  -48.0627 S.3       23 UNK        -0.2404 
     17 C17         2.4929  -23.0097  -47.2958 C.3       23 UNK        -0.0398 
     18 CA          2.6799  -24.0628  -46.1776 C.3       11 UNK         0.1400 
     19 N           3.1221  -23.4510  -44.9200 N.am      11 UNK        -0.5000 
     20 C           3.6849  -24.1255  -43.9088 C.2       10 UNK         0.5000 
     21 O           3.9559  -25.3263  -43.9536 O.2       10 UNK        -0.5000 
     22 CA          3.9714  -23.3322  -42.6215 C.3       10 UNK         0.1400 
     23 CB          5.2400  -22.4800  -42.7784 C.3       10 UNK        -0.1800 
     24 N           2.8490  -22.4848  -42.2108 N.am      10 UNK        -0.5000 
     25 C           1.6609  -22.9451  -41.7909 C.2       9 UNK         0.5000 
     26 O           1.3850  -24.1411  -41.6978 O.2       9 UNK        -0.5000 
     27 CA          0.5905  -21.8995  -41.4253 C.3       9 UNK         0.1400 
     28 CB          0.8106  -21.3693  -40.0006 C.3       9 UNK        -0.1800 
     29 N           0.5448  -20.7774  -42.3607 N.am      9 UNK        -0.5000 
     30 C           0.1702  -20.8680  -43.6445 C.2       8 UNK         0.5000 
     31 O          -0.2230  -21.9079  -44.1709 O.2       8 UNK        -0.5000 
     32 CA          0.3125  -19.5921  -44.4934 C.3       8 UNK         0.1400 
     33 CB         -0.8580  -18.6297  -44.2275 C.3       8 UNK        -0.1800 
     34 N           1.5850  -18.9065  -44.2567 N.am      8 UNK        -0.5000 
     35 C           2.7938  -19.4553  -44.4548 C.2       7 UNK         0.5000 
     36 O           2.9722  -20.5847  -44.9090 O.2       7 UNK        -0.5000 
     37 CA          4.0082  -18.6199  -44.0219 C.3       7 UNK         0.1400 
     38 CB          4.3813  -17.5946  -45.1029 C.3       7 UNK        -0.1800 
     39 N           3.7655  -17.9457  -42.7460 N.am      7 UNK        -0.5000 
     40 C           3.6784  -18.5822  -41.5681 C.2       6 UNK         0.5000 
     41 O           3.8443  -19.7938  -41.4337 O.2       6 UNK        -0.5000 
     42 CA          3.2947  -17.7314  -40.3437 C.3       6 UNK         0.1400 
     43 CB          4.5310  -17.0341  -39.7572 C.3       6 UNK        -0.1800 
     44 N           2.2747  -16.7309  -40.6581 N.am      6 UNK        -0.5000 
     45 C           1.0150  -17.0182  -41.0169 C.2       5 UNK         0.5000 
     46 O           0.5621  -18.1616  -41.0519 O.2       5 UNK        -0.5000 
     47 CA          0.1317  -15.8354  -41.4573 C.3       5 UNK         0.1400 
     48 CB         -0.6529  -15.2682  -40.2659 C.3       5 UNK        -0.1800 
     49 N           0.8949  -14.7572  -42.0879 N.am      5 UNK        -0.5000 
     50 C           1.5636  -14.8609  -43.2428 C.2       4 UNK         0.5000 
     51 O           1.6072  -15.8992  -43.9064 O.2       4 UNK        -0.5000 
     52 CA          2.3207  -13.5991  -43.7069 C.3       4 UNK         0.1400 
     53 CB          3.0120  -13.7854  -45.0692 C.3       4 UNK        -0.1800 
     54 N           1.4484  -12.4270  -43.7774 N.am      4 UNK        -0.5000 
     55 C           1.0594  -11.6688  -42.7433 C.2       3 UNK         0.5000 
     56 O           1.3789  -11.8965  -41.5756 O.2       3 UNK        -0.5000 
     57 CA          0.1313  -10.4875  -43.0652 C.3       3 UNK         0.1400 
     58 CB          0.9164   -9.3385  -43.7176 C.3       3 UNK        -0.1800 
     59 N          -0.9388  -10.9152  -43.9634 N.am      3 UNK        -0.5000 
     60 C          -2.1682  -11.2755  -43.5699 C.2       2 UNK         0.5000 
     61 O          -2.5689  -11.1926  -42.4084 O.2       2 UNK        -0.5000 
     62 CA         -3.1104  -11.8372  -44.6547 C.3       2 UNK         0.1400 
     63 CB         -3.9476  -10.7101  -45.2781 C.3       2 UNK        -0.1800 
     64 N          -2.3970  -12.5471  -45.7180 N.am      2 UNK        -0.5000 
     65 C          -1.7331  -13.6999  -45.5501 C.2       1 UNK         0.5000 
     66 O          -1.7471  -14.3420  -44.5000 O.2       1 UNK        -0.5000 
     67 C           1.3889  -24.8923  -46.0023 C.2       11 UNK         0.5000 
     68 O           1.1607  -25.8100  -46.7914 O.2       11 UNK        -0.5000 
     69 N           0.5730  -24.5502  -44.9938 N.am      12 UNK        -0.5000 
     70 CA         -0.7593  -25.0864  -44.6985 C.3       12 UNK         0.1400 
     71 CB         -0.6822  -26.5704  -44.2835 C.3       12 UNK        -0.1800 
     72 C          -1.7482  -24.8161  -45.8519 C.2       12 UNK         0.5000 
     73 O          -2.4838  -25.7133  -46.2689 O.2       12 UNK        -0.5000 
     74 N          -1.7233  -23.5803  -46.3637 N.am      13 UNK        -0.5000 
     75 CA         -2.4933  -23.1208  -47.5146 C.3       13 UNK         0.1400 
     76 CB         -1.7648  -23.5224  -48.8056 C.3       13 UNK        -0.1800 
     77 C          -2.6830  -21.6001  -47.4166 C.2       13 UNK         0.5000 
     78 O          -1.8715  -20.9265  -46.7794 O.2       13 UNK        -0.5000 
     79 N          -3.7647  -21.0925  -48.0190 N.am      14 UNK        -0.5000 
     80 CA         -4.2318  -19.7176  -47.8223 C.3       14 UNK         0.1400 
     81 CB         -5.7362  -19.7601  -47.5051 C.3       14 UNK        -0.1800 
     82 C          -3.9889  -18.7924  -49.0253 C.2       14 UNK         0.5000 
     83 O          -3.9602  -17.5776  -48.8303 O.2       14 UNK        -0.5000 
     84 N          -3.8755  -19.3570  -50.2398 N.am      15 UNK        -0.5000 
     85 CA         -3.8320  -18.6468  -51.5288 C.3       15 UNK         0.1400 
     86 CB         -2.5156  -17.8617  -51.7018 C.3       15 UNK        -0.1800 
     87 C          -5.0865  -17.7833  -51.7984 C.2       15 UNK         0.5000 
     88 O          -5.0046  -16.7609  -52.4806 O.2       15 UNK        -0.5000 
     89 N          -6.2367  -18.2244  -51.2665 N.am      16 UNK        -0.5000 
     90 CA         -7.5451  -17.5768  -51.4051 C.3       16 UNK         0.1400 
     91 CB         -8.5245  -18.2389  -50.4237 C.3       16 UNK        -0.1800 
     92 C          -8.1070  -17.6201  -52.8412 C.2       16 UNK         0.5000 
     93 O          -8.9443  -16.7892  -53.1951 O.2       16 UNK        -0.5000 
     94 N          -7.6248  -18.5780  -53.6370 N.am      17 UNK        -0.5000 
     95 CA         -7.8735  -18.7344  -55.0597 C.3       17 UNK         0.1400 
     96 CB         -8.9832  -19.7746  -55.2739 C.3       17 UNK        -0.1800 
     97 C          -6.5532  -19.1861  -55.6954 C.2       17 UNK         0.5000 
     98 O          -5.8272  -19.9797  -55.0853 O.2       17 UNK        -0.5000 
     99 N          -6.2645  -18.6714  -56.8971 N.am      18 UNK        -0.5000 
    100 CA        -5.0545  -18.9613  -57.6670 C.3       18 UNK         0.1400 
    101 CB        -5.0325  -18.0852  -58.9291 C.3       18 UNK        -0.1800 
    102 C         -4.9665  -20.4527  -58.0307 C.2       18 UNK         0.5000 
    103 O         -5.8957  -20.9812  -58.6458 O.2       18 UNK        -0.5000 
    104 N         -3.8769  -21.1017  -57.5986 N.am      19 UNK        -0.5000 
    105 CA        -3.5624  -22.5350  -57.6834 C.3       19 UNK         0.1400 
    106 CB        -3.4846  -23.0177  -59.1438 C.3       19 UNK        -0.1800 
    107 C         -4.4913  -23.4369  -56.8458 C.2       19 UNK         0.5000 
    108 O         -3.9974  -24.2973  -56.1170 O.2       19 UNK        -0.5000 
    109 N         -5.8071  -23.2091  -56.9195 N.am      20 UNK        -0.5000 
    110 CA        -6.8562  -23.9687  -56.2365 C.3       20 UNK         0.1400 
    111 CB        -8.2247  -23.4371  -56.6863 C.3       20 UNK        -0.1800 
    112 C         -6.7493  -23.9779  -54.6978 C.2       20 UNK         0.5000 
    113 O         -7.2101  -24.9358  -54.0756 O.2       20 UNK        -0.5000 
    114 N         -6.1297  -22.9413  -54.1177 N.am      21 UNK        -0.5000 
    115 CA        -5.8497  -22.8312  -52.6862 C.3       21 UNK         0.1400 
    116 CB        -6.7110  -21.7031  -52.0930 C.3       21 UNK        -0.1800 
    117 C         -4.3481  -22.6111  -52.4179 C.2       21 UNK         0.5000 
    118 O         -4.0069  -22.0277  -51.3852 O.2       21 UNK        -0.5000 
    119 N         -3.4738  -23.0576  -53.3341 N.am      22 UNK        -0.5000 
    120 CA        -2.0121  -22.9218  -53.2005 C.3       22 UNK         0.1400 
    121 C         -1.1724  -24.0680  -53.8318 C.2       22 UNK         0.5000 
    122 N         -1.7128  -24.9104  -54.7014 N.am      22 UNK        -0.7600 
    123 O         -0.0021  -24.2246  -53.4974 O.2       22 UNK        -0.5000 
    124 C124       -1.5162  -21.5087  -53.6403 C.3       23 UNK        -0.0398 
    125 S125       -0.0530  -20.8125  -52.7804 S.3       23 UNK        -0.2404 
    126 C126       -0.2900  -21.3579  -51.0645 C.3       23 UNK        -0.0205 
    127 H127        0.1187  -11.5992  -49.6065 H         1 UNK         0.0600 
    128 H128        1.6059  -11.1084  -48.7896 H         1 UNK         0.0600 
    129 H129        0.1133  -10.2002  -48.5276 H         1 UNK         0.0600 
    130 H130       -0.7948  -13.3952  -48.6725 H         1 UNK         0.3000 
    131 H131        0.0360  -14.5926  -46.3022 H         1 UNK         0.0600 
    132 H132       -1.9799  -16.1195  -46.6715 H         1 UNK         0.0800 
    133 H133       -2.4888  -15.0706  -47.9613 H         1 UNK         0.0800 
    134 H134        0.5176  -17.4182  -46.7291 H         1 UNK         0.0800 
    135 H135       -1.0092  -18.1738  -47.1517 H         1 UNK         0.0800 
    136 H136       -1.1162  -19.2574  -49.5579 H         1 UNK         0.1150 
    137 H137        2.3022  -21.7350  -50.2849 H         1 UNK         0.1150 
    138 H138        2.4457  -18.6819  -47.2733 H         1 UNK         0.1150 
    139 H139        4.6490  -20.3899  -49.0448 H         1 UNK         0.0800 
    140 H140        4.2031  -20.2308  -47.3645 H         1 UNK         0.0800 
    141 H141        1.8720  -23.3979  -48.1058 H         1 UNK         0.0800 
    142 H142        1.9645  -22.1383  -46.9057 H         1 UNK         0.0800 
    143 H143        3.4495  -24.7681  -46.4995 H         1 UNK         0.0600 
    144 H144        2.9830  -22.4463  -44.8292 H         1 UNK         0.3000 
    145 H145        4.1509  -24.0541  -41.8220 H         1 UNK         0.0600 
    146 H146        5.4997  -21.9835  -41.8435 H         1 UNK         0.0600 
    147 H147        6.0920  -23.0975  -43.0654 H         1 UNK         0.0600 
    148 H148        5.1188  -21.7132  -43.5433 H         1 UNK         0.0600 
    149 H149        3.0158  -21.4841  -42.2065 H         1 UNK         0.3000 
    150 H150       -0.3813  -22.3968  -41.4543 H         1 UNK         0.0600 
    151 H151        0.8278  -22.1856  -39.2775 H         1 UNK         0.0600 
    152 H152        0.0107  -20.6897  -39.7058 H         1 UNK         0.0600 
    153 H153        1.7546  -20.8309  -39.9120 H         1 UNK         0.0600 
    154 H154        0.7983  -19.8660  -41.9909 H         1 UNK         0.3000 
    155 H155        0.2921  -19.8847  -45.5444 H         1 UNK         0.0600 
    156 H156       -1.0016  -18.4472  -43.1633 H         1 UNK         0.0600 
    157 H157       -0.7094  -17.6629  -44.7073 H         1 UNK         0.0600 
    158 H158       -1.7896  -19.0468  -44.6117 H         1 UNK         0.0600 
    159 H159        1.5375  -17.9519  -43.9169 H         1 UNK         0.3000 
    160 H160        4.8564  -19.2952  -43.8928 H         1 UNK         0.0600 
    161 H161        5.2113  -16.9643  -44.7836 H         1 UNK         0.0600 
    162 H162        3.5425  -16.9471  -45.3570 H         1 UNK         0.0600 
    163 H163        4.6900  -18.0970  -46.0202 H         1 UNK         0.0600 
    164 H164        3.5588  -16.9590  -42.7856 H         1 UNK         0.3000 
    165 H165        2.8885  -18.4036  -39.5848 H         1 UNK         0.0600 
    166 H166        4.2812  -16.4893  -38.8466 H         1 UNK         0.0600 
    167 H167        5.3019  -17.7612  -39.4984 H         1 UNK         0.0600 
    168 H168        4.9698  -16.3272  -40.4625 H         1 UNK         0.0600 
    169 H169        2.5614  -15.7634  -40.6463 H         1 UNK         0.3000 
    170 H170       -0.5841  -16.2095  -42.1919 H         1 UNK         0.0600 
    171 H171        0.0111  -14.8505  -39.5081 H         1 UNK         0.0600 
    172 H172       -1.3362  -14.4806  -40.5850 H         1 UNK         0.0600 
    173 H173       -1.2522  -16.0443  -39.7880 H         1 UNK         0.0600 
    174 H174        0.9101  -13.8600  -41.6145 H         1 UNK         0.3000 
    175 H175        3.1015  -13.4059  -42.9686 H         1 UNK         0.0600 
    176 H176        3.5294  -12.8763  -45.3760 H         1 UNK         0.0600 
    177 H177        2.3016  -14.0444  -45.8541 H         1 UNK         0.0600 
    178 H178        3.7577  -14.5789  -45.0231 H         1 UNK         0.0600 
    179 H179        1.1258  -12.1749  -44.7096 H         1 UNK         0.3000 
    180 H180       -0.2857  -10.1182  -42.1259 H         1 UNK         0.0600 
    181 H181        1.3597   -9.6362  -44.6687 H         1 UNK         0.0600 
    182 H182        1.7257   -9.0014  -43.0687 H         1 UNK         0.0600 
    183 H183        0.2711   -8.4802  -43.9051 H         1 UNK         0.0600 
    184 H184       -0.6739  -11.0657  -44.9304 H         1 UNK         0.3000 
    185 H185       -3.7901  -12.5421  -44.1713 H         1 UNK         0.0600 
    186 H186       -3.3213   -9.9813  -45.7944 H         1 UNK         0.0600 
    187 H187       -4.6677  -11.1037  -45.9957 H         1 UNK         0.0600 
    188 H188       -4.5119  -10.1747  -44.5134 H         1 UNK         0.0600 
    189 H189       -2.3373  -12.0866  -46.6144 H         1 UNK         0.3000 
    190 H190        0.8245  -23.7370  -44.4450 H         1 UNK         0.3000 
    191 H191       -1.1300  -24.5264  -43.8388 H         1 UNK         0.0600 
    192 H192        0.0229  -26.7117  -43.4642 H         1 UNK         0.0600 
    193 H193       -1.6535  -26.9291  -43.9414 H         1 UNK         0.0600 
    194 H194       -0.3707  -27.2106  -45.1091 H         1 UNK         0.0600 
    195 H195       -1.1550  -22.8652  -45.9177 H         1 UNK         0.3000 
    196 H196       -3.4806  -23.5870  -47.4955 H         1 UNK         0.0600 
    197 H197       -2.3041  -23.1734  -49.6849 H         1 UNK         0.0600 
    198 H198       -1.6771  -24.6055  -48.8911 H         1 UNK         0.0600 
    199 H199       -0.7582  -23.1052  -48.8331 H         1 UNK         0.0600 
    200 H200       -4.3642  -21.7052  -48.5535 H         1 UNK         0.3000 
    201 H201       -3.7280  -19.2635  -46.9660 H         1 UNK         0.0600 
    202 H202       -5.9305  -20.3374  -46.6010 H         1 UNK         0.0600 
    203 H203       -6.3094  -20.2077  -48.3180 H         1 UNK         0.0600 
    204 H204       -6.1317  -18.7570  -47.3383 H         1 UNK         0.0600 
    205 H205       -3.8973  -20.3696  -50.3177 H         1 UNK         0.3000 
    206 H206       -3.8490  -19.4182  -52.2985 H         1 UNK         0.0600 
    207 H207       -1.6517  -18.5186  -51.6265 H         1 UNK         0.0600 
    208 H208       -2.4632  -17.3908  -52.6839 H         1 UNK         0.0600 
    209 H209       -2.4088  -17.0740  -50.9562 H         1 UNK         0.0600 
    210 H210       -6.2078  -19.0620  -50.7057 H         1 UNK         0.3000 
    211 H211       -7.4343  -16.5267  -51.1268 H         1 UNK         0.0600 
    212 H212       -8.6597  -19.2988  -50.6439 H         1 UNK         0.0600 
    213 H213       -9.5062  -17.7658  -50.4721 H         1 UNK         0.0600 
    214 H214       -8.1734  -18.1509  -49.3953 H         1 UNK         0.0600 
    215 H215       -6.8961  -19.1807  -53.2813 H         1 UNK         0.3000 
    216 H216       -8.1732  -17.7800  -55.4980 H         1 UNK         0.0600 
    217 H217       -9.1505  -19.9573  -56.3360 H         1 UNK         0.0600 
    218 H218       -9.9270  -19.4332  -54.8486 H         1 UNK         0.0600 
    219 H219       -8.7333  -20.7272  -54.8052 H         1 UNK         0.0600 
    220 H220       -6.9312  -18.0538  -57.3366 H         1 UNK         0.3000 
    221 H221       -4.1947  -18.6916  -57.0501 H         1 UNK         0.0600 
    222 H222       -5.8911  -18.2826  -59.5724 H         1 UNK         0.0600 
    223 H223       -5.0399  -17.0252  -58.6747 H         1 UNK         0.0600 
    224 H224       -4.1327  -18.2713  -59.5170 H         1 UNK         0.0600 
    225 H225       -3.2010  -20.5609  -57.0777 H         1 UNK         0.3000 
    226 H226       -2.5639  -22.6401  -57.2556 H         1 UNK         0.0600 
    227 H227       -2.7831  -22.4153  -59.7208 H         1 UNK         0.0600 
    228 H228       -3.1407  -24.0517  -59.1916 H         1 UNK         0.0600 
    229 H229       -4.4527  -22.9758  -59.6433 H         1 UNK         0.0600 
    230 H230       -6.1088  -22.4622  -57.5403 H         1 UNK         0.3000 
    231 H231       -6.7712  -25.0061  -56.5662 H         1 UNK         0.0600 
    232 H232       -8.3297  -22.3745  -56.4719 H         1 UNK         0.0600 
    233 H233       -9.0381  -23.9598  -56.1812 H         1 UNK         0.0600 
    234 H234       -8.3664  -23.5753  -57.7583 H         1 UNK         0.0600 
    235 H235       -5.8085  -22.1726  -54.6955 H         1 UNK         0.3000 
    236 H236       -6.1108  -23.7576  -52.1717 H         1 UNK         0.0600 
    237 H237       -7.7667  -21.8438  -52.3259 H         1 UNK         0.0600 
    238 H238       -6.6204  -21.6642  -51.0068 H         1 UNK         0.0600 
    239 H239       -6.4048  -20.7368  -52.4860 H         1 UNK         0.0600 
    240 H240       -3.8151  -23.5505  -54.1496 H         1 UNK         0.3000 
    241 H241       -1.8285  -23.0646  -52.1393 H         1 UNK         0.0600 
    242 H242       -2.6428  -24.7774  -55.0915 H         1 UNK         0.3800 
    243 H243       -1.1387  -25.6540  -55.0658 H         1 UNK         0.3800 
    244 H244       -1.3242  -21.4924  -54.7143 H         1 UNK         0.0800 
    245 H245       -2.3115  -20.7790  -53.4904 H         1 UNK         0.0800 
    246 H246       -0.0142  -22.4103  -50.9868 H         1 UNK         0.0800 
    247 H247       -1.3479  -21.2789  -50.8094 H         1 UNK         0.0800 
@<TRIPOS>BOND
     1    1    2 1    
     2    1  127 1    
     3    1  128 1    
     4    1  129 1    
     5    2    3 2    
     6    2    4 am   BACKBONE|DICT|INTERRES
     7    4    5 1    
     8    4  130 1    
     9    5    6 1    
    10    5   65 1    
    11    5  131 1    
    12    6    7 1    
    13    6  132 1    
    14    6  133 1    
    15    7    8 1    
    16    8    9 1    
    17    8  134 1    
    18    8  135 1    
    19    9   10 ar   
    20    9   14 ar   
    21   10   11 ar   
    22   10  136 1    
    23   11   12 ar   
    24   11  126 1    
    25   12   13 ar   
    26   12  137 1    
    27   13   14 ar   
    28   13   15 1    
    29   14  138 1    
    30   15   16 1    
    31   15  139 1    
    32   15  140 1    
    33   16   17 1    
    34   17   18 1    
    35   17  141 1    
    36   17  142 1    
    37   18   19 1    
    38   18   67 1    
    39   18  143 1    
    40   19   20 am   BACKBONE|DICT|INTERRES
    41   19  144 1    
    42   20   21 2    
    43   20   22 1    
    44   22   23 1    
    45   22   24 1    
    46   22  145 1    
    47   23  146 1    
    48   23  147 1    
    49   23  148 1    
    50   24   25 am   BACKBONE|DICT|INTERRES
    51   24  149 1    
    52   25   26 2    
    53   25   27 1    
    54   27   28 1    
    55   27   29 1    
    56   27  150 1    
    57   28  151 1    
    58   28  152 1    
    59   28  153 1    
    60   29   30 am   BACKBONE|DICT|INTERRES
    61   29  154 1    
    62   30   31 2    
    63   30   32 1    
    64   32   33 1    
    65   32   34 1    
    66   32  155 1    
    67   33  156 1    
    68   33  157 1    
    69   33  158 1    
    70   34   35 am   BACKBONE|DICT|INTERRES
    71   34  159 1    
    72   35   36 2    
    73   35   37 1    
    74   37   38 1    
    75   37   39 1    
    76   37  160 1    
    77   38  161 1    
    78   38  162 1    
    79   38  163 1    
    80   39   40 am   BACKBONE|DICT|INTERRES
    81   39  164 1    
    82   40   41 2    
    83   40   42 1    
    84   42   43 1    
    85   42   44 1    
    86   42  165 1    
    87   43  166 1    
    88   43  167 1    
    89   43  168 1    
    90   44   45 am   BACKBONE|DICT|INTERRES
    91   44  169 1    
    92   45   46 2    
    93   45   47 1    
    94   47   48 1    
    95   47   49 1    
    96   47  170 1    
    97   48  171 1    
    98   48  172 1    
    99   48  173 1    
   100   49   50 am   BACKBONE|DICT|INTERRES
   101   49  174 1    
   102   50   51 2    
   103   50   52 1    
   104   52   53 1    
   105   52   54 1    
   106   52  175 1    
   107   53  176 1    
   108   53  177 1    
   109   53  178 1    
   110   54   55 am   BACKBONE|DICT|INTERRES
   111   54  179 1    
   112   55   56 2    
   113   55   57 1    
   114   57   58 1    
   115   57   59 1    
   116   57  180 1    
   117   58  181 1    
   118   58  182 1    
   119   58  183 1    
   120   59   60 am   BACKBONE|DICT|INTERRES
   121   59  184 1    
   122   60   61 2    
   123   60   62 1    
   124   62   63 1    
   125   62   64 1    
   126   62  185 1    
   127   63  186 1    
   128   63  187 1    
   129   63  188 1    
   130   64   65 am   BACKBONE|DICT|INTERRES
   131   64  189 1    
   132   65   66 2    
   133   67   68 2    
   134   67   69 am   BACKBONE|DICT|INTERRES
   135   69   70 1    
   136   69  190 1    
   137   70   71 1    
   138   70   72 1    
   139   70  191 1    
   140   71  192 1    
   141   71  193 1    
   142   71  194 1    
   143   72   73 2    
   144   72   74 am   BACKBONE|DICT|INTERRES
   145   74   75 1    
   146   74  195 1    
   147   75   76 1    
   148   75   77 1    
   149   75  196 1    
   150   76  197 1    
   151   76  198 1    
   152   76  199 1    
   153   77   78 2    
   154   77   79 am   BACKBONE|DICT|INTERRES
   155   79   80 1    
   156   79  200 1    
   157   80   81 1    
   158   80   82 1    
   159   80  201 1    
   160   81  202 1    
   161   81  203 1    
   162   81  204 1    
   163   82   83 2    
   164   82   84 am   BACKBONE|DICT|INTERRES
   165   84   85 1    
   166   84  205 1    
   167   85   86 1    
   168   85   87 1    
   169   85  206 1    
   170   86  207 1    
   171   86  208 1    
   172   86  209 1    
   173   87   88 2    
   174   87   89 am   BACKBONE|DICT|INTERRES
   175   89   90 1    
   176   89  210 1    
   177   90   91 1    
   178   90   92 1    
   179   90  211 1    
   180   91  212 1    
   181   91  213 1    
   182   91  214 1    
   183   92   93 2    
   184   92   94 am   BACKBONE|DICT|INTERRES
   185   94   95 1    
   186   94  215 1    
   187   95   96 1    
   188   95   97 1    
   189   95  216 1    
   190   96  217 1    
   191   96  218 1    
   192   96  219 1    
   193   97   98 2    
   194   97   99 am   BACKBONE|DICT|INTERRES
   195   99  100 1    
   196   99  220 1    
   197  100  101 1    
   198  100  102 1    
   199  100  221 1    
   200  101  222 1    
   201  101  223 1    
   202  101  224 1    
   203  102  103 2    
   204  102  104 am   BACKBONE|DICT|INTERRES
   205  104  105 1    
   206  104  225 1    
   207  105  106 1    
   208  105  107 1    
   209  105  226 1    
   210  106  227 1    
   211  106  228 1    
   212  106  229 1    
   213  107  108 2    
   214  107  109 am   BACKBONE|DICT|INTERRES
   215  109  110 1    
   216  109  230 1    
   217  110  111 1    
   218  110  112 1    
   219  110  231 1    
   220  111  232 1    
   221  111  233 1    
   222  111  234 1    
   223  112  113 2    
   224  112  114 am   BACKBONE|DICT|INTERRES
   225  114  115 1    
   226  114  235 1    
   227  115  116 1    
   228  115  117 1    
   229  115  236 1    
   230  116  237 1    
   231  116  238 1    
   232  116  239 1    
   233  117  118 2    
   234  117  119 am   BACKBONE|DICT|INTERRES
   235  119  120 1    
   236  119  240 1    
   237  120  121 1    
   238  120  124 1    
   239  120  241 1    
   240  121  122 am   BACKBONE|DICT|INTERRES
   241  121  123 2    
   242  122  242 1    
   243  122  243 1    
   244  124  125 1    
   245  124  244 1    
   246  124  245 1    
   247  125  126 1    
   248  126  246 1    
   249  126  247 1    
@<TRIPOS>SUBSTRUCTURE
     1 UNK         1 GROUP             0       ****    0 ROOT    
