@<TRIPOS>MOLECULE
3R540
247   249    1
SMALL
USER_CHARGES


@<TRIPOS>ATOM
      1 CA         -6.4458  -12.6880  -42.8723 C.3       0 UNK        -0.1800 
      2 C          -5.0863  -12.4244  -43.5054 C.2       0 UNK         0.5000 
      3 O          -4.6981  -11.2657  -43.6572 O.2       0 UNK        -0.5000 
      4 N          -4.3756  -13.4936  -43.8816 N.am      1 UNK        -0.5000 
      5 CA         -3.0263  -13.4669  -44.4513 C.3       1 UNK         0.1400 
      6 C6         -2.8737  -14.4768  -45.6225 C.3       23 UNK        -0.0398 
      7 S7         -3.2924  -16.2008  -45.1861 S.3       23 UNK        -0.2404 
      8 C8         -3.5264  -16.9256  -46.8367 C.3       23 UNK        -0.0205 
      9 C9         -2.2014  -17.1697  -47.5418 C.ar      23 UNK        -0.0193 
     10 C10        -1.7464  -16.3010  -48.5385 C.ar      23 UNK        -0.1150 
     11 C11        -0.5493  -16.5617  -49.2173 C.ar      23 UNK        -0.0193 
     12 C12         0.1921  -17.6999  -48.8851 C.ar      23 UNK        -0.1150 
     13 C13        -0.2425  -18.5624  -47.8764 C.ar      23 UNK        -0.0193 
     14 C14        -1.4362  -18.2871  -47.2051 C.ar      23 UNK        -0.1150 
     15 C15         0.5840  -19.7826  -47.4994 C.3       23 UNK        -0.0205 
     16 S16         0.3422  -21.1755  -48.6489 S.3       23 UNK        -0.2404 
     17 C17        -1.4336  -21.5482  -48.4570 C.3       23 UNK        -0.0398 
     18 CA         -1.7166  -22.7324  -47.5049 C.3       11 UNK         0.1400 
     19 N          -1.2029  -22.5067  -46.1500 N.am      11 UNK        -0.5000 
     20 C          -1.2306  -23.4042  -45.1562 C.2       10 UNK         0.5000 
     21 O          -1.6484  -24.5539  -45.2949 O.2       10 UNK        -0.5000 
     22 CA         -0.7706  -22.9364  -43.7623 C.3       10 UNK         0.1400 
     23 CB          0.6703  -23.3984  -43.4999 C.3       10 UNK        -0.1800 
     24 N          -0.8536  -21.4926  -43.5098 N.am      10 UNK        -0.5000 
     25 C          -1.9268  -20.6966  -43.6435 C.2       9 UNK         0.5000 
     26 O          -2.9927  -21.0724  -44.1329 O.2       9 UNK        -0.5000 
     27 CA         -1.7895  -19.2397  -43.1464 C.3       9 UNK         0.1400 
     28 CB         -2.8647  -18.9129  -42.0981 C.3       9 UNK        -0.1800 
     29 N          -0.4686  -18.9539  -42.5730 N.am      9 UNK        -0.5000 
     30 C           0.5964  -18.5734  -43.2874 C.2       8 UNK         0.5000 
     31 O           0.5599  -18.3506  -44.4977 O.2       8 UNK        -0.5000 
     32 CA          1.9267  -18.4618  -42.5294 C.3       8 UNK         0.1400 
     33 CB          2.4483  -19.8548  -42.1258 C.3       8 UNK        -0.1800 
     34 N           2.8960  -17.8005  -43.3938 N.am      8 UNK        -0.5000 
     35 C           4.0271  -17.2010  -43.0136 C.2       7 UNK         0.5000 
     36 O           4.4092  -17.1566  -41.8437 O.2       7 UNK        -0.5000 
     37 CA          4.8683  -16.5064  -44.1038 C.3       7 UNK         0.1400 
     38 CB          5.9659  -17.4377  -44.6520 C.3       7 UNK        -0.1800 
     39 N           4.0758  -15.8981  -45.1794 N.am      7 UNK        -0.5000 
     40 C           3.3801  -16.4754  -46.1691 C.2       6 UNK         0.5000 
     41 O           3.3368  -17.6890  -46.3628 O.2       6 UNK        -0.5000 
     42 CA          2.5684  -15.5322  -47.0726 C.3       6 UNK         0.1400 
     43 CB          1.1941  -15.2522  -46.4421 C.3       6 UNK        -0.1800 
     44 N           3.2552  -14.2574  -47.2842 N.am      6 UNK        -0.5000 
     45 C           4.0239  -13.9659  -48.3415 C.2       5 UNK         0.5000 
     46 O           4.2330  -14.7480  -49.2694 O.2       5 UNK        -0.5000 
     47 CA          4.6534  -12.5575  -48.3896 C.3       5 UNK         0.1400 
     48 CB          3.7914  -11.6210  -49.2507 C.3       5 UNK        -0.1800 
     49 N           4.8295  -11.9513  -47.0679 N.am      5 UNK        -0.5000 
     50 C           5.7978  -12.2809  -46.2018 C.2       4 UNK         0.5000 
     51 O           6.6869  -13.0955  -46.4507 O.2       4 UNK        -0.5000 
     52 CA          5.7530  -11.6094  -44.8105 C.3       4 UNK         0.1400 
     53 CB          6.6410  -10.3559  -44.7936 C.3       4 UNK        -0.1800 
     54 N           4.4095  -11.2507  -44.3316 N.am      4 UNK        -0.5000 
     55 C           3.3868  -12.1056  -44.2031 C.2       3 UNK         0.5000 
     56 O           3.4534  -13.2844  -44.5546 O.2       3 UNK        -0.5000 
     57 CA          2.0627  -11.5488  -43.6447 C.3       3 UNK         0.1400 
     58 CB          1.4513  -10.5241  -44.6149 C.3       3 UNK        -0.1800 
     59 N           1.0906  -12.6240  -43.4457 N.am      3 UNK        -0.5000 
     60 C           1.1247  -13.5372  -42.4652 C.2       2 UNK         0.5000 
     61 O           1.8980  -13.4778  -41.5079 O.2       2 UNK        -0.5000 
     62 CA          0.1604  -14.7376  -42.6083 C.3       2 UNK         0.1400 
     63 CB         -0.3011  -15.3075  -41.2515 C.3       2 UNK        -0.1800 
     64 N          -0.9842  -14.4875  -43.4973 N.am      2 UNK        -0.5000 
     65 C          -1.9721  -13.5943  -43.3242 C.2       1 UNK         0.5000 
     66 O          -2.0530  -12.8602  -42.3374 O.2       1 UNK        -0.5000 
     67 C          -3.2252  -23.0601  -47.5244 C.2       11 UNK         0.5000 
     68 O          -3.6675  -23.7610  -48.4344 O.2       11 UNK        -0.5000 
     69 N          -3.9877  -22.5681  -46.5362 N.am      12 UNK        -0.5000 
     70 CA         -5.4085  -22.8775  -46.3727 C.3       12 UNK         0.1400 
     71 CB         -6.0395  -21.8771  -45.3934 C.3       12 UNK        -0.1800 
     72 C          -5.6416  -24.3253  -45.9036 C.2       12 UNK         0.5000 
     73 O          -6.5955  -24.9611  -46.3514 O.2       12 UNK        -0.5000 
     74 N          -4.7536  -24.8273  -45.0342 N.am      13 UNK        -0.5000 
     75 CA         -4.7751  -26.1999  -44.5268 C.3       13 UNK         0.1400 
     76 CB         -3.9666  -26.2745  -43.2221 C.3       13 UNK        -0.1800 
     77 C          -4.2371  -27.2017  -45.5633 C.2       13 UNK         0.5000 
     78 O          -4.7938  -28.2905  -45.7066 O.2       13 UNK        -0.5000 
     79 N          -3.1783  -26.8043  -46.2824 N.am      14 UNK        -0.5000 
     80 CA         -2.5411  -27.5868  -47.3443 C.3       14 UNK         0.1400 
     81 CB         -1.1432  -27.0040  -47.6061 C.3       14 UNK        -0.1800 
     82 C          -3.3514  -27.6327  -48.6566 C.2       14 UNK         0.5000 
     83 O          -3.0364  -28.4466  -49.5246 O.2       14 UNK        -0.5000 
     84 N          -4.3448  -26.7403  -48.7900 N.am      15 UNK        -0.5000 
     85 CA         -5.1889  -26.4901  -49.9665 C.3       15 UNK         0.1400 
     86 CB         -5.9747  -27.7474  -50.3900 C.3       15 UNK        -0.1800 
     87 C          -4.4342  -25.8356  -51.1439 C.2       15 UNK         0.5000 
     88 O          -4.9697  -25.7531  -52.2497 O.2       15 UNK        -0.5000 
     89 N          -3.2317  -25.3102  -50.8779 N.am      16 UNK        -0.5000 
     90 CA         -2.4407  -24.5081  -51.8086 C.3       16 UNK         0.1400 
     91 CB         -1.0164  -24.3529  -51.2577 C.3       16 UNK        -0.1800 
     92 C          -3.0868  -23.1374  -52.0872 C.2       16 UNK         0.5000 
     93 O          -2.9277  -22.6035  -53.1840 O.2       16 UNK        -0.5000 
     94 N          -3.8486  -22.6118  -51.1159 N.am      17 UNK        -0.5000 
     95 CA         -4.6561  -21.4005  -51.2692 C.3       17 UNK         0.1400 
     96 CB         -5.1627  -20.9368  -49.8960 C.3       17 UNK        -0.1800 
     97 C          -5.8315  -21.6074  -52.2428 C.2       17 UNK         0.5000 
     98 O          -6.1267  -20.7113  -53.0323 O.2       17 UNK        -0.5000 
     99 N          -6.4435  -22.8013  -52.2105 N.am      18 UNK        -0.5000 
    100 CA        -7.4969  -23.2193  -53.1409 C.3       18 UNK         0.1400 
    101 CB        -8.2131  -24.4613  -52.5884 C.3       18 UNK        -0.1800 
    102 C         -6.9525  -23.4775  -54.5593 C.2       18 UNK         0.5000 
    103 O         -7.6468  -23.2016  -55.5376 O.2       18 UNK        -0.5000 
    104 N         -5.6997  -23.9481  -54.6440 N.am      19 UNK        -0.5000 
    105 CA        -4.9270  -24.0806  -55.8830 C.3       19 UNK         0.1400 
    106 CB        -3.7723  -25.0666  -55.6449 C.3       19 UNK        -0.1800 
    107 C         -4.3915  -22.7334  -56.4216 C.2       19 UNK         0.5000 
    108 O         -3.8293  -22.7088  -57.5172 O.2       19 UNK        -0.5000 
    109 N         -4.5748  -21.6494  -55.6524 N.am      20 UNK        -0.5000 
    110 CA        -4.1911  -20.2648  -55.9323 C.3       20 UNK         0.1400 
    111 CB        -4.9322  -19.7221  -57.1724 C.3       20 UNK        -0.1800 
    112 C         -2.6658  -20.0464  -55.9893 C.2       20 UNK         0.5000 
    113 O         -2.1935  -19.2209  -56.7735 O.2       20 UNK        -0.5000 
    114 N         -1.9155  -20.7448  -55.1225 N.am      21 UNK        -0.5000 
    115 CA        -0.4566  -20.6258  -54.9875 C.3       21 UNK         0.1400 
    116 CB         0.0497  -21.6908  -54.0038 C.3       21 UNK        -0.1800 
    117 C          0.0196  -19.2240  -54.5488 C.2       21 UNK         0.5000 
    118 O          1.1484  -18.8404  -54.8574 O.2       21 UNK        -0.5000 
    119 N         -0.8595  -18.4810  -53.8645 N.am      22 UNK        -0.5000 
    120 CA        -0.6989  -17.0578  -53.5305 C.3       22 UNK         0.1400 
    121 C         -0.8434  -16.0981  -54.7571 C.2       22 UNK         0.5000 
    122 N         -1.3309  -16.5417  -55.9112 N.am      22 UNK        -0.7600 
    123 O         -0.4777  -14.9292  -54.6777 O.2       22 UNK        -0.5000 
    124 C124       -1.6451  -16.6866  -52.3559 C.3       23 UNK        -0.0398 
    125 S125       -1.2641  -15.1084  -51.5176 S.3       23 UNK        -0.2404 
    126 C126       -0.0202  -15.6047  -50.2799 C.3       23 UNK        -0.0205 
    127 H127       -7.2316  -12.2103  -43.4575 H         1 UNK         0.0600 
    128 H128       -6.4746  -12.2790  -41.8623 H         1 UNK         0.0600 
    129 H129       -6.6664  -13.7542  -42.8136 H         1 UNK         0.0600 
    130 H130       -4.7469  -14.4185  -43.7154 H         1 UNK         0.3000 
    131 H131       -2.8509  -12.4807  -44.8862 H         1 UNK         0.0600 
    132 H132       -3.5371  -14.1661  -46.4308 H         1 UNK         0.0800 
    133 H133       -1.8706  -14.4425  -46.0505 H         1 UNK         0.0800 
    134 H134       -4.1749  -16.2863  -47.4376 H         1 UNK         0.0800 
    135 H135       -4.0549  -17.8741  -46.7289 H         1 UNK         0.0800 
    136 H136       -2.3258  -15.4242  -48.7903 H         1 UNK         0.1150 
    137 H137        1.1201  -17.9105  -49.3978 H         1 UNK         0.1150 
    138 H138       -1.7770  -18.9484  -46.4219 H         1 UNK         0.1150 
    139 H139        0.3548  -20.1024  -46.4832 H         1 UNK         0.0800 
    140 H140        1.6407  -19.5122  -47.4934 H         1 UNK         0.0800 
    141 H141       -1.8067  -21.7683  -49.4572 H         1 UNK         0.0800 
    142 H142       -1.9824  -20.6643  -48.1402 H         1 UNK         0.0800 
    143 H143       -1.1978  -23.6088  -47.8958 H         1 UNK         0.0600 
    144 H144       -0.8461  -21.5859  -45.9488 H         1 UNK         0.3000 
    145 H145       -1.4230  -23.4252  -43.0362 H         1 UNK         0.0600 
    146 H146        0.7709  -24.4745  -43.6491 H         1 UNK         0.0600 
    147 H147        0.9741  -23.1857  -42.4747 H         1 UNK         0.0600 
    148 H148        1.3774  -22.9064  -44.1692 H         1 UNK         0.0600 
    149 H149       -0.0281  -21.0743  -43.1104 H         1 UNK         0.3000 
    150 H150       -1.9573  -18.5921  -44.0081 H         1 UNK         0.0600 
    151 H151       -2.7632  -19.5348  -41.2080 H         1 UNK         0.0600 
    152 H152       -3.8661  -19.0733  -42.4999 H         1 UNK         0.0600 
    153 H153       -2.8077  -17.8690  -41.7894 H         1 UNK         0.0600 
    154 H154       -0.3680  -19.1169  -41.5809 H         1 UNK         0.3000 
    155 H155        1.7649  -17.8514  -41.6388 H         1 UNK         0.0600 
    156 H156        3.3926  -19.7842  -41.5858 H         1 UNK         0.0600 
    157 H157        2.6119  -20.4892  -42.9980 H         1 UNK         0.0600 
    158 H158        1.7455  -20.3691  -41.4696 H         1 UNK         0.0600 
    159 H159        2.6478  -17.8038  -44.3794 H         1 UNK         0.3000 
    160 H160        5.3692  -15.6689  -43.6156 H         1 UNK         0.0600 
    161 H161        6.5763  -16.9303  -45.3992 H         1 UNK         0.0600 
    162 H162        5.5506  -18.3362  -45.1086 H         1 UNK         0.0600 
    163 H163        6.6324  -17.7614  -43.8518 H         1 UNK         0.0600 
    164 H164        3.9533  -14.8927  -45.0692 H         1 UNK         0.3000 
    165 H165        2.4095  -16.0356  -48.0280 H         1 UNK         0.0600 
    166 H166        0.5788  -14.6362  -47.0975 H         1 UNK         0.0600 
    167 H167        0.6495  -16.1797  -46.2613 H         1 UNK         0.0600 
    168 H168        1.2881  -14.7367  -45.4876 H         1 UNK         0.0600 
    169 H169        3.2006  -13.5891  -46.5254 H         1 UNK         0.3000 
    170 H170        5.6325  -12.6498  -48.8646 H         1 UNK         0.0600 
    171 H171        4.2566  -10.6405  -49.3544 H         1 UNK         0.0600 
    172 H172        2.7986  -11.4791  -48.8215 H         1 UNK         0.0600 
    173 H173        3.6597  -12.0246  -50.2555 H         1 UNK         0.0600 
    174 H174        4.1470  -11.2635  -46.7858 H         1 UNK         0.3000 
    175 H175        6.1664  -12.3270  -44.0987 H         1 UNK         0.0600 
    176 H176        7.6558  -10.5902  -45.1186 H         1 UNK         0.0600 
    177 H177        6.2545   -9.5811  -45.4569 H         1 UNK         0.0600 
    178 H178        6.7128   -9.9356  -43.7903 H         1 UNK         0.0600 
    179 H179        4.2818  -10.2914  -44.0428 H         1 UNK         0.3000 
    180 H180        2.2642  -11.0651  -42.6869 H         1 UNK         0.0600 
    181 H181        1.2709  -10.9578  -45.5996 H         1 UNK         0.0600 
    182 H182        2.1070   -9.6633  -44.7500 H         1 UNK         0.0600 
    183 H183        0.5010  -10.1451  -44.2379 H         1 UNK         0.0600 
    184 H184        0.4329  -12.7696  -44.1950 H         1 UNK         0.3000 
    185 H185        0.7466  -15.5152  -43.0992 H         1 UNK         0.0600 
    186 H186       -0.9615  -16.1634  -41.3884 H         1 UNK         0.0600 
    187 H187        0.5494  -15.6470  -40.6593 H         1 UNK         0.0600 
    188 H188       -0.8340  -14.5636  -40.6591 H         1 UNK         0.0600 
    189 H189       -1.0302  -15.0819  -44.3136 H         1 UNK         0.3000 
    190 H190       -3.5613  -22.0041  -45.8065 H         1 UNK         0.3000 
    191 H191       -5.9024  -22.7605  -47.3386 H         1 UNK         0.0600 
    192 H192       -5.9104  -20.8516  -45.7402 H         1 UNK         0.0600 
    193 H193       -7.1108  -22.0545  -45.2907 H         1 UNK         0.0600 
    194 H194       -5.5973  -21.9520  -44.3992 H         1 UNK         0.0600 
    195 H195       -3.9714  -24.2529  -44.7552 H         1 UNK         0.3000 
    196 H196       -5.8080  -26.4731  -44.2998 H         1 UNK         0.0600 
    197 H197       -3.9935  -27.2821  -42.8054 H         1 UNK         0.0600 
    198 H198       -4.3730  -25.6004  -42.4679 H         1 UNK         0.0600 
    199 H199       -2.9194  -26.0124  -43.3766 H         1 UNK         0.0600 
    200 H200       -2.7361  -25.9206  -46.0425 H         1 UNK         0.3000 
    201 H201       -2.4243  -28.6144  -46.9940 H         1 UNK         0.0600 
    202 H202       -0.6038  -27.5944  -48.3479 H         1 UNK         0.0600 
    203 H203       -0.5413  -26.9968  -46.6971 H         1 UNK         0.0600 
    204 H204       -1.1984  -25.9812  -47.9785 H         1 UNK         0.0600 
    205 H205       -4.4859  -26.0983  -48.0219 H         1 UNK         0.3000 
    206 H206       -5.9202  -25.7483  -49.6424 H         1 UNK         0.0600 
    207 H207       -6.4951  -28.1916  -49.5415 H         1 UNK         0.0600 
    208 H208       -6.7282  -27.5014  -51.1390 H         1 UNK         0.0600 
    209 H209       -5.3254  -28.5079  -50.8237 H         1 UNK         0.0600 
    210 H210       -2.9095  -25.3520  -49.9217 H         1 UNK         0.3000 
    211 H211       -2.3801  -25.0477  -52.7549 H         1 UNK         0.0600 
    212 H212       -1.0058  -23.8486  -50.2932 H         1 UNK         0.0600 
    213 H213       -0.3924  -23.7741  -51.9386 H         1 UNK         0.0600 
    214 H214       -0.5383  -25.3242  -51.1296 H         1 UNK         0.0600 
    215 H215       -3.9192  -23.1077  -50.2324 H         1 UNK         0.3000 
    216 H216       -4.0175  -20.6147  -51.6787 H         1 UNK         0.0600 
    217 H217       -5.7564  -20.0263  -49.9867 H         1 UNK         0.0600 
    218 H218       -4.3364  -20.7157  -49.2213 H         1 UNK         0.0600 
    219 H219       -5.7917  -21.6924  -49.4259 H         1 UNK         0.0600 
    220 H220       -6.1179  -23.4952  -51.5551 H         1 UNK         0.3000 
    221 H221       -8.2292  -22.4118  -53.2096 H         1 UNK         0.0600 
    222 H222       -7.5453  -25.3193  -52.5159 H         1 UNK         0.0600 
    223 H223       -8.6256  -24.2716  -51.5974 H         1 UNK         0.0600 
    224 H224       -9.0426  -24.7494  -53.2353 H         1 UNK         0.0600 
    225 H225       -5.2306  -24.2188  -53.7885 H         1 UNK         0.3000 
    226 H226       -5.5796  -24.5025  -56.6500 H         1 UNK         0.0600 
    227 H227       -3.2665  -25.3059  -56.5810 H         1 UNK         0.0600 
    228 H228       -3.0240  -24.6522  -54.9706 H         1 UNK         0.0600 
    229 H229       -4.1296  -26.0045  -55.2190 H         1 UNK         0.0600 
    230 H230       -5.0274  -21.7909  -54.7597 H         1 UNK         0.3000 
    231 H231       -4.5361  -19.6847  -55.0756 H         1 UNK         0.0600 
    232 H232       -4.5908  -20.1987  -58.0916 H         1 UNK         0.0600 
    233 H233       -4.7732  -18.6489  -57.2841 H         1 UNK         0.0600 
    234 H234       -6.0073  -19.8820  -57.0898 H         1 UNK         0.0600 
    235 H235       -2.3708  -21.4117  -54.5020 H         1 UNK         0.3000 
    236 H236       -0.0181  -20.8286  -55.9665 H         1 UNK         0.0600 
    237 H237       -0.3441  -21.5255  -53.0002 H         1 UNK         0.0600 
    238 H238       -0.2423  -22.6923  -54.3207 H         1 UNK         0.0600 
    239 H239        1.1381  -21.6751  -53.9355 H         1 UNK         0.0600 
    240 H240       -1.7586  -18.8899  -53.6609 H         1 UNK         0.3000 
    241 H241        0.3253  -16.9338  -53.1740 H         1 UNK         0.0600 
    242 H242       -1.3991  -15.9018  -56.6866 H         1 UNK         0.3800 
    243 H243       -1.5977  -17.5110  -56.0481 H         1 UNK         0.3800 
    244 H244       -1.6288  -17.4755  -51.6026 H         1 UNK         0.0800 
    245 H245       -2.6773  -16.6420  -52.7070 H         1 UNK         0.0800 
    246 H246        0.8353  -16.0377  -50.8005 H         1 UNK         0.0800 
    247 H247        0.3499  -14.7086  -49.7801 H         1 UNK         0.0800 
@<TRIPOS>BOND
     1    1    2 1    
     2    1  127 1    
     3    1  128 1    
     4    1  129 1    
     5    2    3 2    
     6    2    4 am   BACKBONE|DICT|INTERRES
     7    4    5 1    
     8    4  130 1    
     9    5    6 1    
    10    5   65 1    
    11    5  131 1    
    12    6    7 1    
    13    6  132 1    
    14    6  133 1    
    15    7    8 1    
    16    8    9 1    
    17    8  134 1    
    18    8  135 1    
    19    9   10 ar   
    20    9   14 ar   
    21   10   11 ar   
    22   10  136 1    
    23   11   12 ar   
    24   11  126 1    
    25   12   13 ar   
    26   12  137 1    
    27   13   14 ar   
    28   13   15 1    
    29   14  138 1    
    30   15   16 1    
    31   15  139 1    
    32   15  140 1    
    33   16   17 1    
    34   17   18 1    
    35   17  141 1    
    36   17  142 1    
    37   18   19 1    
    38   18   67 1    
    39   18  143 1    
    40   19   20 am   BACKBONE|DICT|INTERRES
    41   19  144 1    
    42   20   21 2    
    43   20   22 1    
    44   22   23 1    
    45   22   24 1    
    46   22  145 1    
    47   23  146 1    
    48   23  147 1    
    49   23  148 1    
    50   24   25 am   BACKBONE|DICT|INTERRES
    51   24  149 1    
    52   25   26 2    
    53   25   27 1    
    54   27   28 1    
    55   27   29 1    
    56   27  150 1    
    57   28  151 1    
    58   28  152 1    
    59   28  153 1    
    60   29   30 am   BACKBONE|DICT|INTERRES
    61   29  154 1    
    62   30   31 2    
    63   30   32 1    
    64   32   33 1    
    65   32   34 1    
    66   32  155 1    
    67   33  156 1    
    68   33  157 1    
    69   33  158 1    
    70   34   35 am   BACKBONE|DICT|INTERRES
    71   34  159 1    
    72   35   36 2    
    73   35   37 1    
    74   37   38 1    
    75   37   39 1    
    76   37  160 1    
    77   38  161 1    
    78   38  162 1    
    79   38  163 1    
    80   39   40 am   BACKBONE|DICT|INTERRES
    81   39  164 1    
    82   40   41 2    
    83   40   42 1    
    84   42   43 1    
    85   42   44 1    
    86   42  165 1    
    87   43  166 1    
    88   43  167 1    
    89   43  168 1    
    90   44   45 am   BACKBONE|DICT|INTERRES
    91   44  169 1    
    92   45   46 2    
    93   45   47 1    
    94   47   48 1    
    95   47   49 1    
    96   47  170 1    
    97   48  171 1    
    98   48  172 1    
    99   48  173 1    
   100   49   50 am   BACKBONE|DICT|INTERRES
   101   49  174 1    
   102   50   51 2    
   103   50   52 1    
   104   52   53 1    
   105   52   54 1    
   106   52  175 1    
   107   53  176 1    
   108   53  177 1    
   109   53  178 1    
   110   54   55 am   BACKBONE|DICT|INTERRES
   111   54  179 1    
   112   55   56 2    
   113   55   57 1    
   114   57   58 1    
   115   57   59 1    
   116   57  180 1    
   117   58  181 1    
   118   58  182 1    
   119   58  183 1    
   120   59   60 am   BACKBONE|DICT|INTERRES
   121   59  184 1    
   122   60   61 2    
   123   60   62 1    
   124   62   63 1    
   125   62   64 1    
   126   62  185 1    
   127   63  186 1    
   128   63  187 1    
   129   63  188 1    
   130   64   65 am   BACKBONE|DICT|INTERRES
   131   64  189 1    
   132   65   66 2    
   133   67   68 2    
   134   67   69 am   BACKBONE|DICT|INTERRES
   135   69   70 1    
   136   69  190 1    
   137   70   71 1    
   138   70   72 1    
   139   70  191 1    
   140   71  192 1    
   141   71  193 1    
   142   71  194 1    
   143   72   73 2    
   144   72   74 am   BACKBONE|DICT|INTERRES
   145   74   75 1    
   146   74  195 1    
   147   75   76 1    
   148   75   77 1    
   149   75  196 1    
   150   76  197 1    
   151   76  198 1    
   152   76  199 1    
   153   77   78 2    
   154   77   79 am   BACKBONE|DICT|INTERRES
   155   79   80 1    
   156   79  200 1    
   157   80   81 1    
   158   80   82 1    
   159   80  201 1    
   160   81  202 1    
   161   81  203 1    
   162   81  204 1    
   163   82   83 2    
   164   82   84 am   BACKBONE|DICT|INTERRES
   165   84   85 1    
   166   84  205 1    
   167   85   86 1    
   168   85   87 1    
   169   85  206 1    
   170   86  207 1    
   171   86  208 1    
   172   86  209 1    
   173   87   88 2    
   174   87   89 am   BACKBONE|DICT|INTERRES
   175   89   90 1    
   176   89  210 1    
   177   90   91 1    
   178   90   92 1    
   179   90  211 1    
   180   91  212 1    
   181   91  213 1    
   182   91  214 1    
   183   92   93 2    
   184   92   94 am   BACKBONE|DICT|INTERRES
   185   94   95 1    
   186   94  215 1    
   187   95   96 1    
   188   95   97 1    
   189   95  216 1    
   190   96  217 1    
   191   96  218 1    
   192   96  219 1    
   193   97   98 2    
   194   97   99 am   BACKBONE|DICT|INTERRES
   195   99  100 1    
   196   99  220 1    
   197  100  101 1    
   198  100  102 1    
   199  100  221 1    
   200  101  222 1    
   201  101  223 1    
   202  101  224 1    
   203  102  103 2    
   204  102  104 am   BACKBONE|DICT|INTERRES
   205  104  105 1    
   206  104  225 1    
   207  105  106 1    
   208  105  107 1    
   209  105  226 1    
   210  106  227 1    
   211  106  228 1    
   212  106  229 1    
   213  107  108 2    
   214  107  109 am   BACKBONE|DICT|INTERRES
   215  109  110 1    
   216  109  230 1    
   217  110  111 1    
   218  110  112 1    
   219  110  231 1    
   220  111  232 1    
   221  111  233 1    
   222  111  234 1    
   223  112  113 2    
   224  112  114 am   BACKBONE|DICT|INTERRES
   225  114  115 1    
   226  114  235 1    
   227  115  116 1    
   228  115  117 1    
   229  115  236 1    
   230  116  237 1    
   231  116  238 1    
   232  116  239 1    
   233  117  118 2    
   234  117  119 am   BACKBONE|DICT|INTERRES
   235  119  120 1    
   236  119  240 1    
   237  120  121 1    
   238  120  124 1    
   239  120  241 1    
   240  121  122 am   BACKBONE|DICT|INTERRES
   241  121  123 2    
   242  122  242 1    
   243  122  243 1    
   244  124  125 1    
   245  124  244 1    
   246  124  245 1    
   247  125  126 1    
   248  126  246 1    
   249  126  247 1    
@<TRIPOS>SUBSTRUCTURE
     1 UNK         1 GROUP             0       ****    0 ROOT    
