@<TRIPOS>MOLECULE
3R540
247   249    1
SMALL
USER_CHARGES


@<TRIPOS>ATOM
      1 CA          3.5949  -12.1849  -46.2459 C.3       0 UNK        -0.1800 
      2 C           2.7541  -12.8591  -47.3190 C.2       0 UNK         0.5000 
      3 O           1.5414  -12.9840  -47.1597 O.2       0 UNK        -0.5000 
      4 N           3.3859  -13.2789  -48.4240 N.am      1 UNK        -0.5000 
      5 CA          2.7461  -13.9915  -49.5404 C.3       1 UNK         0.1400 
      6 C6          3.8018  -14.6110  -50.4937 C.3       23 UNK        -0.0398 
      7 S7          3.2003  -16.1139  -51.3372 S.3       23 UNK        -0.2404 
      8 C8          3.4767  -17.3688  -50.0456 C.3       23 UNK        -0.0205 
      9 C9          2.2616  -18.2644  -49.8560 C.ar      23 UNK        -0.0193 
     10 C10         1.0649  -17.7295  -49.3705 C.ar      23 UNK        -0.1150 
     11 C11        -0.0447  -18.5449  -49.1378 C.ar      23 UNK        -0.0193 
     12 C12         0.0591  -19.9179  -49.3839 C.ar      23 UNK        -0.1150 
     13 C13         1.2442  -20.4670  -49.8840 C.ar      23 UNK        -0.0193 
     14 C14         2.3397  -19.6331  -50.1266 C.ar      23 UNK        -0.1150 
     15 C15         1.3377  -21.9639  -50.1477 C.3       23 UNK        -0.0205 
     16 S16         2.6347  -22.7944  -49.1660 S.3       23 UNK        -0.2404 
     17 C17         2.2190  -22.3014  -47.4573 C.3       23 UNK        -0.0398 
     18 CA          1.4147  -23.3564  -46.6631 C.3       11 UNK         0.1400 
     19 N           1.3841  -23.0227  -45.2391 N.am      11 UNK        -0.5000 
     20 C           0.9641  -23.8371  -44.2625 C.2       10 UNK         0.5000 
     21 O           0.6433  -25.0120  -44.4407 O.2       10 UNK        -0.5000 
     22 CA          0.8432  -23.2182  -42.8561 C.3       10 UNK         0.1400 
     23 CB          2.1925  -23.2536  -42.1234 C.3       10 UNK        -0.1800 
     24 N           0.3366  -21.8436  -42.8864 N.am      10 UNK        -0.5000 
     25 C          -0.8864  -21.5001  -43.3172 C.2       9 UNK         0.5000 
     26 O          -1.7355  -22.3147  -43.6791 O.2       9 UNK        -0.5000 
     27 CA         -1.1977  -19.9950  -43.4038 C.3       9 UNK         0.1400 
     28 CB         -1.6028  -19.4399  -42.0304 C.3       9 UNK        -0.1800 
     29 N          -0.0802  -19.2163  -43.9384 N.am      9 UNK        -0.5000 
     30 C           0.4115  -19.3363  -45.1786 C.2       8 UNK         0.5000 
     31 O          -0.0527  -20.1017  -46.0179 O.2       8 UNK        -0.5000 
     32 CA          1.6679  -18.5172  -45.5222 C.3       8 UNK         0.1400 
     33 CB          1.3190  -17.0636  -45.8731 C.3       8 UNK        -0.1800 
     34 N           2.6441  -18.5350  -44.4349 N.am      8 UNK        -0.5000 
     35 C           3.3120  -19.6247  -44.0327 C.2       7 UNK         0.5000 
     36 O           3.2047  -20.7293  -44.5656 O.2       7 UNK        -0.5000 
     37 CA          4.2226  -19.4525  -42.8036 C.3       7 UNK         0.1400 
     38 CB          5.5975  -18.9095  -43.2203 C.3       7 UNK        -0.1800 
     39 N           3.6365  -18.5690  -41.7925 N.am      7 UNK        -0.5000 
     40 C           2.5643  -18.8821  -41.0512 C.2       6 UNK         0.5000 
     41 O           1.9666  -19.9559  -41.1335 O.2       6 UNK        -0.5000 
     42 CA          2.0461  -17.7882  -40.0954 C.3       6 UNK         0.1400 
     43 CB          2.8999  -17.7310  -38.8196 C.3       6 UNK        -0.1800 
     44 N           1.9838  -16.4529  -40.7052 N.am      6 UNK        -0.5000 
     45 C           1.2438  -16.1557  -41.7808 C.2       5 UNK         0.5000 
     46 O           0.5737  -16.9947  -42.3881 O.2       5 UNK        -0.5000 
     47 CA          1.2617  -14.7042  -42.2883 C.3       5 UNK         0.1400 
     48 CB          2.6431  -14.3398  -42.8666 C.3       5 UNK        -0.1800 
     49 N           0.2372  -14.6158  -43.3233 N.am      5 UNK        -0.5000 
     50 C          -0.2244  -13.5356  -43.9538 C.2       4 UNK         0.5000 
     51 O           0.1252  -12.3787  -43.7035 O.2       4 UNK        -0.5000 
     52 CA         -1.2718  -13.8137  -45.0433 C.3       4 UNK         0.1400 
     53 CB         -2.6443  -14.1581  -44.4373 C.3       4 UNK        -0.1800 
     54 N          -1.3859  -12.6442  -45.9021 N.am      4 UNK        -0.5000 
     55 C          -1.7649  -12.6509  -47.1832 C.2       3 UNK         0.5000 
     56 O          -2.1480  -13.6591  -47.7823 O.2       3 UNK        -0.5000 
     57 CA         -1.7048  -11.3120  -47.9332 C.3       3 UNK         0.1400 
     58 CB         -1.6726  -10.0680  -47.0201 C.3       3 UNK        -0.1800 
     59 N          -0.5271  -11.3185  -48.7923 N.am      3 UNK        -0.5000 
     60 C          -0.4568  -10.7488  -50.0025 C.2       2 UNK         0.5000 
     61 O          -1.3978  -10.1486  -50.5242 O.2       2 UNK        -0.5000 
     62 CA          0.8841  -10.8342  -50.7643 C.3       2 UNK         0.1400 
     63 CB          1.5708   -9.4594  -50.7972 C.3       2 UNK        -0.1800 
     64 N           1.8234  -11.8079  -50.2062 N.am      2 UNK        -0.5000 
     65 C           1.7018  -13.1391  -50.3013 C.2       1 UNK         0.5000 
     66 O           0.7973  -13.6919  -50.9267 O.2       1 UNK        -0.5000 
     67 C          -0.0139  -23.5494  -47.2163 C.2       11 UNK         0.5000 
     68 O          -0.2968  -24.5823  -47.8240 O.2       11 UNK        -0.5000 
     69 N          -0.9011  -22.5768  -46.9616 N.am      12 UNK        -0.5000 
     70 CA         -2.3009  -22.5585  -47.3938 C.3       12 UNK         0.1400 
     71 CB         -2.9557  -21.2463  -46.9465 C.3       12 UNK        -0.1800 
     72 C          -3.1270  -23.7513  -46.8869 C.2       12 UNK         0.5000 
     73 O          -4.0084  -24.2190  -47.6050 O.2       12 UNK        -0.5000 
     74 N          -2.8087  -24.2497  -45.6854 N.am      13 UNK        -0.5000 
     75 CA         -3.4100  -25.4475  -45.0974 C.3       13 UNK         0.1400 
     76 CB         -2.9169  -25.6005  -43.6507 C.3       13 UNK        -0.1800 
     77 C          -3.1410  -26.7364  -45.9030 C.2       13 UNK         0.5000 
     78 O          -3.9590  -27.6557  -45.8503 O.2       13 UNK        -0.5000 
     79 N          -2.0201  -26.7793  -46.6363 N.am      14 UNK        -0.5000 
     80 CA         -1.6501  -27.8813  -47.5221 C.3       14 UNK         0.1400 
     81 CB         -0.1371  -28.1294  -47.4111 C.3       14 UNK        -0.1800 
     82 C          -2.0452  -27.5884  -48.9800 C.2       14 UNK         0.5000 
     83 O          -2.5764  -28.4715  -49.6540 O.2       14 UNK        -0.5000 
     84 N          -1.7661  -26.3638  -49.4466 N.am      15 UNK        -0.5000 
     85 CA         -1.9406  -25.9404  -50.8381 C.3       15 UNK         0.1400 
     86 CB         -1.0819  -24.6895  -51.0786 C.3       15 UNK        -0.1800 
     87 C          -3.3988  -25.6520  -51.2410 C.2       15 UNK         0.5000 
     88 O          -3.6948  -25.6845  -52.4352 O.2       15 UNK        -0.5000 
     89 N          -4.2532  -25.3617  -50.2490 N.am      16 UNK        -0.5000 
     90 CA         -5.5987  -24.7862  -50.3262 C.3       16 UNK         0.1400 
     91 CB         -6.5249  -25.5186  -51.3171 C.3       16 UNK        -0.1800 
     92 C          -5.5183  -23.2766  -50.6121 C.2       16 UNK         0.5000 
     93 O          -4.9978  -22.8679  -51.6516 O.2       16 UNK        -0.5000 
     94 N          -6.0452  -22.4697  -49.6812 N.am      17 UNK        -0.5000 
     95 CA         -5.9893  -21.0033  -49.6893 C.3       17 UNK         0.1400 
     96 CB         -6.6952  -20.4692  -48.4330 C.3       17 UNK        -0.1800 
     97 C          -6.5909  -20.3475  -50.9456 C.2       17 UNK         0.5000 
     98 O          -6.0794  -19.3237  -51.3983 O.2       17 UNK        -0.5000 
     99 N          -7.6505  -20.9583  -51.4923 N.am      18 UNK        -0.5000 
    100 CA        -8.3226  -20.5152  -52.7134 C.3       18 UNK         0.1400 
    101 CB        -9.6938  -21.2009  -52.8104 C.3       18 UNK        -0.1800 
    102 C         -7.4946  -20.7828  -53.9839 C.2       18 UNK         0.5000 
    103 O         -7.5477  -19.9821  -54.9172 O.2       18 UNK        -0.5000 
    104 N         -6.7388  -21.8899  -53.9953 N.am      19 UNK        -0.5000 
    105 CA        -5.8571  -22.2749  -55.0985 C.3       19 UNK         0.1400 
    106 CB        -5.5963  -23.7872  -55.0443 C.3       19 UNK        -0.1800 
    107 C         -4.5366  -21.4885  -55.0618 C.2       19 UNK         0.5000 
    108 O         -4.0482  -21.0651  -56.1099 O.2       19 UNK        -0.5000 
    109 N         -4.0051  -21.2784  -53.8501 N.am      20 UNK        -0.5000 
    110 CA        -2.8259  -20.4544  -53.5816 C.3       20 UNK         0.1400 
    111 CB        -2.3015  -20.7963  -52.1793 C.3       20 UNK        -0.1800 
    112 C         -3.0895  -18.9390  -53.7311 C.2       20 UNK         0.5000 
    113 O         -2.1336  -18.1780  -53.8835 O.2       20 UNK        -0.5000 
    114 N         -4.3713  -18.5408  -53.7087 N.am      21 UNK        -0.5000 
    115 CA        -4.9007  -17.1780  -53.8289 C.3       21 UNK         0.1400 
    116 CB        -4.5989  -16.5885  -55.2225 C.3       21 UNK        -0.1800 
    117 C         -4.4553  -16.2688  -52.6651 C.2       21 UNK         0.5000 
    118 O         -4.0254  -15.1339  -52.8826 O.2       21 UNK        -0.5000 
    119 N         -4.5551  -16.8071  -51.4464 N.am      22 UNK        -0.5000 
    120 CA        -4.1790  -16.1481  -50.1873 C.3       22 UNK         0.1400 
    121 C         -5.1653  -15.0213  -49.7706 C.2       22 UNK         0.5000 
    122 N         -4.7248  -14.0742  -48.9539 N.am      22 UNK        -0.7600 
    123 O         -6.3367  -15.0128  -50.1443 O.2       22 UNK        -0.5000 
    124 C124       -4.0118  -17.1813  -49.0452 C.3       23 UNK        -0.0398 
    125 S125       -2.8142  -18.4849  -49.4816 S.3       23 UNK        -0.2404 
    126 C126       -1.3290  -17.9285  -48.5911 C.3       23 UNK        -0.0205 
    127 H127        3.6885  -12.8399  -45.3807 H         1 UNK         0.0600 
    128 H128        4.5962  -11.9480  -46.6057 H         1 UNK         0.0600 
    129 H129        3.1209  -11.2578  -45.9237 H         1 UNK         0.0600 
    130 H130        4.3824  -13.1329  -48.5055 H         1 UNK         0.3000 
    131 H131        2.1905  -14.8060  -49.0752 H         1 UNK         0.0600 
    132 H132        4.1283  -13.8885  -51.2441 H         1 UNK         0.0800 
    133 H133        4.7039  -14.8838  -49.9440 H         1 UNK         0.0800 
    134 H134        3.7029  -16.8946  -49.0897 H         1 UNK         0.0800 
    135 H135        4.3574  -17.9560  -50.3099 H         1 UNK         0.0800 
    136 H136        0.9971  -16.6721  -49.1664 H         1 UNK         0.1150 
    137 H137       -0.7882  -20.5583  -49.1871 H         1 UNK         0.1150 
    138 H138        3.2599  -20.0583  -50.5018 H         1 UNK         0.1150 
    139 H139        0.3823  -22.4449  -49.9424 H         1 UNK         0.0800 
    140 H140        1.5382  -22.1253  -51.2075 H         1 UNK         0.0800 
    141 H141        1.7165  -21.3360  -47.4463 H         1 UNK         0.0800 
    142 H142        3.1713  -22.1290  -46.9540 H         1 UNK         0.0800 
    143 H143        1.9331  -24.3130  -46.7578 H         1 UNK         0.0600 
    144 H144        1.6808  -22.0857  -44.9895 H         1 UNK         0.3000 
    145 H145        0.1325  -23.8231  -42.2891 H         1 UNK         0.0600 
    146 H146        2.0972  -22.8781  -41.1044 H         1 UNK         0.0600 
    147 H147        2.5760  -24.2727  -42.0607 H         1 UNK         0.0600 
    148 H148        2.9445  -22.6503  -42.6322 H         1 UNK         0.0600 
    149 H149        0.9618  -21.1163  -42.5561 H         1 UNK         0.3000 
    150 H150       -2.0440  -19.8686  -44.0814 H         1 UNK         0.0600 
    151 H151       -2.4436  -19.9972  -41.6156 H         1 UNK         0.0600 
    152 H152       -1.9080  -18.3959  -42.1030 H         1 UNK         0.0600 
    153 H153       -0.7826  -19.4982  -41.3143 H         1 UNK         0.0600 
    154 H154        0.3266  -18.5245  -43.3125 H         1 UNK         0.3000 
    155 H155        2.1272  -18.9736  -46.4020 H         1 UNK         0.0600 
    156 H156        0.5564  -17.0132  -46.6479 H         1 UNK         0.0600 
    157 H157        0.9332  -16.5274  -45.0111 H         1 UNK         0.0600 
    158 H158        2.1920  -16.5242  -46.2411 H         1 UNK         0.0600 
    159 H159        2.7631  -17.6801  -43.9143 H         1 UNK         0.3000 
    160 H160        4.3667  -20.4382  -42.3558 H         1 UNK         0.0600 
    161 H161        5.5238  -17.9123  -43.6560 H         1 UNK         0.0600 
    162 H162        6.0641  -19.5586  -43.9625 H         1 UNK         0.0600 
    163 H163        6.2741  -18.8544  -42.3673 H         1 UNK         0.0600 
    164 H164        4.0668  -17.6649  -41.6652 H         1 UNK         0.3000 
    165 H165        1.0296  -18.0653  -39.8078 H         1 UNK         0.0600 
    166 H166        2.4766  -17.0374  -38.0929 H         1 UNK         0.0600 
    167 H167        2.9517  -18.7096  -38.3403 H         1 UNK         0.0600 
    168 H168        3.9220  -17.4141  -39.0305 H         1 UNK         0.0600 
    169 H169        2.5155  -15.7227  -40.2536 H         1 UNK         0.3000 
    170 H170        1.0043  -14.0365  -41.4643 H         1 UNK         0.0600 
    171 H171        3.4302  -14.4564  -42.1212 H         1 UNK         0.0600 
    172 H172        2.9003  -14.9679  -43.7204 H         1 UNK         0.0600 
    173 H173        2.6712  -13.3014  -43.1960 H         1 UNK         0.0600 
    174 H174       -0.1543  -15.5256  -43.5385 H         1 UNK         0.3000 
    175 H175       -0.9158  -14.6568  -45.6400 H         1 UNK         0.0600 
    176 H176       -3.0345  -13.3345  -43.8383 H         1 UNK         0.0600 
    177 H177       -3.3750  -14.3820  -45.2148 H         1 UNK         0.0600 
    178 H178       -2.5822  -15.0351  -43.7919 H         1 UNK         0.0600 
    179 H179       -1.0172  -11.7958  -45.4911 H         1 UNK         0.3000 
    180 H180       -2.6097  -11.2653  -48.5429 H         1 UNK         0.0600 
    181 H181       -0.7488  -10.0073  -46.4434 H         1 UNK         0.0600 
    182 H182       -2.5086  -10.0711  -46.3194 H         1 UNK         0.0600 
    183 H183       -1.7516   -9.1535  -47.6082 H         1 UNK         0.0600 
    184 H184        0.2669  -11.8427  -48.4394 H         1 UNK         0.3000 
    185 H185        0.6561  -11.1263  -51.7915 H         1 UNK         0.0600 
    186 H186        0.9204   -8.7068  -51.2449 H         1 UNK         0.0600 
    187 H187        1.8291   -9.1151  -49.7949 H         1 UNK         0.0600 
    188 H188        2.4855   -9.4884  -51.3897 H         1 UNK         0.0600 
    189 H189        2.5887  -11.4369  -49.6621 H         1 UNK         0.3000 
    190 H190       -0.5787  -21.7381  -46.4800 H         1 UNK         0.3000 
    191 H191       -2.3066  -22.5896  -48.4850 H         1 UNK         0.0600 
    192 H192       -3.9613  -21.1563  -47.3531 H         1 UNK         0.0600 
    193 H193       -2.3894  -20.3841  -47.2903 H         1 UNK         0.0600 
    194 H194       -3.0319  -21.1832  -45.8614 H         1 UNK         0.0600 
    195 H195       -2.1238  -23.7560  -45.1228 H         1 UNK         0.3000 
    196 H196       -4.4911  -25.2967  -45.0742 H         1 UNK         0.0600 
    197 H197       -3.3782  -26.4637  -43.1693 H         1 UNK         0.0600 
    198 H198       -3.1666  -24.7233  -43.0535 H         1 UNK         0.0600 
    199 H199       -1.8364  -25.7387  -43.6073 H         1 UNK         0.0600 
    200 H200       -1.4148  -25.9670  -46.6493 H         1 UNK         0.3000 
    201 H201       -2.1588  -28.7976  -47.2151 H         1 UNK         0.0600 
    202 H202        0.1431  -28.3927  -46.3911 H         1 UNK         0.0600 
    203 H203        0.4418  -27.2509  -47.6987 H         1 UNK         0.0600 
    204 H204        0.1719  -28.9526  -48.0565 H         1 UNK         0.0600 
    205 H205       -1.2906  -25.7048  -48.8331 H         1 UNK         0.3000 
    206 H206       -1.5702  -26.7366  -51.4873 H         1 UNK         0.0600 
    207 H207       -0.0356  -24.8717  -50.8320 H         1 UNK         0.0600 
    208 H208       -1.1221  -24.3804  -52.1239 H         1 UNK         0.0600 
    209 H209       -1.4306  -23.8508  -50.4757 H         1 UNK         0.0600 
    210 H210       -3.8665  -25.3371  -49.3116 H         1 UNK         0.3000 
    211 H211       -6.0265  -24.9232  -49.3320 H         1 UNK         0.0600 
    212 H212       -6.2443  -25.3418  -52.3551 H         1 UNK         0.0600 
    213 H213       -7.5545  -25.1781  -51.2030 H         1 UNK         0.0600 
    214 H214       -6.5163  -26.5947  -51.1443 H         1 UNK         0.0600 
    215 H215       -6.4440  -22.8906  -48.8544 H         1 UNK         0.3000 
    216 H216       -4.9370  -20.7175  -49.6439 H         1 UNK         0.0600 
    217 H217       -6.6247  -19.3826  -48.3760 H         1 UNK         0.0600 
    218 H218       -6.2540  -20.8706  -47.5215 H         1 UNK         0.0600 
    219 H219       -7.7549  -20.7275  -48.4288 H         1 UNK         0.0600 
    220 H220       -8.0072  -21.7915  -51.0483 H         1 UNK         0.3000 
    221 H221       -8.4854  -19.4373  -52.6440 H         1 UNK         0.0600 
    222 H222       -9.5996  -22.2863  -52.8635 H         1 UNK         0.0600 
    223 H223      -10.3173  -20.9592  -51.9495 H         1 UNK         0.0600 
    224 H224      -10.2314  -20.8740  -53.7015 H         1 UNK         0.0600 
    225 H225       -6.6907  -22.4578  -53.1609 H         1 UNK         0.3000 
    226 H226       -6.3567  -22.0534  -56.0442 H         1 UNK         0.0600 
    227 H227       -6.5277  -24.3518  -55.0881 H         1 UNK         0.0600 
    228 H228       -4.9809  -24.1063  -55.8863 H         1 UNK         0.0600 
    229 H229       -5.0730  -24.0726  -54.1318 H         1 UNK         0.0600 
    230 H230       -4.4376  -21.7277  -53.0460 H         1 UNK         0.3000 
    231 H231       -2.0510  -20.7182  -54.3041 H         1 UNK         0.0600 
    232 H232       -1.9720  -21.8336  -52.1245 H         1 UNK         0.0600 
    233 H233       -3.0720  -20.6541  -51.4219 H         1 UNK         0.0600 
    234 H234       -1.4507  -20.1684  -51.9120 H         1 UNK         0.0600 
    235 H235       -5.0632  -19.2500  -53.5093 H         1 UNK         0.3000 
    236 H236       -5.9845  -17.2693  -53.7425 H         1 UNK         0.0600 
    237 H237       -5.1029  -15.6309  -55.3573 H         1 UNK         0.0600 
    238 H238       -3.5321  -16.4192  -55.3710 H         1 UNK         0.0600 
    239 H239       -4.9470  -17.2527  -56.0137 H         1 UNK         0.0600 
    240 H240       -4.9537  -17.7377  -51.3634 H         1 UNK         0.3000 
    241 H241       -3.2085  -15.6748  -50.3516 H         1 UNK         0.0600 
    242 H242       -3.7668  -14.0562  -48.6098 H         1 UNK         0.3800 
    243 H243       -5.3633  -13.3499  -48.6666 H         1 UNK         0.3800 
    244 H244       -3.6952  -16.6944  -48.1210 H         1 UNK         0.0800 
    245 H245       -4.9669  -17.6599  -48.8255 H         1 UNK         0.0800 
    246 H246       -1.4297  -18.1805  -47.5354 H         1 UNK         0.0800 
    247 H247       -1.2747  -16.8399  -48.6494 H         1 UNK         0.0800 
@<TRIPOS>BOND
     1    1    2 1    
     2    1  127 1    
     3    1  128 1    
     4    1  129 1    
     5    2    3 2    
     6    2    4 am   BACKBONE|DICT|INTERRES
     7    4    5 1    
     8    4  130 1    
     9    5    6 1    
    10    5   65 1    
    11    5  131 1    
    12    6    7 1    
    13    6  132 1    
    14    6  133 1    
    15    7    8 1    
    16    8    9 1    
    17    8  134 1    
    18    8  135 1    
    19    9   10 ar   
    20    9   14 ar   
    21   10   11 ar   
    22   10  136 1    
    23   11   12 ar   
    24   11  126 1    
    25   12   13 ar   
    26   12  137 1    
    27   13   14 ar   
    28   13   15 1    
    29   14  138 1    
    30   15   16 1    
    31   15  139 1    
    32   15  140 1    
    33   16   17 1    
    34   17   18 1    
    35   17  141 1    
    36   17  142 1    
    37   18   19 1    
    38   18   67 1    
    39   18  143 1    
    40   19   20 am   BACKBONE|DICT|INTERRES
    41   19  144 1    
    42   20   21 2    
    43   20   22 1    
    44   22   23 1    
    45   22   24 1    
    46   22  145 1    
    47   23  146 1    
    48   23  147 1    
    49   23  148 1    
    50   24   25 am   BACKBONE|DICT|INTERRES
    51   24  149 1    
    52   25   26 2    
    53   25   27 1    
    54   27   28 1    
    55   27   29 1    
    56   27  150 1    
    57   28  151 1    
    58   28  152 1    
    59   28  153 1    
    60   29   30 am   BACKBONE|DICT|INTERRES
    61   29  154 1    
    62   30   31 2    
    63   30   32 1    
    64   32   33 1    
    65   32   34 1    
    66   32  155 1    
    67   33  156 1    
    68   33  157 1    
    69   33  158 1    
    70   34   35 am   BACKBONE|DICT|INTERRES
    71   34  159 1    
    72   35   36 2    
    73   35   37 1    
    74   37   38 1    
    75   37   39 1    
    76   37  160 1    
    77   38  161 1    
    78   38  162 1    
    79   38  163 1    
    80   39   40 am   BACKBONE|DICT|INTERRES
    81   39  164 1    
    82   40   41 2    
    83   40   42 1    
    84   42   43 1    
    85   42   44 1    
    86   42  165 1    
    87   43  166 1    
    88   43  167 1    
    89   43  168 1    
    90   44   45 am   BACKBONE|DICT|INTERRES
    91   44  169 1    
    92   45   46 2    
    93   45   47 1    
    94   47   48 1    
    95   47   49 1    
    96   47  170 1    
    97   48  171 1    
    98   48  172 1    
    99   48  173 1    
   100   49   50 am   BACKBONE|DICT|INTERRES
   101   49  174 1    
   102   50   51 2    
   103   50   52 1    
   104   52   53 1    
   105   52   54 1    
   106   52  175 1    
   107   53  176 1    
   108   53  177 1    
   109   53  178 1    
   110   54   55 am   BACKBONE|DICT|INTERRES
   111   54  179 1    
   112   55   56 2    
   113   55   57 1    
   114   57   58 1    
   115   57   59 1    
   116   57  180 1    
   117   58  181 1    
   118   58  182 1    
   119   58  183 1    
   120   59   60 am   BACKBONE|DICT|INTERRES
   121   59  184 1    
   122   60   61 2    
   123   60   62 1    
   124   62   63 1    
   125   62   64 1    
   126   62  185 1    
   127   63  186 1    
   128   63  187 1    
   129   63  188 1    
   130   64   65 am   BACKBONE|DICT|INTERRES
   131   64  189 1    
   132   65   66 2    
   133   67   68 2    
   134   67   69 am   BACKBONE|DICT|INTERRES
   135   69   70 1    
   136   69  190 1    
   137   70   71 1    
   138   70   72 1    
   139   70  191 1    
   140   71  192 1    
   141   71  193 1    
   142   71  194 1    
   143   72   73 2    
   144   72   74 am   BACKBONE|DICT|INTERRES
   145   74   75 1    
   146   74  195 1    
   147   75   76 1    
   148   75   77 1    
   149   75  196 1    
   150   76  197 1    
   151   76  198 1    
   152   76  199 1    
   153   77   78 2    
   154   77   79 am   BACKBONE|DICT|INTERRES
   155   79   80 1    
   156   79  200 1    
   157   80   81 1    
   158   80   82 1    
   159   80  201 1    
   160   81  202 1    
   161   81  203 1    
   162   81  204 1    
   163   82   83 2    
   164   82   84 am   BACKBONE|DICT|INTERRES
   165   84   85 1    
   166   84  205 1    
   167   85   86 1    
   168   85   87 1    
   169   85  206 1    
   170   86  207 1    
   171   86  208 1    
   172   86  209 1    
   173   87   88 2    
   174   87   89 am   BACKBONE|DICT|INTERRES
   175   89   90 1    
   176   89  210 1    
   177   90   91 1    
   178   90   92 1    
   179   90  211 1    
   180   91  212 1    
   181   91  213 1    
   182   91  214 1    
   183   92   93 2    
   184   92   94 am   BACKBONE|DICT|INTERRES
   185   94   95 1    
   186   94  215 1    
   187   95   96 1    
   188   95   97 1    
   189   95  216 1    
   190   96  217 1    
   191   96  218 1    
   192   96  219 1    
   193   97   98 2    
   194   97   99 am   BACKBONE|DICT|INTERRES
   195   99  100 1    
   196   99  220 1    
   197  100  101 1    
   198  100  102 1    
   199  100  221 1    
   200  101  222 1    
   201  101  223 1    
   202  101  224 1    
   203  102  103 2    
   204  102  104 am   BACKBONE|DICT|INTERRES
   205  104  105 1    
   206  104  225 1    
   207  105  106 1    
   208  105  107 1    
   209  105  226 1    
   210  106  227 1    
   211  106  228 1    
   212  106  229 1    
   213  107  108 2    
   214  107  109 am   BACKBONE|DICT|INTERRES
   215  109  110 1    
   216  109  230 1    
   217  110  111 1    
   218  110  112 1    
   219  110  231 1    
   220  111  232 1    
   221  111  233 1    
   222  111  234 1    
   223  112  113 2    
   224  112  114 am   BACKBONE|DICT|INTERRES
   225  114  115 1    
   226  114  235 1    
   227  115  116 1    
   228  115  117 1    
   229  115  236 1    
   230  116  237 1    
   231  116  238 1    
   232  116  239 1    
   233  117  118 2    
   234  117  119 am   BACKBONE|DICT|INTERRES
   235  119  120 1    
   236  119  240 1    
   237  120  121 1    
   238  120  124 1    
   239  120  241 1    
   240  121  122 am   BACKBONE|DICT|INTERRES
   241  121  123 2    
   242  122  242 1    
   243  122  243 1    
   244  124  125 1    
   245  124  244 1    
   246  124  245 1    
   247  125  126 1    
   248  126  246 1    
   249  126  247 1    
@<TRIPOS>SUBSTRUCTURE
     1 UNK         1 GROUP             0       ****    0 ROOT    
