@<TRIPOS>MOLECULE
3R540
247   249    1
SMALL
USER_CHARGES


@<TRIPOS>ATOM
      1 CA          0.3157  -10.0730  -46.3230 C.3       0 UNK        -0.1800 
      2 C           1.5617  -10.8860  -46.6378 C.2       0 UNK         0.5000 
      3 O           2.0653  -11.5906  -45.7630 O.2       0 UNK        -0.5000 
      4 N           2.0724  -10.7567  -47.8695 N.am      1 UNK        -0.5000 
      5 CA          3.2136  -11.4787  -48.4585 C.3       1 UNK         0.1400 
      6 C6          2.8522  -12.9277  -48.9011 C.3       23 UNK        -0.0398 
      7 S7          2.8815  -14.2324  -47.6124 S.3       23 UNK        -0.2404 
      8 C8          4.0319  -15.4439  -48.3537 C.3       23 UNK        -0.0205 
      9 C9          3.3240  -16.5141  -49.1809 C.ar      23 UNK        -0.0193 
     10 C10         2.4603  -16.1629  -50.2223 C.ar      23 UNK        -0.1150 
     11 C11         1.8197  -17.1451  -50.9796 C.ar      23 UNK        -0.0193 
     12 C12         2.0647  -18.4930  -50.7094 C.ar      23 UNK        -0.1150 
     13 C13         2.9288  -18.8695  -49.6720 C.ar      23 UNK        -0.0193 
     14 C14         3.5531  -17.8692  -48.9183 C.ar      23 UNK        -0.1150 
     15 C15         3.2327  -20.3334  -49.3363 C.3       23 UNK        -0.0205 
     16 S16         2.0536  -21.5675  -49.9942 S.3       23 UNK        -0.2404 
     17 C17         0.5357  -21.1138  -49.0954 C.3       23 UNK        -0.0398 
     18 CA          0.0191  -22.2521  -48.1697 C.3       11 UNK         0.1400 
     19 N          -0.0451  -21.8362  -46.7645 N.am      11 UNK        -0.5000 
     20 C          -0.4082  -22.6096  -45.7310 C.2       10 UNK         0.5000 
     21 O          -0.6672  -23.8082  -45.8273 O.2       10 UNK        -0.5000 
     22 CA         -0.5648  -21.9155  -44.3651 C.3       10 UNK         0.1400 
     23 CB          0.7896  -21.7916  -43.6526 C.3       10 UNK        -0.1800 
     24 N          -1.1972  -20.5990  -44.4717 N.am      10 UNK        -0.5000 
     25 C          -2.4452  -20.3947  -44.9197 C.2       9 UNK         0.5000 
     26 O          -3.2158  -21.3020  -45.2307 O.2       9 UNK        -0.5000 
     27 CA         -2.8929  -18.9344  -45.1046 C.3       9 UNK         0.1400 
     28 CB         -3.3321  -18.3209  -43.7671 C.3       9 UNK        -0.1800 
     29 N          -1.8562  -18.1022  -45.7143 N.am      9 UNK        -0.5000 
     30 C          -1.3519  -18.2903  -46.9430 C.2       8 UNK         0.5000 
     31 O          -1.7449  -19.1635  -47.7176 O.2       8 UNK        -0.5000 
     32 CA         -0.1717  -17.3865  -47.3442 C.3       8 UNK         0.1400 
     33 CB         -0.6624  -15.9849  -47.7392 C.3       8 UNK        -0.1800 
     34 N           0.8264  -17.2797  -46.2773 N.am      8 UNK        -0.5000 
     35 C           1.5614  -18.3028  -45.8159 C.2       7 UNK         0.5000 
     36 O           1.5132  -19.4424  -46.2731 O.2       7 UNK        -0.5000 
     37 CA          2.4640  -18.0247  -44.6014 C.3       7 UNK         0.1400 
     38 CB          3.8206  -17.4620  -45.0388 C.3       7 UNK        -0.1800 
     39 N           1.8390  -17.1149  -43.6428 N.am      7 UNK        -0.5000 
     40 C           0.7762  -17.4377  -42.8934 C.2       6 UNK         0.5000 
     41 O           0.2353  -18.5433  -42.9104 O.2       6 UNK        -0.5000 
     42 CA          0.1922  -16.3169  -42.0203 C.3       6 UNK         0.1400 
     43 CB          0.9936  -16.1591  -40.7199 C.3       6 UNK        -0.1800 
     44 N           0.1406  -15.0370  -42.7285 N.am      6 UNK        -0.5000 
     45 C          -0.6794  -14.7803  -43.7584 C.2       5 UNK         0.5000 
     46 O          -1.4198  -15.6340  -44.2467 O.2       5 UNK        -0.5000 
     47 CA         -0.6684  -13.3673  -44.3805 C.3       5 UNK         0.1400 
     48 CB         -2.0944  -12.7931  -44.5033 C.3       5 UNK        -0.1800 
     49 N           0.2348  -12.4147  -43.7270 N.am      5 UNK        -0.5000 
     50 C           0.1609  -11.8945  -42.4929 C.2       4 UNK         0.5000 
     51 O          -0.7667  -12.1099  -41.7118 O.2       4 UNK        -0.5000 
     52 CA          1.3547  -11.0135  -42.0546 C.3       4 UNK         0.1400 
     53 CB          1.5147  -10.9570  -40.5212 C.3       4 UNK        -0.1800 
     54 N           2.6314  -11.3879  -42.6830 N.am      4 UNK        -0.5000 
     55 C           3.2332  -12.5887  -42.6510 C.2       3 UNK         0.5000 
     56 O           2.7607  -13.5687  -42.0728 O.2       3 UNK        -0.5000 
     57 CA          4.5596  -12.7283  -43.4227 C.3       3 UNK         0.1400 
     58 CB          4.7019  -14.1153  -44.0711 C.3       3 UNK        -0.1800 
     59 N           4.6851  -11.7059  -44.4626 N.am      3 UNK        -0.5000 
     60 C           5.7954  -11.0074  -44.7369 C.2       2 UNK         0.5000 
     61 O           6.8456  -11.1286  -44.1036 O.2       2 UNK        -0.5000 
     62 CA          5.7152   -9.9853  -45.8951 C.3       2 UNK         0.1400 
     63 CB          7.0704   -9.7655  -46.6003 C.3       2 UNK        -0.1800 
     64 N           4.6497  -10.2798  -46.8612 N.am      2 UNK        -0.5000 
     65 C           4.5497  -11.3378  -47.6826 C.2       1 UNK         0.5000 
     66 O           5.4490  -12.1634  -47.8459 O.2       1 UNK        -0.5000 
     67 C          -1.3407  -22.7834  -48.6627 C.2       11 UNK         0.5000 
     68 O          -1.4164  -23.9059  -49.1643 O.2       11 UNK        -0.5000 
     69 N          -2.3914  -21.9737  -48.4697 N.am      12 UNK        -0.5000 
     70 CA         -3.7701  -22.3021  -48.8250 C.3       12 UNK         0.1400 
     71 CB         -4.6644  -21.0780  -48.5829 C.3       12 UNK        -0.1800 
     72 C          -4.3011  -23.5298  -48.0644 C.2       12 UNK         0.5000 
     73 O          -4.9381  -24.3857  -48.6760 O.2       12 UNK        -0.5000 
     74 N          -4.0025  -23.6146  -46.7599 N.am      13 UNK        -0.5000 
     75 CA         -4.3607  -24.7381  -45.8939 C.3       13 UNK         0.1400 
     76 CB         -4.0413  -24.3930  -44.4320 C.3       13 UNK        -0.1800 
     77 C          -3.6785  -26.0540  -46.3070 C.2       13 UNK         0.5000 
     78 O          -4.3511  -27.0828  -46.3777 O.2       13 UNK        -0.5000 
     79 N          -2.3747  -25.9981  -46.6169 N.am      14 UNK        -0.5000 
     80 CA         -1.5864  -27.1326  -47.1093 C.3       14 UNK         0.1400 
     81 CB         -0.1029  -26.7392  -47.1720 C.3       14 UNK        -0.1800 
     82 C          -2.0692  -27.6493  -48.4779 C.2       14 UNK         0.5000 
     83 O          -2.0528  -28.8571  -48.7167 O.2       14 UNK        -0.5000 
     84 N          -2.5308  -26.7267  -49.3303 N.am      15 UNK        -0.5000 
     85 CA         -3.1542  -27.0023  -50.6240 C.3       15 UNK         0.1400 
     86 CB         -2.9462  -25.7757  -51.5220 C.3       15 UNK        -0.1800 
     87 C          -4.6529  -27.3656  -50.5236 C.2       15 UNK         0.5000 
     88 O          -5.2886  -27.5628  -51.5601 O.2       15 UNK        -0.5000 
     89 N          -5.2060  -27.4216  -49.3007 N.am      16 UNK        -0.5000 
     90 CA         -6.6003  -27.7353  -48.9599 C.3       16 UNK         0.1400 
     91 CB         -6.8960  -29.2225  -49.2430 C.3       16 UNK        -0.1800 
     92 C          -7.6286  -26.7874  -49.6174 C.2       16 UNK         0.5000 
     93 O          -8.7454  -27.2062  -49.9262 O.2       16 UNK        -0.5000 
     94 N          -7.2136  -25.5326  -49.8452 N.am      17 UNK        -0.5000 
     95 CA         -7.9172  -24.4486  -50.5381 C.3       17 UNK         0.1400 
     96 CB         -9.1759  -24.0248  -49.7546 C.3       17 UNK        -0.1800 
     97 C          -8.2169  -24.7196  -52.0307 C.2       17 UNK         0.5000 
     98 O          -8.9479  -23.9417  -52.6460 O.2       17 UNK        -0.5000 
     99 N          -7.6403  -25.7854  -52.6066 N.am      18 UNK        -0.5000 
    100 CA        -7.7732  -26.1358  -54.0236 C.3       18 UNK         0.1400 
    101 CB        -7.5269  -27.6432  -54.1906 C.3       18 UNK        -0.1800 
    102 C         -6.8141  -25.3278  -54.9191 C.2       18 UNK         0.5000 
    103 O         -7.0269  -25.2524  -56.1299 O.2       18 UNK        -0.5000 
    104 N         -5.7832  -24.7387  -54.3075 N.am      19 UNK        -0.5000 
    105 CA        -4.7701  -23.8851  -54.9093 C.3       19 UNK         0.1400 
    106 CB        -3.7081  -24.7530  -55.6127 C.3       19 UNK        -0.1800 
    107 C         -4.1584  -23.0231  -53.7929 C.2       19 UNK         0.5000 
    108 O         -4.5397  -23.1692  -52.6282 O.2       19 UNK        -0.5000 
    109 N         -3.2216  -22.1416  -54.1697 N.am      20 UNK        -0.5000 
    110 CA        -2.3821  -21.3115  -53.2917 C.3       20 UNK         0.1400 
    111 CB        -1.4329  -22.2013  -52.4637 C.3       20 UNK        -0.1800 
    112 C         -3.1515  -20.3016  -52.4105 C.2       20 UNK         0.5000 
    113 O         -2.5886  -19.7743  -51.4508 O.2       20 UNK        -0.5000 
    114 N         -4.4098  -20.0124  -52.7670 N.am      21 UNK        -0.5000 
    115 CA        -5.2996  -19.0691  -52.0905 C.3       21 UNK         0.1400 
    116 CB        -6.7555  -19.4999  -52.3440 C.3       21 UNK        -0.1800 
    117 C         -5.0112  -17.6189  -52.5298 C.2       21 UNK         0.5000 
    118 O         -5.8874  -16.9417  -53.0703 O.2       21 UNK        -0.5000 
    119 N         -3.7657  -17.1835  -52.3166 N.am      22 UNK        -0.5000 
    120 CA        -3.2460  -15.8539  -52.6717 C.3       22 UNK         0.1400 
    121 C         -3.6987  -14.6904  -51.7385 C.2       22 UNK         0.5000 
    122 N         -4.3463  -14.9521  -50.6093 N.am      22 UNK        -0.7600 
    123 O         -3.4727  -13.5257  -52.0558 O.2       22 UNK        -0.5000 
    124 C124       -1.7071  -15.8872  -52.8614 C.3       23 UNK        -0.0398 
    125 S125       -0.8070  -16.4717  -51.3853 S.3       23 UNK        -0.2404 
    126 C126        0.8490  -16.7450  -52.0772 C.3       23 UNK        -0.0205 
    127 H127        0.1998   -9.2331  -47.0081 H         1 UNK         0.0600 
    128 H128       -0.5684  -10.7039  -46.4025 H         1 UNK         0.0600 
    129 H129        0.3662   -9.6776  -45.3084 H         1 UNK         0.0600 
    130 H130        1.6072  -10.1266  -48.5084 H         1 UNK         0.3000 
    131 H131        3.4032  -10.9325  -49.3839 H         1 UNK         0.0600 
    132 H132        1.8585  -12.9330  -49.3506 H         1 UNK         0.0800 
    133 H133        3.5253  -13.2135  -49.7097 H         1 UNK         0.0800 
    134 H134        4.7735  -14.9381  -48.9727 H         1 UNK         0.0800 
    135 H135        4.6010  -15.9060  -47.5478 H         1 UNK         0.0800 
    136 H136        2.2682  -15.1237  -50.4402 H         1 UNK         0.1150 
    137 H137        1.5681  -19.2403  -51.3102 H         1 UNK         0.1150 
    138 H138        4.2271  -18.1515  -48.1226 H         1 UNK         0.1150 
    139 H139        4.2257  -20.5720  -49.7187 H         1 UNK         0.0800 
    140 H140        3.2817  -20.4548  -48.2527 H         1 UNK         0.0800 
    141 H141       -0.2033  -20.7996  -49.8350 H         1 UNK         0.0800 
    142 H142        0.7252  -20.2072  -48.5257 H         1 UNK         0.0800 
    143 H143        0.7147  -23.0933  -48.2025 H         1 UNK         0.0600 
    144 H144        0.2144  -20.8734  -46.5727 H         1 UNK         0.3000 
    145 H145       -1.2118  -22.5416  -43.7479 H         1 UNK         0.0600 
    146 H146        0.6751  -21.3538  -42.6609 H         1 UNK         0.0600 
    147 H147        1.2527  -22.7707  -43.5249 H         1 UNK         0.0600 
    148 H148        1.4870  -21.1709  -44.2142 H         1 UNK         0.0600 
    149 H149       -0.6424  -19.8001  -44.1803 H         1 UNK         0.3000 
    150 H150       -3.7536  -18.9353  -45.7765 H         1 UNK         0.0600 
    151 H151       -4.1169  -18.9186  -43.3020 H         1 UNK         0.0600 
    152 H152       -3.7284  -17.3150  -43.9071 H         1 UNK         0.0600 
    153 H153       -2.5041  -18.2573  -43.0607 H         1 UNK         0.0600 
    154 H154       -1.5125  -17.3270  -45.1541 H         1 UNK         0.3000 
    155 H155        0.3101  -17.8318  -48.2169 H         1 UNK         0.0600 
    156 H156       -1.0686  -15.4378  -46.8896 H         1 UNK         0.0600 
    157 H157       -1.4506  -16.0461  -48.4901 H         1 UNK         0.0600 
    158 H158        0.1453  -15.3928  -48.1686 H         1 UNK         0.0600 
    159 H159        0.9235  -16.3791  -45.8356 H         1 UNK         0.3000 
    160 H160        2.6442  -18.9761  -44.0967 H         1 UNK         0.0600 
    161 H161        3.7055  -16.5034  -45.5405 H         1 UNK         0.0600 
    162 H162        4.3212  -18.1415  -45.7290 H         1 UNK         0.0600 
    163 H163        4.4841  -17.3203  -44.1857 H         1 UNK         0.0600 
    164 H164        2.2202  -16.1832  -43.5661 H         1 UNK         0.3000 
    165 H165       -0.8295  -16.5978  -41.7557 H         1 UNK         0.0600 
    166 H166        2.0347  -15.8993  -40.9141 H         1 UNK         0.0600 
    167 H167        0.5674  -15.3812  -40.0860 H         1 UNK         0.0600 
    168 H168        0.9894  -17.0865  -40.1458 H         1 UNK         0.0600 
    169 H169        0.7686  -14.3106  -42.4042 H         1 UNK         0.3000 
    170 H170       -0.2763  -13.4898  -45.3912 H         1 UNK         0.0600 
    171 H171       -2.5965  -12.7441  -43.5368 H         1 UNK         0.0600 
    172 H172       -2.7092  -13.4150  -45.1552 H         1 UNK         0.0600 
    173 H173       -2.0870  -11.7897  -44.9268 H         1 UNK         0.0600 
    174 H174        1.0451  -12.1604  -44.2877 H         1 UNK         0.3000 
    175 H175        1.1263  -10.0050  -42.4018 H         1 UNK         0.0600 
    176 H176        2.3508  -10.3188  -40.2354 H         1 UNK         0.0600 
    177 H177        0.6214  -10.5490  -40.0469 H         1 UNK         0.0600 
    178 H178        1.6880  -11.9466  -40.0970 H         1 UNK         0.0600 
    179 H179        3.0914  -10.6554  -43.2042 H         1 UNK         0.3000 
    180 H180        5.3526  -12.6101  -42.6820 H         1 UNK         0.0600 
    181 H181        3.8867  -14.3021  -44.7695 H         1 UNK         0.0600 
    182 H182        4.6888  -14.9072  -43.3215 H         1 UNK         0.0600 
    183 H183        5.6395  -14.2032  -44.6201 H         1 UNK         0.0600 
    184 H184        3.8608  -11.5752  -45.0444 H         1 UNK         0.3000 
    185 H185        5.4377   -9.0384  -45.4303 H         1 UNK         0.0600 
    186 H186        6.9789   -9.0505  -47.4179 H         1 UNK         0.0600 
    187 H187        7.8117   -9.3682  -45.9060 H         1 UNK         0.0600 
    188 H188        7.4733  -10.6930  -47.0075 H         1 UNK         0.0600 
    189 H189        3.8512   -9.6621  -46.8221 H         1 UNK         0.3000 
    190 H190       -2.2299  -21.0524  -48.0716 H         1 UNK         0.3000 
    191 H191       -3.7897  -22.5329  -49.8922 H         1 UNK         0.0600 
    192 H192       -4.2804  -20.2041  -49.1084 H         1 UNK         0.0600 
    193 H193       -5.6785  -21.2594  -48.9408 H         1 UNK         0.0600 
    194 H194       -4.7258  -20.8253  -47.5240 H         1 UNK         0.0600 
    195 H195       -3.5170  -22.8380  -46.3181 H         1 UNK         0.3000 
    196 H196       -5.4395  -24.8859  -45.9767 H         1 UNK         0.0600 
    197 H197       -4.3225  -25.2103  -43.7668 H         1 UNK         0.0600 
    198 H198       -4.5879  -23.5072  -44.1080 H         1 UNK         0.0600 
    199 H199       -2.9782  -24.2016  -44.2865 H         1 UNK         0.0600 
    200 H200       -1.8762  -25.1191  -46.4992 H         1 UNK         0.3000 
    201 H201       -1.6922  -27.9490  -46.3920 H         1 UNK         0.0600 
    202 H202        0.2721  -26.4606  -46.1871 H         1 UNK         0.0600 
    203 H203        0.0609  -25.8949  -47.8427 H         1 UNK         0.0600 
    204 H204        0.5081  -27.5686  -47.5301 H         1 UNK         0.0600 
    205 H205       -2.4548  -25.7490  -49.0694 H         1 UNK         0.3000 
    206 H206       -2.6501  -27.8514  -51.0896 H         1 UNK         0.0600 
    207 H207       -1.8865  -25.5700  -51.6735 H         1 UNK         0.0600 
    208 H208       -3.3939  -25.9195  -52.5055 H         1 UNK         0.0600 
    209 H209       -3.3953  -24.8877  -51.0774 H         1 UNK         0.0600 
    210 H210       -4.6146  -27.2075  -48.5070 H         1 UNK         0.3000 
    211 H211       -6.6926  -27.5784  -47.8845 H         1 UNK         0.0600 
    212 H212       -6.8789  -29.4414  -50.3112 H         1 UNK         0.0600 
    213 H213       -7.8790  -29.5066  -48.8659 H         1 UNK         0.0600 
    214 H214       -6.1650  -29.8684  -48.7563 H         1 UNK         0.0600 
    215 H215       -6.2834  -25.2816  -49.5112 H         1 UNK         0.3000 
    216 H216       -7.2270  -23.6035  -50.5281 H         1 UNK         0.0600 
    217 H217       -8.9377  -23.8127  -48.7122 H         1 UNK         0.0600 
    218 H218       -9.9448  -24.7975  -49.7737 H         1 UNK         0.0600 
    219 H219       -9.6139  -23.1192  -50.1756 H         1 UNK         0.0600 
    220 H220       -7.0330  -26.3777  -52.0510 H         1 UNK         0.3000 
    221 H221       -8.7932  -25.9218  -54.3497 H         1 UNK         0.0600 
    222 H222       -6.5035  -27.9157  -53.9308 H         1 UNK         0.0600 
    223 H223       -8.1997  -28.2260  -53.5612 H         1 UNK         0.0600 
    224 H224       -7.6953  -27.9533  -55.2226 H         1 UNK         0.0600 
    225 H225       -5.7155  -24.7957  -53.2987 H         1 UNK         0.3000 
    226 H226       -5.2443  -23.2189  -55.6327 H         1 UNK         0.0600 
    227 H227       -4.1560  -25.3821  -56.3820 H         1 UNK         0.0600 
    228 H228       -2.9530  -24.1390  -56.1042 H         1 UNK         0.0600 
    229 H229       -3.1928  -25.4064  -54.9080 H         1 UNK         0.0600 
    230 H230       -3.0043  -22.0734  -55.1544 H         1 UNK         0.3000 
    231 H231       -1.7628  -20.7076  -53.9562 H         1 UNK         0.0600 
    232 H232       -0.6733  -21.6022  -51.9627 H         1 UNK         0.0600 
    233 H233       -0.9090  -22.9185  -53.0953 H         1 UNK         0.0600 
    234 H234       -1.9707  -22.7608  -51.6983 H         1 UNK         0.0600 
    235 H235       -4.7826  -20.4702  -53.5849 H         1 UNK         0.3000 
    236 H236       -5.1244  -19.1194  -51.0148 H         1 UNK         0.0600 
    237 H237       -7.4542  -18.8426  -51.8249 H         1 UNK         0.0600 
    238 H238       -7.0052  -19.4752  -53.4054 H         1 UNK         0.0600 
    239 H239       -6.9339  -20.5128  -51.9815 H         1 UNK         0.0600 
    240 H240       -3.1079  -17.8136  -51.8683 H         1 UNK         0.3000 
    241 H241       -3.6679  -15.6046  -53.6473 H         1 UNK         0.0600 
    242 H242       -4.5343  -15.9028  -50.3373 H         1 UNK         0.3800 
    243 H243       -4.6417  -14.1910  -50.0187 H         1 UNK         0.3800 
    244 H244       -1.4639  -16.5486  -53.6942 H         1 UNK         0.0800 
    245 H245       -1.3271  -14.9035  -53.1427 H         1 UNK         0.0800 
    246 H246        1.1961  -15.8351  -52.5692 H         1 UNK         0.0800 
    247 H247        0.8016  -17.5185  -52.8452 H         1 UNK         0.0800 
@<TRIPOS>BOND
     1    1    2 1    
     2    1  127 1    
     3    1  128 1    
     4    1  129 1    
     5    2    3 2    
     6    2    4 am   BACKBONE|DICT|INTERRES
     7    4    5 1    
     8    4  130 1    
     9    5    6 1    
    10    5   65 1    
    11    5  131 1    
    12    6    7 1    
    13    6  132 1    
    14    6  133 1    
    15    7    8 1    
    16    8    9 1    
    17    8  134 1    
    18    8  135 1    
    19    9   10 ar   
    20    9   14 ar   
    21   10   11 ar   
    22   10  136 1    
    23   11   12 ar   
    24   11  126 1    
    25   12   13 ar   
    26   12  137 1    
    27   13   14 ar   
    28   13   15 1    
    29   14  138 1    
    30   15   16 1    
    31   15  139 1    
    32   15  140 1    
    33   16   17 1    
    34   17   18 1    
    35   17  141 1    
    36   17  142 1    
    37   18   19 1    
    38   18   67 1    
    39   18  143 1    
    40   19   20 am   BACKBONE|DICT|INTERRES
    41   19  144 1    
    42   20   21 2    
    43   20   22 1    
    44   22   23 1    
    45   22   24 1    
    46   22  145 1    
    47   23  146 1    
    48   23  147 1    
    49   23  148 1    
    50   24   25 am   BACKBONE|DICT|INTERRES
    51   24  149 1    
    52   25   26 2    
    53   25   27 1    
    54   27   28 1    
    55   27   29 1    
    56   27  150 1    
    57   28  151 1    
    58   28  152 1    
    59   28  153 1    
    60   29   30 am   BACKBONE|DICT|INTERRES
    61   29  154 1    
    62   30   31 2    
    63   30   32 1    
    64   32   33 1    
    65   32   34 1    
    66   32  155 1    
    67   33  156 1    
    68   33  157 1    
    69   33  158 1    
    70   34   35 am   BACKBONE|DICT|INTERRES
    71   34  159 1    
    72   35   36 2    
    73   35   37 1    
    74   37   38 1    
    75   37   39 1    
    76   37  160 1    
    77   38  161 1    
    78   38  162 1    
    79   38  163 1    
    80   39   40 am   BACKBONE|DICT|INTERRES
    81   39  164 1    
    82   40   41 2    
    83   40   42 1    
    84   42   43 1    
    85   42   44 1    
    86   42  165 1    
    87   43  166 1    
    88   43  167 1    
    89   43  168 1    
    90   44   45 am   BACKBONE|DICT|INTERRES
    91   44  169 1    
    92   45   46 2    
    93   45   47 1    
    94   47   48 1    
    95   47   49 1    
    96   47  170 1    
    97   48  171 1    
    98   48  172 1    
    99   48  173 1    
   100   49   50 am   BACKBONE|DICT|INTERRES
   101   49  174 1    
   102   50   51 2    
   103   50   52 1    
   104   52   53 1    
   105   52   54 1    
   106   52  175 1    
   107   53  176 1    
   108   53  177 1    
   109   53  178 1    
   110   54   55 am   BACKBONE|DICT|INTERRES
   111   54  179 1    
   112   55   56 2    
   113   55   57 1    
   114   57   58 1    
   115   57   59 1    
   116   57  180 1    
   117   58  181 1    
   118   58  182 1    
   119   58  183 1    
   120   59   60 am   BACKBONE|DICT|INTERRES
   121   59  184 1    
   122   60   61 2    
   123   60   62 1    
   124   62   63 1    
   125   62   64 1    
   126   62  185 1    
   127   63  186 1    
   128   63  187 1    
   129   63  188 1    
   130   64   65 am   BACKBONE|DICT|INTERRES
   131   64  189 1    
   132   65   66 2    
   133   67   68 2    
   134   67   69 am   BACKBONE|DICT|INTERRES
   135   69   70 1    
   136   69  190 1    
   137   70   71 1    
   138   70   72 1    
   139   70  191 1    
   140   71  192 1    
   141   71  193 1    
   142   71  194 1    
   143   72   73 2    
   144   72   74 am   BACKBONE|DICT|INTERRES
   145   74   75 1    
   146   74  195 1    
   147   75   76 1    
   148   75   77 1    
   149   75  196 1    
   150   76  197 1    
   151   76  198 1    
   152   76  199 1    
   153   77   78 2    
   154   77   79 am   BACKBONE|DICT|INTERRES
   155   79   80 1    
   156   79  200 1    
   157   80   81 1    
   158   80   82 1    
   159   80  201 1    
   160   81  202 1    
   161   81  203 1    
   162   81  204 1    
   163   82   83 2    
   164   82   84 am   BACKBONE|DICT|INTERRES
   165   84   85 1    
   166   84  205 1    
   167   85   86 1    
   168   85   87 1    
   169   85  206 1    
   170   86  207 1    
   171   86  208 1    
   172   86  209 1    
   173   87   88 2    
   174   87   89 am   BACKBONE|DICT|INTERRES
   175   89   90 1    
   176   89  210 1    
   177   90   91 1    
   178   90   92 1    
   179   90  211 1    
   180   91  212 1    
   181   91  213 1    
   182   91  214 1    
   183   92   93 2    
   184   92   94 am   BACKBONE|DICT|INTERRES
   185   94   95 1    
   186   94  215 1    
   187   95   96 1    
   188   95   97 1    
   189   95  216 1    
   190   96  217 1    
   191   96  218 1    
   192   96  219 1    
   193   97   98 2    
   194   97   99 am   BACKBONE|DICT|INTERRES
   195   99  100 1    
   196   99  220 1    
   197  100  101 1    
   198  100  102 1    
   199  100  221 1    
   200  101  222 1    
   201  101  223 1    
   202  101  224 1    
   203  102  103 2    
   204  102  104 am   BACKBONE|DICT|INTERRES
   205  104  105 1    
   206  104  225 1    
   207  105  106 1    
   208  105  107 1    
   209  105  226 1    
   210  106  227 1    
   211  106  228 1    
   212  106  229 1    
   213  107  108 2    
   214  107  109 am   BACKBONE|DICT|INTERRES
   215  109  110 1    
   216  109  230 1    
   217  110  111 1    
   218  110  112 1    
   219  110  231 1    
   220  111  232 1    
   221  111  233 1    
   222  111  234 1    
   223  112  113 2    
   224  112  114 am   BACKBONE|DICT|INTERRES
   225  114  115 1    
   226  114  235 1    
   227  115  116 1    
   228  115  117 1    
   229  115  236 1    
   230  116  237 1    
   231  116  238 1    
   232  116  239 1    
   233  117  118 2    
   234  117  119 am   BACKBONE|DICT|INTERRES
   235  119  120 1    
   236  119  240 1    
   237  120  121 1    
   238  120  124 1    
   239  120  241 1    
   240  121  122 am   BACKBONE|DICT|INTERRES
   241  121  123 2    
   242  122  242 1    
   243  122  243 1    
   244  124  125 1    
   245  124  244 1    
   246  124  245 1    
   247  125  126 1    
   248  126  246 1    
   249  126  247 1    
@<TRIPOS>SUBSTRUCTURE
     1 UNK         1 GROUP             0       ****    0 ROOT    
