@<TRIPOS>MOLECULE
3R540
247   249    1
SMALL
USER_CHARGES


@<TRIPOS>ATOM
      1 CA          2.3491  -11.1953  -53.3282 C.3       0 UNK        -0.1800 
      2 C           2.9457  -11.4536  -51.9517 C.2       0 UNK         0.5000 
      3 O           3.9004  -10.7807  -51.5609 O.2       0 UNK        -0.5000 
      4 N           2.3944  -12.4297  -51.2218 N.am      1 UNK        -0.5000 
      5 CA          2.7745  -12.7753  -49.8493 C.3       1 UNK         0.1400 
      6 C6          2.2519  -14.1776  -49.4389 C.3       23 UNK        -0.0398 
      7 S7          0.4579  -14.4288  -49.6965 S.3       23 UNK        -0.2404 
      8 C8          0.1794  -16.0016  -48.8218 C.3       23 UNK        -0.0205 
      9 C9          1.0050  -17.1375  -49.4089 C.ar      23 UNK        -0.0193 
     10 C10         0.6968  -17.6497  -50.6717 C.ar      23 UNK        -0.1150 
     11 C11         1.4852  -18.6529  -51.2420 C.ar      23 UNK        -0.0193 
     12 C12         2.5739  -19.1625  -50.5299 C.ar      23 UNK        -0.1150 
     13 C13         2.8828  -18.6700  -49.2589 C.ar      23 UNK        -0.0193 
     14 C14         2.0948  -17.6567  -48.7038 C.ar      23 UNK        -0.1150 
     15 C15         4.0950  -19.2029  -48.5083 C.3       23 UNK        -0.0205 
     16 S16         3.8352  -20.8854  -47.8626 S.3       23 UNK        -0.2404 
     17 C17         2.5893  -20.5903  -46.5638 C.3       23 UNK        -0.0398 
     18 CA          1.4494  -21.6354  -46.5506 C.3       11 UNK         0.1400 
     19 N           0.6813  -21.5595  -45.3057 N.am      11 UNK        -0.5000 
     20 C          -0.2579  -22.4326  -44.9167 C.2       10 UNK         0.5000 
     21 O          -0.5596  -23.4436  -45.5500 O.2       10 UNK        -0.5000 
     22 CA         -1.0175  -22.0934  -43.6209 C.3       10 UNK         0.1400 
     23 CB         -0.2111  -22.5188  -42.3848 C.3       10 UNK        -0.1800 
     24 N          -1.3497  -20.6718  -43.5216 N.am      10 UNK        -0.5000 
     25 C          -2.1663  -20.0176  -44.3591 C.2       9 UNK         0.5000 
     26 O          -2.7730  -20.5566  -45.2825 O.2       9 UNK        -0.5000 
     27 CA         -2.2778  -18.4954  -44.1723 C.3       9 UNK         0.1400 
     28 CB         -3.2244  -18.1402  -43.0153 C.3       9 UNK        -0.1800 
     29 N          -0.9708  -17.8780  -43.9531 N.am      9 UNK        -0.5000 
     30 C          -0.0054  -17.8042  -44.8799 C.2       8 UNK         0.5000 
     31 O          -0.1257  -18.2233  -46.0309 O.2       8 UNK        -0.5000 
     32 CA          1.3328  -17.1926  -44.4290 C.3       8 UNK         0.1400 
     33 CB          1.2930  -15.6646  -44.5594 C.3       8 UNK        -0.1800 
     34 N           1.6924  -17.5586  -43.0565 N.am      8 UNK        -0.5000 
     35 C           1.9792  -18.8060  -42.6616 C.2       7 UNK         0.5000 
     36 O           1.9764  -19.7769  -43.4175 O.2       7 UNK        -0.5000 
     37 CA          2.2662  -19.0142  -41.1637 C.3       7 UNK         0.1400 
     38 CB          3.6759  -18.5232  -40.8008 C.3       7 UNK        -0.1800 
     39 N           1.2811  -18.3842  -40.2789 N.am      7 UNK        -0.5000 
     40 C          -0.0334  -18.6485  -40.2787 C.2       6 UNK         0.5000 
     41 O          -0.5716  -19.4027  -41.0871 O.2       6 UNK        -0.5000 
     42 CA         -0.9095  -17.9667  -39.2089 C.3       6 UNK         0.1400 
     43 CB         -1.4302  -19.0140  -38.2127 C.3       6 UNK        -0.1800 
     44 N          -0.2129  -16.9186  -38.4561 N.am      6 UNK        -0.5000 
     45 C          -0.0192  -15.6401  -38.8097 C.2       5 UNK         0.5000 
     46 O           0.5827  -14.8627  -38.0676 O.2       5 UNK        -0.5000 
     47 CA         -0.5827  -15.1109  -40.1506 C.3       5 UNK         0.1400 
     48 CB         -1.9962  -14.5393  -39.9613 C.3       5 UNK        -0.1800 
     49 N           0.2710  -14.0682  -40.7149 N.am      5 UNK        -0.5000 
     50 C           1.5094  -14.2649  -41.1793 C.2       4 UNK         0.5000 
     51 O           2.0272  -15.3798  -41.2658 O.2       4 UNK        -0.5000 
     52 CA          2.2587  -13.0125  -41.6733 C.3       4 UNK         0.1400 
     53 CB          3.7098  -13.3112  -42.0910 C.3       4 UNK        -0.1800 
     54 N           1.5619  -12.3984  -42.8022 N.am      4 UNK        -0.5000 
     55 C           0.5025  -11.5847  -42.7285 C.2       3 UNK         0.5000 
     56 O          -0.0091  -11.2476  -41.6585 O.2       3 UNK        -0.5000 
     57 CA         -0.0744  -11.0705  -44.0684 C.3       3 UNK         0.1400 
     58 CB         -1.1070   -9.9454  -43.8737 C.3       3 UNK        -0.1800 
     59 N           0.9609  -10.6020  -44.9966 N.am      3 UNK        -0.5000 
     60 C           1.7503  -11.3875  -45.7379 C.2       2 UNK         0.5000 
     61 O           1.7171  -12.6196  -45.6912 O.2       2 UNK        -0.5000 
     62 CA          2.7901  -10.6840  -46.6272 C.3       2 UNK         0.1400 
     63 CB          4.0702  -10.4005  -45.8256 C.3       2 UNK        -0.1800 
     64 N           3.1292  -11.5186  -47.7786 N.am      2 UNK        -0.5000 
     65 C           2.3383  -11.6859  -48.8454 C.2       1 UNK         0.5000 
     66 O           1.3032  -11.0405  -49.0366 O.2       1 UNK        -0.5000 
     67 C           0.5418  -21.5486  -47.7987 C.2       11 UNK         0.5000 
     68 O           0.7205  -22.3364  -48.7278 O.2       11 UNK        -0.5000 
     69 N          -0.4500  -20.6460  -47.7735 N.am      12 UNK        -0.5000 
     70 CA         -1.4877  -20.5484  -48.7995 C.3       12 UNK         0.1400 
     71 CB         -2.2955  -19.2588  -48.5997 C.3       12 UNK        -0.1800 
     72 C          -2.4142  -21.7780  -48.8097 C.2       12 UNK         0.5000 
     73 O          -2.6295  -22.3666  -49.8682 O.2       12 UNK        -0.5000 
     74 N          -2.9184  -22.1663  -47.6282 N.am      13 UNK        -0.5000 
     75 CA         -3.8460  -23.2844  -47.4294 C.3       13 UNK         0.1400 
     76 CB         -4.2974  -23.3298  -45.9631 C.3       13 UNK        -0.1800 
     77 C          -3.2963  -24.6548  -47.8641 C.2       13 UNK         0.5000 
     78 O          -4.0794  -25.5173  -48.2634 O.2       13 UNK        -0.5000 
     79 N          -1.9664  -24.8199  -47.8336 N.am      14 UNK        -0.5000 
     80 CA         -1.2416  -25.9982  -48.3175 C.3       14 UNK         0.1400 
     81 CB          0.2526  -25.8359  -48.0010 C.3       14 UNK        -0.1800 
     82 C          -1.4494  -26.3033  -49.8175 C.2       14 UNK         0.5000 
     83 O          -1.2159  -27.4386  -50.2337 O.2       14 UNK        -0.5000 
     84 N          -1.9169  -25.3151  -50.5962 N.am      15 UNK        -0.5000 
     85 CA         -2.3355  -25.4767  -51.9898 C.3       15 UNK         0.1400 
     86 CB         -2.3227  -24.1046  -52.6752 C.3       15 UNK        -0.1800 
     87 C          -3.7030  -26.1819  -52.1538 C.2       15 UNK         0.5000 
     88 O          -4.0846  -26.4726  -53.2884 O.2       15 UNK        -0.5000 
     89 N          -4.4018  -26.4645  -51.0408 N.am      16 UNK        -0.5000 
     90 CA         -5.5934  -27.3093  -50.9049 C.3       16 UNK         0.1400 
     91 CB         -5.2217  -28.7910  -51.1286 C.3       16 UNK        -0.1800 
     92 C          -6.7764  -26.8424  -51.7733 C.2       16 UNK         0.5000 
     93 O          -7.5276  -25.9635  -51.3525 O.2       16 UNK        -0.5000 
     94 N          -6.9165  -27.4140  -52.9768 N.am      17 UNK        -0.5000 
     95 CA         -7.9175  -27.0319  -53.9761 C.3       17 UNK         0.1400 
     96 CB         -7.8680  -28.0342  -55.1391 C.3       17 UNK        -0.1800 
     97 C          -7.7434  -25.5901  -54.4971 C.2       17 UNK         0.5000 
     98 O          -8.7193  -24.9892  -54.9473 O.2       17 UNK        -0.5000 
     99 N          -6.5170  -25.0603  -54.4053 N.am      18 UNK        -0.5000 
    100 CA        -6.1494  -23.6959  -54.7717 C.3       18 UNK         0.1400 
    101 CB        -5.0575  -23.7547  -55.8551 C.3       18 UNK        -0.1800 
    102 C         -5.7102  -22.8909  -53.5327 C.2       18 UNK         0.5000 
    103 O         -4.8393  -22.0321  -53.6485 O.2       18 UNK        -0.5000 
    104 N         -6.3126  -23.1620  -52.3627 N.am      19 UNK        -0.5000 
    105 CA        -5.9985  -22.5293  -51.0707 C.3       19 UNK         0.1400 
    106 CB        -6.8757  -23.1472  -49.9704 C.3       19 UNK        -0.1800 
    107 C         -6.1044  -20.9888  -51.0300 C.2       19 UNK         0.5000 
    108 O         -5.5085  -20.3647  -50.1508 O.2       19 UNK        -0.5000 
    109 N         -6.8456  -20.3978  -51.9760 N.am      20 UNK        -0.5000 
    110 CA        -6.9503  -18.9587  -52.2057 C.3       20 UNK         0.1400 
    111 CB        -8.1651  -18.6940  -53.1124 C.3       20 UNK        -0.1800 
    112 C         -5.6422  -18.3890  -52.7958 C.2       20 UNK         0.5000 
    113 O         -5.5512  -18.1695  -54.0058 O.2       20 UNK        -0.5000 
    114 N         -4.6426  -18.1970  -51.9228 N.am      21 UNK        -0.5000 
    115 CA        -3.3198  -17.6141  -52.1878 C.3       21 UNK         0.1400 
    116 CB        -3.4471  -16.0994  -52.4480 C.3       21 UNK        -0.1800 
    117 C         -2.5236  -18.3467  -53.2899 C.2       21 UNK         0.5000 
    118 O         -1.8057  -17.7088  -54.0617 O.2       21 UNK        -0.5000 
    119 N         -2.6767  -19.6754  -53.3394 N.am      22 UNK        -0.5000 
    120 CA        -2.0716  -20.5924  -54.3214 C.3       22 UNK         0.1400 
    121 C         -2.6675  -20.4809  -55.7595 C.2       22 UNK         0.5000 
    122 N         -3.7785  -19.7838  -55.9738 N.am      22 UNK        -0.7600 
    123 O         -2.1261  -21.0548  -56.7009 O.2       22 UNK        -0.5000 
    124 C124       -0.5151  -20.5938  -54.3246 C.3       23 UNK        -0.0398 
    125 S125        0.2228  -20.6809  -52.6525 S.3       23 UNK        -0.2404 
    126 C126        1.1914  -19.1412  -52.6493 C.3       23 UNK        -0.0205 
    127 H127        1.5241  -11.8741  -53.5462 H         1 UNK         0.0600 
    128 H128        3.1096  -11.3264  -54.0980 H         1 UNK         0.0600 
    129 H129        1.9736  -10.1738  -53.3884 H         1 UNK         0.0600 
    130 H130        1.5886  -12.9250  -51.5767 H         1 UNK         0.3000 
    131 H131        3.8657  -12.8199  -49.8223 H         1 UNK         0.0600 
    132 H132        2.4942  -14.3887  -48.3954 H         1 UNK         0.0800 
    133 H133        2.7785  -14.9346  -50.0218 H         1 UNK         0.0800 
    134 H134       -0.8802  -16.2479  -48.8855 H         1 UNK         0.0800 
    135 H135        0.3975  -15.8711  -47.7620 H         1 UNK         0.0800 
    136 H136       -0.1375  -17.2409  -51.2240 H         1 UNK         0.1150 
    137 H137        3.1880  -19.9361  -50.9693 H         1 UNK         0.1150 
    138 H138        2.3373  -17.2602  -47.7281 H         1 UNK         0.1150 
    139 H139        4.9526  -19.2156  -49.1824 H         1 UNK         0.0800 
    140 H140        4.3665  -18.5391  -47.6859 H         1 UNK         0.0800 
    141 H141        2.1809  -19.5833  -46.6427 H         1 UNK         0.0800 
    142 H142        3.1255  -20.6201  -45.6149 H         1 UNK         0.0800 
    143 H143        1.9106  -22.6255  -46.5622 H         1 UNK         0.0600 
    144 H144        0.9074  -20.7879  -44.6846 H         1 UNK         0.3000 
    145 H145       -1.9530  -22.6553  -43.6239 H         1 UNK         0.0600 
    146 H146       -0.7754  -22.3448  -41.4684 H         1 UNK         0.0600 
    147 H147        0.7277  -21.9699  -42.3065 H         1 UNK         0.0600 
    148 H148        0.0306  -23.5817  -42.4228 H         1 UNK         0.0600 
    149 H149       -0.9232  -20.1586  -42.7538 H         1 UNK         0.3000 
    150 H150       -2.6968  -18.0781  -45.0906 H         1 UNK         0.0600 
    151 H151       -4.2198  -18.5498  -43.1911 H         1 UNK         0.0600 
    152 H152       -3.3319  -17.0604  -42.9105 H         1 UNK         0.0600 
    153 H153       -2.8738  -18.5364  -42.0626 H         1 UNK         0.0600 
    154 H154       -0.7639  -17.5627  -43.0185 H         1 UNK         0.3000 
    155 H155        2.1122  -17.5705  -45.0935 H         1 UNK         0.0600 
    156 H156        1.0558  -15.3623  -45.5791 H         1 UNK         0.0600 
    157 H157        2.2580  -15.2241  -44.3128 H         1 UNK         0.0600 
    158 H158        0.5416  -15.2210  -43.9054 H         1 UNK         0.0600 
    159 H159        1.7565  -16.8047  -42.3745 H         1 UNK         0.3000 
    160 H160        2.2278  -20.0891  -40.9751 H         1 UNK         0.0600 
    161 H161        3.7726  -17.4437  -40.9206 H         1 UNK         0.0600 
    162 H162        4.4281  -18.9923  -41.4363 H         1 UNK         0.0600 
    163 H163        3.9252  -18.7692  -39.7685 H         1 UNK         0.0600 
    164 H164        1.6398  -17.7257  -39.6029 H         1 UNK         0.3000 
    165 H165       -1.7778  -17.5427  -39.7149 H         1 UNK         0.0600 
    166 H166       -2.1020  -18.5636  -37.4817 H         1 UNK         0.0600 
    167 H167       -1.9904  -19.7985  -38.7238 H         1 UNK         0.0600 
    168 H168       -0.6155  -19.4943  -37.6692 H         1 UNK         0.0600 
    169 H169        0.1623  -17.2157  -37.5672 H         1 UNK         0.3000 
    170 H170       -0.6268  -15.9129  -40.8871 H         1 UNK         0.0600 
    171 H171       -2.6775  -15.2910  -39.5616 H         1 UNK         0.0600 
    172 H172       -1.9981  -13.6961  -39.2694 H         1 UNK         0.0600 
    173 H173       -2.4126  -14.1958  -40.9085 H         1 UNK         0.0600 
    174 H174       -0.0817  -13.1183  -40.6929 H         1 UNK         0.3000 
    175 H175        2.2919  -12.3037  -40.8433 H         1 UNK         0.0600 
    176 H176        3.7574  -14.0051  -42.9304 H         1 UNK         0.0600 
    177 H177        4.2300  -12.3989  -42.3832 H         1 UNK         0.0600 
    178 H178        4.2700  -13.7543  -41.2666 H         1 UNK         0.0600 
    179 H179        1.8732  -12.6655  -43.7307 H         1 UNK         0.3000 
    180 H180       -0.5931  -11.9145  -44.5280 H         1 UNK         0.0600 
    181 H181       -1.5322   -9.6309  -44.8270 H         1 UNK         0.0600 
    182 H182       -0.6630   -9.0699  -43.3984 H         1 UNK         0.0600 
    183 H183       -1.9360  -10.2762  -43.2466 H         1 UNK         0.0600 
    184 H184        1.0823   -9.6009  -45.0523 H         1 UNK         0.3000 
    185 H185        2.3764   -9.7368  -46.9800 H         1 UNK         0.0600 
    186 H186        4.5172  -11.3183  -45.4407 H         1 UNK         0.0600 
    187 H187        4.8162   -9.8952  -46.4393 H         1 UNK         0.0600 
    188 H188        3.8628   -9.7547  -44.9713 H         1 UNK         0.0600 
    189 H189        3.9447  -12.1043  -47.6744 H         1 UNK         0.3000 
    190 H190       -0.5080  -19.9940  -46.9985 H         1 UNK         0.3000 
    191 H191       -0.9966  -20.4903  -49.7732 H         1 UNK         0.0600 
    192 H192       -1.6577  -18.3833  -48.6976 H         1 UNK         0.0600 
    193 H193       -2.7652  -19.2198  -47.6171 H         1 UNK         0.0600 
    194 H194       -3.0872  -19.1758  -49.3440 H         1 UNK         0.0600 
    195 H195       -2.7102  -21.6082  -46.8028 H         1 UNK         0.3000 
    196 H196       -4.7224  -23.0824  -48.0450 H         1 UNK         0.0600 
    197 H197       -4.7841  -22.3996  -45.6702 H         1 UNK         0.0600 
    198 H198       -3.4552  -23.4964  -45.2918 H         1 UNK         0.0600 
    199 H199       -5.0137  -24.1357  -45.7983 H         1 UNK         0.0600 
    200 H200       -1.4048  -24.0779  -47.4315 H         1 UNK         0.3000 
    201 H201       -1.6153  -26.8593  -47.7603 H         1 UNK         0.0600 
    202 H202        0.4179  -25.6815  -46.9346 H         1 UNK         0.0600 
    203 H203        0.6853  -24.9896  -48.5345 H         1 UNK         0.0600 
    204 H204        0.8127  -26.7259  -48.2904 H         1 UNK         0.0600 
    205 H205       -2.0735  -24.4002  -50.1859 H         1 UNK         0.3000 
    206 H206       -1.5979  -26.1028  -52.4958 H         1 UNK         0.0600 
    207 H207       -3.0505  -23.4295  -52.2289 H         1 UNK         0.0600 
    208 H208       -1.3427  -23.6331  -52.5984 H         1 UNK         0.0600 
    209 H209       -2.5581  -24.1906  -53.7357 H         1 UNK         0.0600 
    210 H210       -4.0426  -26.1149  -50.1579 H         1 UNK         0.3000 
    211 H211       -5.9196  -27.2092  -49.8684 H         1 UNK         0.0600 
    212 H212       -4.7895  -28.9678  -52.1139 H         1 UNK         0.0600 
    213 H213       -6.0963  -29.4352  -51.0285 H         1 UNK         0.0600 
    214 H214       -4.4926  -29.1217  -50.3887 H         1 UNK         0.0600 
    215 H215       -6.2289  -28.0960  -53.2630 H         1 UNK         0.3000 
    216 H216       -8.9019  -27.0955  -53.5078 H         1 UNK         0.0600 
    217 H217       -8.6206  -27.7968  -55.8922 H         1 UNK         0.0600 
    218 H218       -8.0644  -29.0496  -54.7941 H         1 UNK         0.0600 
    219 H219       -6.8955  -28.0283  -55.6331 H         1 UNK         0.0600 
    220 H220       -5.7723  -25.6299  -54.0131 H         1 UNK         0.3000 
    221 H221       -7.0060  -23.1659  -55.1920 H         1 UNK         0.0600 
    222 H222       -4.1547  -24.2445  -55.4903 H         1 UNK         0.0600 
    223 H223       -5.4036  -24.3043  -56.7304 H         1 UNK         0.0600 
    224 H224       -4.7798  -22.7556  -56.1925 H         1 UNK         0.0600 
    225 H225       -7.0018  -23.9025  -52.3368 H         1 UNK         0.3000 
    226 H226       -4.9613  -22.7721  -50.8426 H         1 UNK         0.0600 
    227 H227       -6.5586  -24.1650  -49.7453 H         1 UNK         0.0600 
    228 H228       -6.8103  -22.5839  -49.0387 H         1 UNK         0.0600 
    229 H229       -7.9268  -23.1733  -50.2596 H         1 UNK         0.0600 
    230 H230       -7.2759  -20.9916  -52.6686 H         1 UNK         0.3000 
    231 H231       -7.1330  -18.4625  -51.2501 H         1 UNK         0.0600 
    232 H232       -8.2771  -17.6276  -53.3125 H         1 UNK         0.0600 
    233 H233       -9.0883  -19.0344  -52.6431 H         1 UNK         0.0600 
    234 H234       -8.0715  -19.2009  -54.0737 H         1 UNK         0.0600 
    235 H235       -4.7999  -18.5218  -50.9753 H         1 UNK         0.3000 
    236 H236       -2.7403  -17.7381  -51.2725 H         1 UNK         0.0600 
    237 H237       -3.9762  -15.8940  -53.3791 H         1 UNK         0.0600 
    238 H238       -3.9849  -15.6043  -51.6395 H         1 UNK         0.0600 
    239 H239       -2.4654  -15.6289  -52.5166 H         1 UNK         0.0600 
    240 H240       -3.3283  -20.1100  -52.7016 H         1 UNK         0.3000 
    241 H241       -2.3651  -21.5849  -53.9860 H         1 UNK         0.0600 
    242 H242       -4.1546  -19.7261  -56.9060 H         1 UNK         0.3800 
    243 H243       -4.2539  -19.3155  -55.2111 H         1 UNK         0.3800 
    244 H244       -0.1403  -19.7179  -54.8555 H         1 UNK         0.0800 
    245 H245       -0.1476  -21.4543  -54.8858 H         1 UNK         0.0800 
    246 H246        0.6583  -18.3611  -53.1937 H         1 UNK         0.0800 
    247 H247        2.1245  -19.3045  -53.1905 H         1 UNK         0.0800 
@<TRIPOS>BOND
     1    1    2 1    
     2    1  127 1    
     3    1  128 1    
     4    1  129 1    
     5    2    3 2    
     6    2    4 am   BACKBONE|DICT|INTERRES
     7    4    5 1    
     8    4  130 1    
     9    5    6 1    
    10    5   65 1    
    11    5  131 1    
    12    6    7 1    
    13    6  132 1    
    14    6  133 1    
    15    7    8 1    
    16    8    9 1    
    17    8  134 1    
    18    8  135 1    
    19    9   10 ar   
    20    9   14 ar   
    21   10   11 ar   
    22   10  136 1    
    23   11   12 ar   
    24   11  126 1    
    25   12   13 ar   
    26   12  137 1    
    27   13   14 ar   
    28   13   15 1    
    29   14  138 1    
    30   15   16 1    
    31   15  139 1    
    32   15  140 1    
    33   16   17 1    
    34   17   18 1    
    35   17  141 1    
    36   17  142 1    
    37   18   19 1    
    38   18   67 1    
    39   18  143 1    
    40   19   20 am   BACKBONE|DICT|INTERRES
    41   19  144 1    
    42   20   21 2    
    43   20   22 1    
    44   22   23 1    
    45   22   24 1    
    46   22  145 1    
    47   23  146 1    
    48   23  147 1    
    49   23  148 1    
    50   24   25 am   BACKBONE|DICT|INTERRES
    51   24  149 1    
    52   25   26 2    
    53   25   27 1    
    54   27   28 1    
    55   27   29 1    
    56   27  150 1    
    57   28  151 1    
    58   28  152 1    
    59   28  153 1    
    60   29   30 am   BACKBONE|DICT|INTERRES
    61   29  154 1    
    62   30   31 2    
    63   30   32 1    
    64   32   33 1    
    65   32   34 1    
    66   32  155 1    
    67   33  156 1    
    68   33  157 1    
    69   33  158 1    
    70   34   35 am   BACKBONE|DICT|INTERRES
    71   34  159 1    
    72   35   36 2    
    73   35   37 1    
    74   37   38 1    
    75   37   39 1    
    76   37  160 1    
    77   38  161 1    
    78   38  162 1    
    79   38  163 1    
    80   39   40 am   BACKBONE|DICT|INTERRES
    81   39  164 1    
    82   40   41 2    
    83   40   42 1    
    84   42   43 1    
    85   42   44 1    
    86   42  165 1    
    87   43  166 1    
    88   43  167 1    
    89   43  168 1    
    90   44   45 am   BACKBONE|DICT|INTERRES
    91   44  169 1    
    92   45   46 2    
    93   45   47 1    
    94   47   48 1    
    95   47   49 1    
    96   47  170 1    
    97   48  171 1    
    98   48  172 1    
    99   48  173 1    
   100   49   50 am   BACKBONE|DICT|INTERRES
   101   49  174 1    
   102   50   51 2    
   103   50   52 1    
   104   52   53 1    
   105   52   54 1    
   106   52  175 1    
   107   53  176 1    
   108   53  177 1    
   109   53  178 1    
   110   54   55 am   BACKBONE|DICT|INTERRES
   111   54  179 1    
   112   55   56 2    
   113   55   57 1    
   114   57   58 1    
   115   57   59 1    
   116   57  180 1    
   117   58  181 1    
   118   58  182 1    
   119   58  183 1    
   120   59   60 am   BACKBONE|DICT|INTERRES
   121   59  184 1    
   122   60   61 2    
   123   60   62 1    
   124   62   63 1    
   125   62   64 1    
   126   62  185 1    
   127   63  186 1    
   128   63  187 1    
   129   63  188 1    
   130   64   65 am   BACKBONE|DICT|INTERRES
   131   64  189 1    
   132   65   66 2    
   133   67   68 2    
   134   67   69 am   BACKBONE|DICT|INTERRES
   135   69   70 1    
   136   69  190 1    
   137   70   71 1    
   138   70   72 1    
   139   70  191 1    
   140   71  192 1    
   141   71  193 1    
   142   71  194 1    
   143   72   73 2    
   144   72   74 am   BACKBONE|DICT|INTERRES
   145   74   75 1    
   146   74  195 1    
   147   75   76 1    
   148   75   77 1    
   149   75  196 1    
   150   76  197 1    
   151   76  198 1    
   152   76  199 1    
   153   77   78 2    
   154   77   79 am   BACKBONE|DICT|INTERRES
   155   79   80 1    
   156   79  200 1    
   157   80   81 1    
   158   80   82 1    
   159   80  201 1    
   160   81  202 1    
   161   81  203 1    
   162   81  204 1    
   163   82   83 2    
   164   82   84 am   BACKBONE|DICT|INTERRES
   165   84   85 1    
   166   84  205 1    
   167   85   86 1    
   168   85   87 1    
   169   85  206 1    
   170   86  207 1    
   171   86  208 1    
   172   86  209 1    
   173   87   88 2    
   174   87   89 am   BACKBONE|DICT|INTERRES
   175   89   90 1    
   176   89  210 1    
   177   90   91 1    
   178   90   92 1    
   179   90  211 1    
   180   91  212 1    
   181   91  213 1    
   182   91  214 1    
   183   92   93 2    
   184   92   94 am   BACKBONE|DICT|INTERRES
   185   94   95 1    
   186   94  215 1    
   187   95   96 1    
   188   95   97 1    
   189   95  216 1    
   190   96  217 1    
   191   96  218 1    
   192   96  219 1    
   193   97   98 2    
   194   97   99 am   BACKBONE|DICT|INTERRES
   195   99  100 1    
   196   99  220 1    
   197  100  101 1    
   198  100  102 1    
   199  100  221 1    
   200  101  222 1    
   201  101  223 1    
   202  101  224 1    
   203  102  103 2    
   204  102  104 am   BACKBONE|DICT|INTERRES
   205  104  105 1    
   206  104  225 1    
   207  105  106 1    
   208  105  107 1    
   209  105  226 1    
   210  106  227 1    
   211  106  228 1    
   212  106  229 1    
   213  107  108 2    
   214  107  109 am   BACKBONE|DICT|INTERRES
   215  109  110 1    
   216  109  230 1    
   217  110  111 1    
   218  110  112 1    
   219  110  231 1    
   220  111  232 1    
   221  111  233 1    
   222  111  234 1    
   223  112  113 2    
   224  112  114 am   BACKBONE|DICT|INTERRES
   225  114  115 1    
   226  114  235 1    
   227  115  116 1    
   228  115  117 1    
   229  115  236 1    
   230  116  237 1    
   231  116  238 1    
   232  116  239 1    
   233  117  118 2    
   234  117  119 am   BACKBONE|DICT|INTERRES
   235  119  120 1    
   236  119  240 1    
   237  120  121 1    
   238  120  124 1    
   239  120  241 1    
   240  121  122 am   BACKBONE|DICT|INTERRES
   241  121  123 2    
   242  122  242 1    
   243  122  243 1    
   244  124  125 1    
   245  124  244 1    
   246  124  245 1    
   247  125  126 1    
   248  126  246 1    
   249  126  247 1    
@<TRIPOS>SUBSTRUCTURE
     1 UNK         1 GROUP             0       ****    0 ROOT    
