@<TRIPOS>MOLECULE
3R540
247   249    1
SMALL
USER_CHARGES


@<TRIPOS>ATOM
      1 CA         -0.2423   -9.9935  -50.2473 C.3       0 UNK        -0.1800 
      2 C           0.4210  -11.0489  -49.3750 C.2       0 UNK         0.5000 
      3 O           1.0829  -10.7065  -48.3956 O.2       0 UNK        -0.5000 
      4 N           0.2326  -12.3317  -49.7142 N.am      1 UNK        -0.5000 
      5 CA          0.8233  -13.5004  -49.0397 C.3       1 UNK         0.1400 
      6 C6          0.4909  -14.8242  -49.7736 C.3       23 UNK        -0.0398 
      7 S7          0.9506  -14.7859  -51.5423 S.3       23 UNK        -0.2404 
      8 C8          2.0091  -16.2624  -51.7039 C.3       23 UNK        -0.0205 
      9 C9          1.2602  -17.5687  -51.4614 C.ar      23 UNK        -0.0193 
     10 C10         0.0591  -17.8391  -52.1264 C.ar      23 UNK        -0.1150 
     11 C11        -0.6318  -19.0324  -51.8950 C.ar      23 UNK        -0.0193 
     12 C12        -0.0915  -19.9782  -51.0226 C.ar      23 UNK        -0.1150 
     13 C13         1.1160  -19.7318  -50.3656 C.ar      23 UNK        -0.0193 
     14 C14         1.7842  -18.5233  -50.5840 C.ar      23 UNK        -0.1150 
     15 C15         1.7066  -20.7772  -49.4324 C.3       23 UNK        -0.0205 
     16 S16         1.4246  -20.3631  -47.6850 S.3       23 UNK        -0.2404 
     17 C17        -0.3547  -20.7150  -47.4872 C.3       23 UNK        -0.0398 
     18 CA         -0.6293  -22.0777  -46.8117 C.3       11 UNK         0.1400 
     19 N           0.0027  -22.2057  -45.4881 N.am      11 UNK        -0.5000 
     20 C          -0.0220  -23.3049  -44.7177 C.2       10 UNK         0.5000 
     21 O          -0.5878  -24.3486  -45.0419 O.2       10 UNK        -0.5000 
     22 CA          0.6416  -23.2138  -43.3348 C.3       10 UNK         0.1400 
     23 CB          2.1616  -23.4122  -43.4360 C.3       10 UNK        -0.1800 
     24 N           0.3398  -21.9349  -42.6939 N.am      10 UNK        -0.5000 
     25 C          -0.7884  -21.6843  -42.0137 C.2       9 UNK         0.5000 
     26 O          -1.6428  -22.5383  -41.7758 O.2       9 UNK        -0.5000 
     27 CA         -1.0212  -20.2370  -41.5318 C.3       9 UNK         0.1400 
     28 CB         -0.4585  -20.0474  -40.1152 C.3       9 UNK        -0.1800 
     29 N          -0.4448  -19.2201  -42.4120 N.am      9 UNK        -0.5000 
     30 C          -0.7830  -19.0285  -43.6948 C.2       8 UNK         0.5000 
     31 O          -1.6753  -19.6523  -44.2688 O.2       8 UNK        -0.5000 
     32 CA          0.0658  -18.0176  -44.4885 C.3       8 UNK         0.1400 
     33 CB         -0.5053  -16.6014  -44.3450 C.3       8 UNK        -0.1800 
     34 N           1.4815  -18.0160  -44.1127 N.am      8 UNK        -0.5000 
     35 C           2.2969  -19.0805  -44.1430 C.2       7 UNK         0.5000 
     36 O           1.9285  -20.2145  -44.4432 O.2       7 UNK        -0.5000 
     37 CA          3.7519  -18.8501  -43.7119 C.3       7 UNK         0.1400 
     38 CB          4.5585  -18.1748  -44.8322 C.3       7 UNK        -0.1800 
     39 N           3.8036  -18.0383  -42.4982 N.am      7 UNK        -0.5000 
     40 C           3.6346  -18.5259  -41.2613 C.2       6 UNK         0.5000 
     41 O           3.5136  -19.7252  -41.0096 O.2       6 UNK        -0.5000 
     42 CA          3.5715  -17.5039  -40.1094 C.3       6 UNK         0.1400 
     43 CB          4.9740  -17.2503  -39.5367 C.3       6 UNK        -0.1800 
     44 N           2.9742  -16.2252  -40.4995 N.am      6 UNK        -0.5000 
     45 C           1.6903  -16.0596  -40.8459 C.2       5 UNK         0.5000 
     46 O           0.8623  -16.9710  -40.8640 O.2       5 UNK        -0.5000 
     47 CA          1.2734  -14.6437  -41.2893 C.3       5 UNK         0.1400 
     48 CB          0.8972  -13.7871  -40.0716 C.3       5 UNK        -0.1800 
     49 N           2.2713  -13.9266  -42.0914 N.am      5 UNK        -0.5000 
     50 C           2.8518  -14.3772  -43.2122 C.2       4 UNK         0.5000 
     51 O           2.7126  -15.5232  -43.6381 O.2       4 UNK        -0.5000 
     52 CA          3.6827  -13.3549  -44.0059 C.3       4 UNK         0.1400 
     53 CB          4.4809  -14.0010  -45.1527 C.3       4 UNK        -0.1800 
     54 N           2.7772  -12.3555  -44.5638 N.am      4 UNK        -0.5000 
     55 C           2.3977  -11.2301  -43.9434 C.2       3 UNK         0.5000 
     56 O           2.8655  -10.8567  -42.8668 O.2       3 UNK        -0.5000 
     57 CA          1.2774  -10.4080  -44.6096 C.3       3 UNK         0.1400 
     58 CB          1.8736   -9.3063  -45.4978 C.3       3 UNK        -0.1800 
     59 N           0.3602  -11.2336  -45.4004 N.am      3 UNK        -0.5000 
     60 C          -0.4835  -12.1380  -44.8764 C.2       2 UNK         0.5000 
     61 O          -0.6206  -12.3145  -43.6654 O.2       2 UNK        -0.5000 
     62 CA         -1.3086  -13.0030  -45.8517 C.3       2 UNK         0.1400 
     63 CB         -2.7534  -12.4875  -45.9335 C.3       2 UNK        -0.1800 
     64 N          -0.7609  -13.0816  -47.2069 N.am      2 UNK        -0.5000 
     65 C           0.4262  -13.6039  -47.5499 C.2       1 UNK         0.5000 
     66 O           1.2085  -14.1068  -46.7441 O.2       1 UNK        -0.5000 
     67 C          -2.1490  -22.3425  -46.7757 C.2       11 UNK         0.5000 
     68 O          -2.6851  -22.9269  -47.7177 O.2       11 UNK        -0.5000 
     69 N          -2.8012  -21.9647  -45.6684 N.am      12 UNK        -0.5000 
     70 CA         -4.2061  -22.2420  -45.3668 C.3       12 UNK         0.1400 
     71 CB         -4.5849  -21.5200  -44.0654 C.3       12 UNK        -0.1800 
     72 C          -4.5605  -23.7409  -45.2796 C.2       12 UNK         0.5000 
     73 O          -5.7350  -24.0794  -45.4231 O.2       12 UNK        -0.5000 
     74 N          -3.5603  -24.6057  -45.0663 N.am      13 UNK        -0.5000 
     75 CA         -3.6955  -26.0593  -45.0954 C.3       13 UNK         0.1400 
     76 CB         -3.0232  -26.6577  -43.8490 C.3       13 UNK        -0.1800 
     77 C          -3.0766  -26.6339  -46.3801 C.2       13 UNK         0.5000 
     78 O          -3.7300  -27.4172  -47.0686 O.2       13 UNK        -0.5000 
     79 N          -1.8335  -26.2343  -46.6839 N.am      14 UNK        -0.5000 
     80 CA         -1.0120  -26.7828  -47.7658 C.3       14 UNK         0.1400 
     81 CB          0.4343  -26.2929  -47.5934 C.3       14 UNK        -0.1800 
     82 C          -1.5248  -26.4525  -49.1787 C.2       14 UNK         0.5000 
     83 O          -1.4326  -27.2997  -50.0677 O.2       14 UNK        -0.5000 
     84 N          -2.0541  -25.2371  -49.3562 N.am      15 UNK        -0.5000 
     85 CA         -2.6205  -24.7357  -50.6103 C.3       15 UNK         0.1400 
     86 CB         -1.8480  -23.4675  -51.0152 C.3       15 UNK        -0.1800 
     87 C          -4.1221  -24.4304  -50.4628 C.2       15 UNK         0.5000 
     88 O          -4.7098  -23.8384  -51.3702 O.2       15 UNK        -0.5000 
     89 N          -4.7041  -24.7630  -49.2985 N.am      16 UNK        -0.5000 
     90 CA         -6.0824  -24.4913  -48.8642 C.3       16 UNK         0.1400 
     91 CB         -7.0717  -25.3115  -49.7173 C.3       16 UNK        -0.1800 
     92 C          -6.4614  -22.9900  -48.8380 C.2       16 UNK         0.5000 
     93 O          -7.6459  -22.6679  -48.7371 O.2       16 UNK        -0.5000 
     94 N          -5.4598  -22.1056  -48.9853 N.am      17 UNK        -0.5000 
     95 CA         -5.5678  -20.6879  -49.3488 C.3       17 UNK         0.1400 
     96 CB         -6.0496  -19.8488  -48.1473 C.3       17 UNK        -0.1800 
     97 C          -6.4047  -20.4514  -50.6311 C.2       17 UNK         0.5000 
     98 O          -7.1182  -19.4502  -50.7171 O.2       17 UNK        -0.5000 
     99 N          -6.3247  -21.3825  -51.5952 N.am      18 UNK        -0.5000 
    100 CA        -7.1644  -21.3940  -52.7964 C.3       18 UNK         0.1400 
    101 CB        -8.4433  -22.1997  -52.5094 C.3       18 UNK        -0.1800 
    102 C         -6.4530  -21.9346  -54.0493 C.2       18 UNK         0.5000 
    103 O         -6.8871  -21.6164  -55.1565 O.2       18 UNK        -0.5000 
    104 N         -5.3966  -22.7410  -53.8854 N.am      19 UNK        -0.5000 
    105 CA        -4.6055  -23.2819  -54.9907 C.3       19 UNK         0.1400 
    106 CB        -3.8634  -24.5361  -54.5026 C.3       19 UNK        -0.1800 
    107 C         -3.6061  -22.2493  -55.5451 C.2       19 UNK         0.5000 
    108 O         -3.2077  -21.3247  -54.8319 O.2       19 UNK        -0.5000 
    109 N         -3.1831  -22.4652  -56.7988 N.am      20 UNK        -0.5000 
    110 CA        -2.1601  -21.7075  -57.5272 C.3       20 UNK         0.1400 
    111 CB        -0.7611  -22.0249  -56.9492 C.3       20 UNK        -0.1800 
    112 C         -2.4878  -20.1998  -57.6002 C.2       20 UNK         0.5000 
    113 O         -3.5598  -19.8393  -58.0917 O.2       20 UNK        -0.5000 
    114 N         -1.5819  -19.3507  -57.0943 N.am      21 UNK        -0.5000 
    115 CA        -1.6899  -17.8884  -57.0559 C.3       21 UNK         0.1400 
    116 CB        -0.3843  -17.3172  -56.4794 C.3       21 UNK        -0.1800 
    117 C         -2.8993  -17.3535  -56.2617 C.2       21 UNK         0.5000 
    118 O         -3.3113  -16.2145  -56.4854 O.2       21 UNK        -0.5000 
    119 N         -3.4460  -18.1794  -55.3631 N.am      22 UNK        -0.5000 
    120 CA        -4.6532  -17.8955  -54.5787 C.3       22 UNK         0.1400 
    121 C         -5.9754  -18.1966  -55.3458 C.2       22 UNK         0.5000 
    122 N         -5.9450  -18.7399  -56.5582 N.am      22 UNK        -0.7600 
    123 O         -7.0557  -17.9147  -54.8352 O.2       22 UNK        -0.5000 
    124 C124       -4.6183  -18.6191  -53.2087 C.3       23 UNK        -0.0398 
    125 S125       -3.2292  -18.0965  -52.1470 S.3       23 UNK        -0.2404 
    126 C126       -1.9475  -19.3093  -52.6032 C.3       23 UNK        -0.0205 
    127 H127       -0.9314   -9.3945  -49.6519 H         1 UNK         0.0600 
    128 H128       -0.8017  -10.4401  -51.0698 H         1 UNK         0.0600 
    129 H129        0.5117   -9.3292  -50.6694 H         1 UNK         0.0600 
    130 H130       -0.3102  -12.5455  -50.5393 H         1 UNK         0.3000 
    131 H131        1.9067  -13.3661  -49.0661 H         1 UNK         0.0600 
    132 H132        0.9983  -15.6600  -49.2879 H         1 UNK         0.0800 
    133 H133       -0.5769  -15.0421  -49.7121 H         1 UNK         0.0800 
    134 H134        2.8555  -16.1648  -51.0222 H         1 UNK         0.0800 
    135 H135        2.4261  -16.2847  -52.7114 H         1 UNK         0.0800 
    136 H136       -0.3510  -17.1114  -52.8127 H         1 UNK         0.1150 
    137 H137       -0.6092  -20.9103  -50.8578 H         1 UNK         0.1150 
    138 H138        2.7167  -18.3319  -50.0714 H         1 UNK         0.1150 
    139 H139        1.2982  -21.7667  -49.6448 H         1 UNK         0.0800 
    140 H140        2.7812  -20.8485  -49.6065 H         1 UNK         0.0800 
    141 H141       -0.8404  -20.6707  -48.4618 H         1 UNK         0.0800 
    142 H142       -0.7988  -19.9082  -46.9051 H         1 UNK         0.0800 
    143 H143       -0.1931  -22.8534  -47.4437 H         1 UNK         0.0600 
    144 H144        0.5382  -21.4046  -45.1659 H         1 UNK         0.3000 
    145 H145        0.2449  -24.0241  -42.7192 H         1 UNK         0.0600 
    146 H146        2.6344  -23.3395  -42.4564 H         1 UNK         0.0600 
    147 H147        2.3955  -24.3987  -43.8381 H         1 UNK         0.0600 
    148 H148        2.6310  -22.6773  -44.0894 H         1 UNK         0.0600 
    149 H149        0.9651  -21.1675  -42.9114 H         1 UNK         0.3000 
    150 H150       -2.1001  -20.0724  -41.4983 H         1 UNK         0.0600 
    151 H151       -0.8708  -20.7859  -39.4265 H         1 UNK         0.0600 
    152 H152       -0.7072  -19.0617  -39.7213 H         1 UNK         0.0600 
    153 H153        0.6276  -20.1496  -40.0985 H         1 UNK         0.0600 
    154 H154        0.2624  -18.6169  -42.0057 H         1 UNK         0.3000 
    155 H155        0.0209  -18.2911  -45.5425 H         1 UNK         0.0600 
    156 H156       -0.5598  -16.2971  -43.3007 H         1 UNK         0.0600 
    157 H157       -1.5142  -16.5460  -44.7551 H         1 UNK         0.0600 
    158 H158        0.1072  -15.8737  -44.8774 H         1 UNK         0.0600 
    159 H159        1.8838  -17.1119  -43.8726 H         1 UNK         0.3000 
    160 H160        4.2051  -19.8241  -43.5144 H         1 UNK         0.0600 
    161 H161        4.1465  -17.2034  -45.1060 H         1 UNK         0.0600 
    162 H162        4.5608  -18.7916  -45.7318 H         1 UNK         0.0600 
    163 H163        5.5969  -18.0267  -44.5358 H         1 UNK         0.0600 
    164 H164        3.8083  -17.0349  -42.6308 H         1 UNK         0.3000 
    165 H165        2.9534  -17.9368  -39.3198 H         1 UNK         0.0600 
    166 H166        4.9330  -16.5917  -38.6690 H         1 UNK         0.0600 
    167 H167        5.4382  -18.1830  -39.2135 H         1 UNK         0.0600 
    168 H168        5.6342  -16.7937  -40.2753 H         1 UNK         0.0600 
    169 H169        3.5857  -15.4225  -40.5246 H         1 UNK         0.3000 
    170 H170        0.3828  -14.7441  -41.9105 H         1 UNK         0.0600 
    171 H171        0.1391  -14.2827  -39.4635 H         1 UNK         0.0600 
    172 H172        1.7594  -13.5957  -39.4317 H         1 UNK         0.0600 
    173 H173        0.4863  -12.8253  -40.3795 H         1 UNK         0.0600 
    174 H174        2.4306  -12.9597  -41.8406 H         1 UNK         0.3000 
    175 H175        4.3936  -12.8875  -43.3214 H         1 UNK         0.0600 
    176 H176        3.8278  -14.4907  -45.8763 H         1 UNK         0.0600 
    177 H177        5.0724  -13.2577  -45.6871 H         1 UNK         0.0600 
    178 H178        5.1715  -14.7539  -44.7710 H         1 UNK         0.0600 
    179 H179        2.2849  -12.6323  -45.4045 H         1 UNK         0.3000 
    180 H180        0.7006   -9.9290  -43.8156 H         1 UNK         0.0600 
    181 H181        2.4940   -9.7224  -46.2924 H         1 UNK         0.0600 
    182 H182        2.5001   -8.6314  -44.9133 H         1 UNK         0.0600 
    183 H183        1.0917   -8.7051  -45.9622 H         1 UNK         0.0600 
    184 H184        0.4306  -11.1473  -46.4084 H         1 UNK         0.3000 
    185 H185       -1.3323  -14.0146  -45.4449 H         1 UNK         0.0600 
    186 H186       -3.2109  -12.4454  -44.9440 H         1 UNK         0.0600 
    187 H187       -2.7983  -11.4841  -46.3589 H         1 UNK         0.0600 
    188 H188       -3.3726  -13.1419  -46.5473 H         1 UNK         0.0600 
    189 H189       -1.3199  -12.6687  -47.9393 H         1 UNK         0.3000 
    190 H190       -2.2950  -21.4148  -44.9808 H         1 UNK         0.3000 
    191 H191       -4.8057  -21.8264  -46.1759 H         1 UNK         0.0600 
    192 H192       -3.9908  -21.8760  -43.2230 H         1 UNK         0.0600 
    193 H193       -5.6356  -21.6787  -43.8189 H         1 UNK         0.0600 
    194 H194       -4.4315  -20.4441  -44.1526 H         1 UNK         0.0600 
    195 H195       -2.6173  -24.2466  -44.9713 H         1 UNK         0.3000 
    196 H196       -4.7481  -26.3495  -45.0758 H         1 UNK         0.0600 
    197 H197       -3.1008  -27.7456  -43.8479 H         1 UNK         0.0600 
    198 H198       -3.4993  -26.2968  -42.9372 H         1 UNK         0.0600 
    199 H199       -1.9642  -26.4033  -43.7933 H         1 UNK         0.0600 
    200 H200       -1.3656  -25.5784  -46.0607 H         1 UNK         0.3000 
    201 H201       -1.0138  -27.8700  -47.6632 H         1 UNK         0.0600 
    202 H202        0.8388  -26.5910  -46.6259 H         1 UNK         0.0600 
    203 H203        0.5030  -25.2070  -47.6630 H         1 UNK         0.0600 
    204 H204        1.0847  -26.7135  -48.3614 H         1 UNK         0.0600 
    205 H205       -2.1041  -24.5953  -48.5709 H         1 UNK         0.3000 
    206 H206       -2.5221  -25.4728  -51.4093 H         1 UNK         0.0600 
    207 H207       -0.7842  -23.6745  -51.1317 H         1 UNK         0.0600 
    208 H208       -2.2045  -23.0636  -51.9632 H         1 UNK         0.0600 
    209 H209       -1.9567  -22.6822  -50.2677 H         1 UNK         0.0600 
    210 H210       -4.1256  -25.2393  -48.6216 H         1 UNK         0.3000 
    211 H211       -6.1587  -24.8518  -47.8395 H         1 UNK         0.0600 
    212 H212       -7.0948  -24.9695  -50.7523 H         1 UNK         0.0600 
    213 H213       -8.0867  -25.2354  -49.3258 H         1 UNK         0.0600 
    214 H214       -6.8065  -26.3688  -49.7198 H         1 UNK         0.0600 
    215 H215       -4.5205  -22.4832  -48.9907 H         1 UNK         0.3000 
    216 H216       -4.5570  -20.3579  -49.5934 H         1 UNK         0.0600 
    217 H217       -6.0970  -18.7889  -48.4000 H         1 UNK         0.0600 
    218 H218       -5.3668  -19.9373  -47.3039 H         1 UNK         0.0600 
    219 H219       -7.0426  -20.1511  -47.8139 H         1 UNK         0.0600 
    220 H220       -5.7296  -22.1916  -51.4460 H         1 UNK         0.3000 
    221 H221       -7.4548  -20.3703  -53.0431 H         1 UNK         0.0600 
    222 H222       -8.2127  -23.2313  -52.2416 H         1 UNK         0.0600 
    223 H223       -9.0108  -21.7607  -51.6886 H         1 UNK         0.0600 
    224 H224       -9.0982  -22.2228  -53.3813 H         1 UNK         0.0600 
    225 H225       -5.0954  -23.0098  -52.9536 H         1 UNK         0.3000 
    226 H226       -5.2825  -23.5779  -55.7951 H         1 UNK         0.0600 
    227 H227       -4.5550  -25.2671  -54.0831 H         1 UNK         0.0600 
    228 H228       -3.3337  -25.0230  -55.3222 H         1 UNK         0.0600 
    229 H229       -3.1267  -24.2952  -53.7371 H         1 UNK         0.0600 
    230 H230       -3.5927  -23.2323  -57.3129 H         1 UNK         0.3000 
    231 H231       -2.1807  -22.0691  -58.5562 H         1 UNK         0.0600 
    232 H232       -0.5668  -23.0973  -56.9746 H         1 UNK         0.0600 
    233 H233       -0.6589  -21.6998  -55.9129 H         1 UNK         0.0600 
    234 H234        0.0274  -21.5474  -57.5322 H         1 UNK         0.0600 
    235 H235       -0.7422  -19.7432  -56.6943 H         1 UNK         0.3000 
    236 H236       -1.7967  -17.5378  -58.0843 H         1 UNK         0.0600 
    237 H237       -0.4084  -16.2268  -56.4591 H         1 UNK         0.0600 
    238 H238       -0.2127  -17.6599  -55.4580 H         1 UNK         0.0600 
    239 H239        0.4759  -17.6096  -57.0819 H         1 UNK         0.0600 
    240 H240       -3.0770  -19.1179  -55.2738 H         1 UNK         0.3000 
    241 H241       -4.6769  -16.8238  -54.3722 H         1 UNK         0.0600 
    242 H242       -6.8137  -18.9361  -57.0287 H         1 UNK         0.3800 
    243 H243       -5.0699  -19.0018  -56.9979 H         1 UNK         0.3800 
    244 H244       -5.5325  -18.4037  -52.6547 H         1 UNK         0.0800 
    245 H245       -4.5898  -19.7004  -53.3382 H         1 UNK         0.0800 
    246 H246       -1.7638  -19.2841  -53.6759 H         1 UNK         0.0800 
    247 H247       -2.3103  -20.3129  -52.3749 H         1 UNK         0.0800 
@<TRIPOS>BOND
     1    1    2 1    
     2    1  127 1    
     3    1  128 1    
     4    1  129 1    
     5    2    3 2    
     6    2    4 am   BACKBONE|DICT|INTERRES
     7    4    5 1    
     8    4  130 1    
     9    5    6 1    
    10    5   65 1    
    11    5  131 1    
    12    6    7 1    
    13    6  132 1    
    14    6  133 1    
    15    7    8 1    
    16    8    9 1    
    17    8  134 1    
    18    8  135 1    
    19    9   10 ar   
    20    9   14 ar   
    21   10   11 ar   
    22   10  136 1    
    23   11   12 ar   
    24   11  126 1    
    25   12   13 ar   
    26   12  137 1    
    27   13   14 ar   
    28   13   15 1    
    29   14  138 1    
    30   15   16 1    
    31   15  139 1    
    32   15  140 1    
    33   16   17 1    
    34   17   18 1    
    35   17  141 1    
    36   17  142 1    
    37   18   19 1    
    38   18   67 1    
    39   18  143 1    
    40   19   20 am   BACKBONE|DICT|INTERRES
    41   19  144 1    
    42   20   21 2    
    43   20   22 1    
    44   22   23 1    
    45   22   24 1    
    46   22  145 1    
    47   23  146 1    
    48   23  147 1    
    49   23  148 1    
    50   24   25 am   BACKBONE|DICT|INTERRES
    51   24  149 1    
    52   25   26 2    
    53   25   27 1    
    54   27   28 1    
    55   27   29 1    
    56   27  150 1    
    57   28  151 1    
    58   28  152 1    
    59   28  153 1    
    60   29   30 am   BACKBONE|DICT|INTERRES
    61   29  154 1    
    62   30   31 2    
    63   30   32 1    
    64   32   33 1    
    65   32   34 1    
    66   32  155 1    
    67   33  156 1    
    68   33  157 1    
    69   33  158 1    
    70   34   35 am   BACKBONE|DICT|INTERRES
    71   34  159 1    
    72   35   36 2    
    73   35   37 1    
    74   37   38 1    
    75   37   39 1    
    76   37  160 1    
    77   38  161 1    
    78   38  162 1    
    79   38  163 1    
    80   39   40 am   BACKBONE|DICT|INTERRES
    81   39  164 1    
    82   40   41 2    
    83   40   42 1    
    84   42   43 1    
    85   42   44 1    
    86   42  165 1    
    87   43  166 1    
    88   43  167 1    
    89   43  168 1    
    90   44   45 am   BACKBONE|DICT|INTERRES
    91   44  169 1    
    92   45   46 2    
    93   45   47 1    
    94   47   48 1    
    95   47   49 1    
    96   47  170 1    
    97   48  171 1    
    98   48  172 1    
    99   48  173 1    
   100   49   50 am   BACKBONE|DICT|INTERRES
   101   49  174 1    
   102   50   51 2    
   103   50   52 1    
   104   52   53 1    
   105   52   54 1    
   106   52  175 1    
   107   53  176 1    
   108   53  177 1    
   109   53  178 1    
   110   54   55 am   BACKBONE|DICT|INTERRES
   111   54  179 1    
   112   55   56 2    
   113   55   57 1    
   114   57   58 1    
   115   57   59 1    
   116   57  180 1    
   117   58  181 1    
   118   58  182 1    
   119   58  183 1    
   120   59   60 am   BACKBONE|DICT|INTERRES
   121   59  184 1    
   122   60   61 2    
   123   60   62 1    
   124   62   63 1    
   125   62   64 1    
   126   62  185 1    
   127   63  186 1    
   128   63  187 1    
   129   63  188 1    
   130   64   65 am   BACKBONE|DICT|INTERRES
   131   64  189 1    
   132   65   66 2    
   133   67   68 2    
   134   67   69 am   BACKBONE|DICT|INTERRES
   135   69   70 1    
   136   69  190 1    
   137   70   71 1    
   138   70   72 1    
   139   70  191 1    
   140   71  192 1    
   141   71  193 1    
   142   71  194 1    
   143   72   73 2    
   144   72   74 am   BACKBONE|DICT|INTERRES
   145   74   75 1    
   146   74  195 1    
   147   75   76 1    
   148   75   77 1    
   149   75  196 1    
   150   76  197 1    
   151   76  198 1    
   152   76  199 1    
   153   77   78 2    
   154   77   79 am   BACKBONE|DICT|INTERRES
   155   79   80 1    
   156   79  200 1    
   157   80   81 1    
   158   80   82 1    
   159   80  201 1    
   160   81  202 1    
   161   81  203 1    
   162   81  204 1    
   163   82   83 2    
   164   82   84 am   BACKBONE|DICT|INTERRES
   165   84   85 1    
   166   84  205 1    
   167   85   86 1    
   168   85   87 1    
   169   85  206 1    
   170   86  207 1    
   171   86  208 1    
   172   86  209 1    
   173   87   88 2    
   174   87   89 am   BACKBONE|DICT|INTERRES
   175   89   90 1    
   176   89  210 1    
   177   90   91 1    
   178   90   92 1    
   179   90  211 1    
   180   91  212 1    
   181   91  213 1    
   182   91  214 1    
   183   92   93 2    
   184   92   94 am   BACKBONE|DICT|INTERRES
   185   94   95 1    
   186   94  215 1    
   187   95   96 1    
   188   95   97 1    
   189   95  216 1    
   190   96  217 1    
   191   96  218 1    
   192   96  219 1    
   193   97   98 2    
   194   97   99 am   BACKBONE|DICT|INTERRES
   195   99  100 1    
   196   99  220 1    
   197  100  101 1    
   198  100  102 1    
   199  100  221 1    
   200  101  222 1    
   201  101  223 1    
   202  101  224 1    
   203  102  103 2    
   204  102  104 am   BACKBONE|DICT|INTERRES
   205  104  105 1    
   206  104  225 1    
   207  105  106 1    
   208  105  107 1    
   209  105  226 1    
   210  106  227 1    
   211  106  228 1    
   212  106  229 1    
   213  107  108 2    
   214  107  109 am   BACKBONE|DICT|INTERRES
   215  109  110 1    
   216  109  230 1    
   217  110  111 1    
   218  110  112 1    
   219  110  231 1    
   220  111  232 1    
   221  111  233 1    
   222  111  234 1    
   223  112  113 2    
   224  112  114 am   BACKBONE|DICT|INTERRES
   225  114  115 1    
   226  114  235 1    
   227  115  116 1    
   228  115  117 1    
   229  115  236 1    
   230  116  237 1    
   231  116  238 1    
   232  116  239 1    
   233  117  118 2    
   234  117  119 am   BACKBONE|DICT|INTERRES
   235  119  120 1    
   236  119  240 1    
   237  120  121 1    
   238  120  124 1    
   239  120  241 1    
   240  121  122 am   BACKBONE|DICT|INTERRES
   241  121  123 2    
   242  122  242 1    
   243  122  243 1    
   244  124  125 1    
   245  124  244 1    
   246  124  245 1    
   247  125  126 1    
   248  126  246 1    
   249  126  247 1    
@<TRIPOS>SUBSTRUCTURE
     1 UNK         1 GROUP             0       ****    0 ROOT    
