@<TRIPOS>MOLECULE
3R540
247   249    1
SMALL
USER_CHARGES


@<TRIPOS>ATOM
      1 CA          2.5141  -12.4839  -51.8103 C.3       0 UNK        -0.1800 
      2 C           2.1930  -12.5325  -50.3235 C.2       0 UNK         0.5000 
      3 O           2.4126  -11.5485  -49.6175 O.2       0 UNK        -0.5000 
      4 N           1.6675  -13.6675  -49.8485 N.am      1 UNK        -0.5000 
      5 CA          1.2916  -13.9054  -48.4469 C.3       1 UNK         0.1400 
      6 C6          1.7110  -15.3158  -47.9646 C.3       23 UNK        -0.0398 
      7 S7          1.0146  -16.6877  -48.9438 S.3       23 UNK        -0.2404 
      8 C8          2.5155  -17.3455  -49.7213 C.3       23 UNK        -0.0205 
      9 C9          2.1723  -18.4877  -50.6570 C.ar      23 UNK        -0.0193 
     10 C10         1.9710  -18.2372  -52.0145 C.ar      23 UNK        -0.1150 
     11 C11         1.6243  -19.2717  -52.8901 C.ar      23 UNK        -0.0193 
     12 C12         1.5019  -20.5717  -52.3859 C.ar      23 UNK        -0.1150 
     13 C13         1.7210  -20.8395  -51.0296 C.ar      23 UNK        -0.0193 
     14 C14         2.0540  -19.7906  -50.1688 C.ar      23 UNK        -0.1150 
     15 C15         1.6285  -22.2657  -50.5061 C.3       23 UNK        -0.0205 
     16 S16        -0.0638  -22.7011  -50.0006 S.3       23 UNK        -0.2404 
     17 C17        -0.1365  -22.0773  -48.2890 C.3       23 UNK        -0.0398 
     18 CA         -0.0722  -23.2248  -47.2508 C.3       11 UNK         0.1400 
     19 N           0.6041  -22.8108  -46.0184 N.am      11 UNK        -0.5000 
     20 C           1.0046  -23.6508  -45.0538 C.2       10 UNK         0.5000 
     21 O           0.8853  -24.8732  -45.1266 O.2       10 UNK        -0.5000 
     22 CA          1.5853  -23.0194  -43.7740 C.3       10 UNK         0.1400 
     23 CB          3.0686  -22.6690  -43.9602 C.3       10 UNK        -0.1800 
     24 N           0.8452  -21.8287  -43.3523 N.am      10 UNK        -0.5000 
     25 C          -0.4380  -21.8339  -42.9635 C.2       9 UNK         0.5000 
     26 O          -1.1068  -22.8598  -42.8432 O.2       9 UNK        -0.5000 
     27 CA         -1.1060  -20.4636  -42.7405 C.3       9 UNK         0.1400 
     28 CB         -0.7989  -19.9146  -41.3397 C.3       9 UNK        -0.1800 
     29 N          -0.7168  -19.4835  -43.7563 N.am      9 UNK        -0.5000 
     30 C          -0.9977  -19.5952  -45.0634 C.2       8 UNK         0.5000 
     31 O          -1.6670  -20.5076  -45.5454 O.2       8 UNK        -0.5000 
     32 CA         -0.3769  -18.5433  -45.9935 C.3       8 UNK         0.1400 
     33 CB         -1.2511  -17.2797  -46.0313 C.3       8 UNK        -0.1800 
     34 N           0.9907  -18.2182  -45.5798 N.am      8 UNK        -0.5000 
     35 C           2.0348  -19.0434  -45.7580 C.2       7 UNK         0.5000 
     36 O           1.9492  -20.1248  -46.3382 O.2       7 UNK        -0.5000 
     37 CA          3.3894  -18.6303  -45.1477 C.3       7 UNK         0.1400 
     38 CB          4.2292  -17.8363  -46.1561 C.3       7 UNK        -0.1800 
     39 N           3.2523  -17.8539  -43.9164 N.am      7 UNK        -0.5000 
     40 C           2.7883  -18.3493  -42.7612 C.2       6 UNK         0.5000 
     41 O           2.4829  -19.5310  -42.6048 O.2       6 UNK        -0.5000 
     42 CA          2.5773  -17.3480  -41.6065 C.3       6 UNK         0.1400 
     43 CB          3.8243  -17.2907  -40.7123 C.3       6 UNK        -0.1800 
     44 N           2.2332  -15.9889  -42.0457 N.am      6 UNK        -0.5000 
     45 C           1.1751  -15.6753  -42.8057 C.2       5 UNK         0.5000 
     46 O           0.3879  -16.5192  -43.2418 O.2       5 UNK        -0.5000 
     47 CA          1.0150  -14.1885  -43.1843 C.3       5 UNK         0.1400 
     48 CB          2.1405  -13.7410  -44.1321 C.3       5 UNK        -0.1800 
     49 N          -0.2668  -13.9299  -43.8389 N.am      5 UNK        -0.5000 
     50 C          -1.4525  -13.9023  -43.2168 C.2       4 UNK         0.5000 
     51 O          -1.5916  -13.9796  -41.9943 O.2       4 UNK        -0.5000 
     52 CA         -2.6729  -13.7545  -44.1417 C.3       4 UNK         0.1400 
     53 CB         -4.0198  -13.6435  -43.3957 C.3       4 UNK        -0.1800 
     54 N          -2.4773  -12.6687  -45.1057 N.am      4 UNK        -0.5000 
     55 C          -2.4954  -11.3437  -44.8905 C.2       3 UNK         0.5000 
     56 O          -2.7472  -10.8296  -43.8002 O.2       3 UNK        -0.5000 
     57 CA         -2.1618  -10.4227  -46.0903 C.3       3 UNK         0.1400 
     58 CB         -0.9263   -9.5598  -45.7838 C.3       3 UNK        -0.1800 
     59 N          -1.9161  -11.1436  -47.3422 N.am      3 UNK        -0.5000 
     60 C          -2.8373  -11.7786  -48.0784 C.2       2 UNK         0.5000 
     61 O          -4.0473  -11.6952  -47.8676 O.2       2 UNK        -0.5000 
     62 CA         -2.3273  -12.7014  -49.2073 C.3       2 UNK         0.1400 
     63 CB         -2.6577  -12.1012  -50.5828 C.3       2 UNK        -0.1800 
     64 N          -0.8939  -13.0251  -49.1739 N.am      2 UNK        -0.5000 
     65 C          -0.2013  -13.6060  -48.1806 C.2       1 UNK         0.5000 
     66 O          -0.6901  -13.8856  -47.0840 O.2       1 UNK        -0.5000 
     67 C          -1.4666  -23.8328  -46.9742 C.2       11 UNK         0.5000 
     68 O          -1.8498  -24.8077  -47.6231 O.2       11 UNK        -0.5000 
     69 N          -2.1988  -23.2705  -46.0027 N.am      12 UNK        -0.5000 
     70 CA         -3.4765  -23.7899  -45.5120 C.3       12 UNK         0.1400 
     71 CB         -4.1657  -22.7391  -44.6305 C.3       12 UNK        -0.1800 
     72 C          -3.3257  -25.1317  -44.7768 C.2       12 UNK         0.5000 
     73 O          -4.1348  -26.0305  -45.0030 O.2       12 UNK        -0.5000 
     74 N          -2.2668  -25.2760  -43.9676 N.am      13 UNK        -0.5000 
     75 CA         -1.8925  -26.5324  -43.3092 C.3       13 UNK         0.1400 
     76 CB         -0.7606  -26.2721  -42.3042 C.3       13 UNK        -0.1800 
     77 C          -1.5004  -27.6390  -44.3105 C.2       13 UNK         0.5000 
     78 O          -1.7999  -28.8094  -44.0733 O.2       13 UNK        -0.5000 
     79 N          -0.8877  -27.2414  -45.4341 N.am      14 UNK        -0.5000 
     80 CA         -0.5801  -28.0951  -46.5846 C.3       14 UNK         0.1400 
     81 CB          0.5431  -27.4345  -47.4012 C.3       14 UNK        -0.1800 
     82 C          -1.8035  -28.3947  -47.4815 C.2       14 UNK         0.5000 
     83 O          -1.6701  -29.1681  -48.4303 O.2       14 UNK        -0.5000 
     84 N          -2.9585  -27.7791  -47.1820 N.am      15 UNK        -0.5000 
     85 CA         -4.2521  -27.8847  -47.8687 C.3       15 UNK         0.1400 
     86 CB         -4.7797  -29.3347  -47.8477 C.3       15 UNK        -0.1800 
     87 C          -4.2800  -27.2593  -49.2803 C.2       15 UNK         0.5000 
     88 O          -5.2084  -27.5290  -50.0443 O.2       15 UNK        -0.5000 
     89 N          -3.2912  -26.4141  -49.5967 N.am      16 UNK        -0.5000 
     90 CA         -3.2105  -25.6504  -50.8432 C.3       16 UNK         0.1400 
     91 CB         -1.7422  -25.5823  -51.2847 C.3       16 UNK        -0.1800 
     92 C          -3.8293  -24.2454  -50.6991 C.2       16 UNK         0.5000 
     93 O          -4.2597  -23.6689  -51.6992 O.2       16 UNK        -0.5000 
     94 N          -3.8764  -23.7297  -49.4595 N.am      17 UNK        -0.5000 
     95 CA         -4.5843  -22.5222  -49.0043 C.3       17 UNK         0.1400 
     96 CB         -6.1071  -22.7538  -49.0716 C.3       17 UNK        -0.1800 
     97 C          -4.1615  -21.2033  -49.6851 C.2       17 UNK         0.5000 
     98 O          -4.9086  -20.2259  -49.6330 O.2       17 UNK        -0.5000 
     99 N          -2.9692  -21.1999  -50.2958 N.am      18 UNK        -0.5000 
    100 CA        -2.3774  -20.1191  -51.0866 C.3       18 UNK         0.1400 
    101 CB        -1.9992  -18.9237  -50.1917 C.3       18 UNK        -0.1800 
    102 C         -3.2411  -19.7426  -52.3087 C.2       18 UNK         0.5000 
    103 O         -3.3691  -18.5623  -52.6405 O.2       18 UNK        -0.5000 
    104 N         -3.8026  -20.7710  -52.9644 N.am      19 UNK        -0.5000 
    105 CA        -4.6038  -20.7046  -54.1887 C.3       19 UNK         0.1400 
    106 CB        -3.6951  -20.3692  -55.3937 C.3       19 UNK        -0.1800 
    107 C         -5.8286  -19.7739  -54.0405 C.2       19 UNK         0.5000 
    108 O         -6.5394  -19.8685  -53.0378 O.2       19 UNK        -0.5000 
    109 N         -6.0699  -18.9116  -55.0370 N.am      20 UNK        -0.5000 
    110 CA        -7.1392  -17.9155  -55.0206 C.3       20 UNK         0.1400 
    111 CB        -7.4423  -17.4662  -56.4591 C.3       20 UNK        -0.1800 
    112 C         -6.7907  -16.7086  -54.1311 C.2       20 UNK         0.5000 
    113 O         -7.6214  -16.2962  -53.3204 O.2       20 UNK        -0.5000 
    114 N         -5.5780  -16.1640  -54.3032 N.am      21 UNK        -0.5000 
    115 CA        -5.0924  -14.9634  -53.6196 C.3       21 UNK         0.1400 
    116 CB        -5.8368  -13.7081  -54.1293 C.3       21 UNK        -0.1800 
    117 C         -3.5630  -14.8328  -53.7530 C.2       21 UNK         0.5000 
    118 O         -3.0574  -13.7312  -53.9754 O.2       21 UNK        -0.5000 
    119 N         -2.8431  -15.9550  -53.6283 N.am      22 UNK        -0.5000 
    120 CA        -1.3701  -15.9895  -53.5941 C.3       22 UNK         0.1400 
    121 C         -0.7804  -15.5556  -52.2175 C.2       22 UNK         0.5000 
    122 N         -1.5510  -15.5908  -51.1365 N.am      22 UNK        -0.7600 
    123 O          0.3765  -15.1566  -52.1260 O.2       22 UNK        -0.5000 
    124 C124       -0.8502  -17.3827  -54.0374 C.3       23 UNK        -0.0398 
    125 S125        0.7967  -17.3531  -54.8154 S.3       23 UNK        -0.2404 
    126 C126        1.4103  -19.0220  -54.3842 C.3       23 UNK        -0.0205 
    127 H127        2.4958  -13.4772  -52.2592 H         1 UNK         0.0600 
    128 H128        1.7885  -11.8591  -52.3309 H         1 UNK         0.0600 
    129 H129        3.5067  -12.0623  -51.9684 H         1 UNK         0.0600 
    130 H130        1.4449  -14.4178  -50.4978 H         1 UNK         0.3000 
    131 H131        1.8338  -13.2000  -47.8140 H         1 UNK         0.0600 
    132 H132        1.4283  -15.4720  -46.9234 H         1 UNK         0.0800 
    133 H133        2.7991  -15.3795  -47.9803 H         1 UNK         0.0800 
    134 H134        3.2071  -17.6903  -48.9536 H         1 UNK         0.0800 
    135 H135        3.0232  -16.5482  -50.2666 H         1 UNK         0.0800 
    136 H136        2.0791  -17.2268  -52.3813 H         1 UNK         0.1150 
    137 H137        1.2471  -21.3834  -53.0530 H         1 UNK         0.1150 
    138 H138        2.2245  -19.9825  -49.1190 H         1 UNK         0.1150 
    139 H139        1.9454  -22.9596  -51.2859 H         1 UNK         0.0800 
    140 H140        2.3178  -22.4162  -49.6736 H         1 UNK         0.0800 
    141 H141        0.6990  -21.3955  -48.1497 H         1 UNK         0.0800 
    142 H142       -1.0295  -21.4638  -48.1591 H         1 UNK         0.0800 
    143 H143        0.5424  -24.0249  -47.6689 H         1 UNK         0.0600 
    144 H144        0.7868  -21.8199  -45.9087 H         1 UNK         0.3000 
    145 H145        1.5099  -23.7587  -42.9741 H         1 UNK         0.0600 
    146 H146        3.4952  -22.2591  -43.0445 H         1 UNK         0.0600 
    147 H147        3.6477  -23.5555  -44.2216 H         1 UNK         0.0600 
    148 H148        3.2145  -21.9370  -44.7541 H         1 UNK         0.0600 
    149 H149        1.3526  -20.9490  -43.3485 H         1 UNK         0.3000 
    150 H150       -2.1859  -20.6054  -42.8165 H         1 UNK         0.0600 
    151 H151       -1.1555  -20.5993  -40.5693 H         1 UNK         0.0600 
    152 H152       -1.2893  -18.9550  -41.1751 H         1 UNK         0.0600 
    153 H153        0.2700  -19.7762  -41.1817 H         1 UNK         0.0600 
    154 H154       -0.1766  -18.6848  -43.4474 H         1 UNK         0.3000 
    155 H155       -0.3416  -18.9579  -47.0035 H         1 UNK         0.0600 
    156 H156       -0.8093  -16.5064  -46.6551 H         1 UNK         0.0600 
    157 H157       -1.4098  -16.8583  -45.0395 H         1 UNK         0.0600 
    158 H158       -2.2335  -17.5051  -46.4477 H         1 UNK         0.0600 
    159 H159        1.1001  -17.3938  -45.0035 H         1 UNK         0.3000 
    160 H160        3.9334  -19.5462  -44.9079 H         1 UNK         0.0600 
    161 H161        3.7433  -16.9031  -46.4380 H         1 UNK         0.0600 
    162 H162        4.3948  -18.4169  -47.0640 H         1 UNK         0.0600 
    163 H163        5.2101  -17.5934  -45.7473 H         1 UNK         0.0600 
    164 H164        3.4876  -16.8738  -43.9609 H         1 UNK         0.3000 
    165 H165        1.7440  -17.7179  -41.0060 H         1 UNK         0.0600 
    166 H166        4.6867  -16.8933  -41.2489 H         1 UNK         0.0600 
    167 H167        3.6542  -16.6639  -39.8367 H         1 UNK         0.0600 
    168 H168        4.0918  -18.2847  -40.3508 H         1 UNK         0.0600 
    169 H169        2.8450  -15.2497  -41.7306 H         1 UNK         0.3000 
    170 H170        1.0670  -13.5943  -42.2697 H         1 UNK         0.0600 
    171 H171        3.1172  -13.8206  -43.6538 H         1 UNK         0.0600 
    172 H172        2.1703  -14.3448  -45.0381 H         1 UNK         0.0600 
    173 H173        2.0143  -12.6995  -44.4292 H         1 UNK         0.0600 
    174 H174       -0.2607  -13.8889  -44.8499 H         1 UNK         0.3000 
    175 H175       -2.7126  -14.6702  -44.7335 H         1 UNK         0.0600 
    176 H176       -4.8486  -13.5254  -44.0937 H         1 UNK         0.0600 
    177 H177       -4.2120  -14.5447  -42.8125 H         1 UNK         0.0600 
    178 H178       -4.0398  -12.8022  -42.7030 H         1 UNK         0.0600 
    179 H179       -2.1707  -12.9760  -46.0221 H         1 UNK         0.3000 
    180 H180       -3.0169   -9.7600  -46.2373 H         1 UNK         0.0600 
    181 H181       -0.7108   -8.8732  -46.6028 H         1 UNK         0.0600 
    182 H182       -1.0804   -8.9549  -44.8893 H         1 UNK         0.0600 
    183 H183       -0.0401  -10.1734  -45.6164 H         1 UNK         0.0600 
    184 H184       -0.9485  -11.2766  -47.5961 H         1 UNK         0.3000 
    185 H185       -2.8696  -13.6436  -49.1088 H         1 UNK         0.0600 
    186 H186       -2.3871  -12.7838  -51.3883 H         1 UNK         0.0600 
    187 H187       -3.7252  -11.8987  -50.6787 H         1 UNK         0.0600 
    188 H188       -2.1282  -11.1621  -50.7476 H         1 UNK         0.0600 
    189 H189       -0.3829  -12.8215  -50.0211 H         1 UNK         0.3000 
    190 H190       -1.8590  -22.4150  -45.5717 H         1 UNK         0.3000 
    191 H191       -4.1206  -23.9774  -46.3718 H         1 UNK         0.0600 
    192 H192       -5.1455  -23.0883  -44.3028 H         1 UNK         0.0600 
    193 H193       -4.3169  -21.8067  -45.1748 H         1 UNK         0.0600 
    194 H194       -3.5837  -22.5137  -43.7377 H         1 UNK         0.0600 
    195 H195       -1.6826  -24.4666  -43.7776 H         1 UNK         0.3000 
    196 H196       -2.7627  -26.8860  -42.7525 H         1 UNK         0.0600 
    197 H197       -0.5070  -27.1823  -41.7594 H         1 UNK         0.0600 
    198 H198       -1.0511  -25.5220  -41.5684 H         1 UNK         0.0600 
    199 H199        0.1462  -25.9230  -42.7970 H         1 UNK         0.0600 
    200 H200       -0.6055  -26.2699  -45.5064 H         1 UNK         0.3000 
    201 H201       -0.2096  -29.0528  -46.2139 H         1 UNK         0.0600 
    202 H202        1.4186  -27.2375  -46.7821 H         1 UNK         0.0600 
    203 H203        0.2225  -26.4890  -47.8376 H         1 UNK         0.0600 
    204 H204        0.8641  -28.0792  -48.2202 H         1 UNK         0.0600 
    205 H205       -2.9607  -27.1569  -46.3832 H         1 UNK         0.3000 
    206 H206       -4.9449  -27.2857  -47.2768 H         1 UNK         0.0600 
    207 H207       -4.7560  -29.7480  -46.8394 H         1 UNK         0.0600 
    208 H208       -5.8142  -29.3797  -48.1900 H         1 UNK         0.0600 
    209 H209       -4.1958  -29.9899  -48.4944 H         1 UNK         0.0600 
    210 H210       -2.5910  -26.2074  -48.8922 H         1 UNK         0.3000 
    211 H211       -3.7672  -26.1610  -51.6318 H         1 UNK         0.0600 
    212 H212       -1.0906  -25.2911  -50.4622 H         1 UNK         0.0600 
    213 H213       -1.5991  -24.8698  -52.0983 H         1 UNK         0.0600 
    214 H214       -1.4005  -26.5546  -51.6396 H         1 UNK         0.0600 
    215 H215       -3.4072  -24.2590  -48.7328 H         1 UNK         0.3000 
    216 H216       -4.3202  -22.3866  -47.9567 H         1 UNK         0.0600 
    217 H217       -6.6537  -21.9337  -48.6047 H         1 UNK         0.0600 
    218 H218       -6.3902  -23.6673  -48.5484 H         1 UNK         0.0600 
    219 H219       -6.4552  -22.8350  -50.1019 H         1 UNK         0.0600 
    220 H220       -2.4351  -22.0580  -50.2757 H         1 UNK         0.3000 
    221 H221       -1.4482  -20.5162  -51.4961 H         1 UNK         0.0600 
    222 H222       -1.3531  -18.2350  -50.7336 H         1 UNK         0.0600 
    223 H223       -1.4438  -19.2464  -49.3116 H         1 UNK         0.0600 
    224 H224       -2.8757  -18.3698  -49.8549 H         1 UNK         0.0600 
    225 H225       -3.7206  -21.6943  -52.5546 H         1 UNK         0.3000 
    226 H226       -5.0032  -21.7078  -54.3436 H         1 UNK         0.0600 
    227 H227       -4.2317  -20.4728  -56.3374 H         1 UNK         0.0600 
    228 H228       -3.3025  -19.3537  -55.3396 H         1 UNK         0.0600 
    229 H229       -2.8433  -21.0480  -55.4395 H         1 UNK         0.0600 
    230 H230       -5.4512  -18.9068  -55.8343 H         1 UNK         0.3000 
    231 H231       -8.0437  -18.3779  -54.6191 H         1 UNK         0.0600 
    232 H232       -8.2429  -16.7255  -56.4750 H         1 UNK         0.0600 
    233 H233       -7.7667  -18.3065  -57.0733 H         1 UNK         0.0600 
    234 H234       -6.5712  -17.0177  -56.9381 H         1 UNK         0.0600 
    235 H235       -4.9451  -16.5742  -54.9750 H         1 UNK         0.3000 
    236 H236       -5.2956  -15.0718  -52.5523 H         1 UNK         0.0600 
    237 H237       -5.6775  -13.5577  -55.1976 H         1 UNK         0.0600 
    238 H238       -6.9108  -13.7756  -53.9584 H         1 UNK         0.0600 
    239 H239       -5.4937  -12.8099  -53.6143 H         1 UNK         0.0600 
    240 H240       -3.3006  -16.8301  -53.3816 H         1 UNK         0.3000 
    241 H241       -1.0132  -15.2593  -54.3229 H         1 UNK         0.0600 
    242 H242       -1.1577  -15.3433  -50.2454 H         1 UNK         0.3800 
    243 H243       -2.4951  -15.9339  -51.1969 H         1 UNK         0.3800 
    244 H244       -1.5247  -17.8157  -54.7765 H         1 UNK         0.0800 
    245 H245       -0.8485  -18.0763  -53.1966 H         1 UNK         0.0800 
    246 H246        2.3600  -19.1826  -54.8956 H         1 UNK         0.0800 
    247 H247        0.7134  -19.7576  -54.7892 H         1 UNK         0.0800 
@<TRIPOS>BOND
     1    1    2 1    
     2    1  127 1    
     3    1  128 1    
     4    1  129 1    
     5    2    3 2    
     6    2    4 am   BACKBONE|DICT|INTERRES
     7    4    5 1    
     8    4  130 1    
     9    5    6 1    
    10    5   65 1    
    11    5  131 1    
    12    6    7 1    
    13    6  132 1    
    14    6  133 1    
    15    7    8 1    
    16    8    9 1    
    17    8  134 1    
    18    8  135 1    
    19    9   10 ar   
    20    9   14 ar   
    21   10   11 ar   
    22   10  136 1    
    23   11   12 ar   
    24   11  126 1    
    25   12   13 ar   
    26   12  137 1    
    27   13   14 ar   
    28   13   15 1    
    29   14  138 1    
    30   15   16 1    
    31   15  139 1    
    32   15  140 1    
    33   16   17 1    
    34   17   18 1    
    35   17  141 1    
    36   17  142 1    
    37   18   19 1    
    38   18   67 1    
    39   18  143 1    
    40   19   20 am   BACKBONE|DICT|INTERRES
    41   19  144 1    
    42   20   21 2    
    43   20   22 1    
    44   22   23 1    
    45   22   24 1    
    46   22  145 1    
    47   23  146 1    
    48   23  147 1    
    49   23  148 1    
    50   24   25 am   BACKBONE|DICT|INTERRES
    51   24  149 1    
    52   25   26 2    
    53   25   27 1    
    54   27   28 1    
    55   27   29 1    
    56   27  150 1    
    57   28  151 1    
    58   28  152 1    
    59   28  153 1    
    60   29   30 am   BACKBONE|DICT|INTERRES
    61   29  154 1    
    62   30   31 2    
    63   30   32 1    
    64   32   33 1    
    65   32   34 1    
    66   32  155 1    
    67   33  156 1    
    68   33  157 1    
    69   33  158 1    
    70   34   35 am   BACKBONE|DICT|INTERRES
    71   34  159 1    
    72   35   36 2    
    73   35   37 1    
    74   37   38 1    
    75   37   39 1    
    76   37  160 1    
    77   38  161 1    
    78   38  162 1    
    79   38  163 1    
    80   39   40 am   BACKBONE|DICT|INTERRES
    81   39  164 1    
    82   40   41 2    
    83   40   42 1    
    84   42   43 1    
    85   42   44 1    
    86   42  165 1    
    87   43  166 1    
    88   43  167 1    
    89   43  168 1    
    90   44   45 am   BACKBONE|DICT|INTERRES
    91   44  169 1    
    92   45   46 2    
    93   45   47 1    
    94   47   48 1    
    95   47   49 1    
    96   47  170 1    
    97   48  171 1    
    98   48  172 1    
    99   48  173 1    
   100   49   50 am   BACKBONE|DICT|INTERRES
   101   49  174 1    
   102   50   51 2    
   103   50   52 1    
   104   52   53 1    
   105   52   54 1    
   106   52  175 1    
   107   53  176 1    
   108   53  177 1    
   109   53  178 1    
   110   54   55 am   BACKBONE|DICT|INTERRES
   111   54  179 1    
   112   55   56 2    
   113   55   57 1    
   114   57   58 1    
   115   57   59 1    
   116   57  180 1    
   117   58  181 1    
   118   58  182 1    
   119   58  183 1    
   120   59   60 am   BACKBONE|DICT|INTERRES
   121   59  184 1    
   122   60   61 2    
   123   60   62 1    
   124   62   63 1    
   125   62   64 1    
   126   62  185 1    
   127   63  186 1    
   128   63  187 1    
   129   63  188 1    
   130   64   65 am   BACKBONE|DICT|INTERRES
   131   64  189 1    
   132   65   66 2    
   133   67   68 2    
   134   67   69 am   BACKBONE|DICT|INTERRES
   135   69   70 1    
   136   69  190 1    
   137   70   71 1    
   138   70   72 1    
   139   70  191 1    
   140   71  192 1    
   141   71  193 1    
   142   71  194 1    
   143   72   73 2    
   144   72   74 am   BACKBONE|DICT|INTERRES
   145   74   75 1    
   146   74  195 1    
   147   75   76 1    
   148   75   77 1    
   149   75  196 1    
   150   76  197 1    
   151   76  198 1    
   152   76  199 1    
   153   77   78 2    
   154   77   79 am   BACKBONE|DICT|INTERRES
   155   79   80 1    
   156   79  200 1    
   157   80   81 1    
   158   80   82 1    
   159   80  201 1    
   160   81  202 1    
   161   81  203 1    
   162   81  204 1    
   163   82   83 2    
   164   82   84 am   BACKBONE|DICT|INTERRES
   165   84   85 1    
   166   84  205 1    
   167   85   86 1    
   168   85   87 1    
   169   85  206 1    
   170   86  207 1    
   171   86  208 1    
   172   86  209 1    
   173   87   88 2    
   174   87   89 am   BACKBONE|DICT|INTERRES
   175   89   90 1    
   176   89  210 1    
   177   90   91 1    
   178   90   92 1    
   179   90  211 1    
   180   91  212 1    
   181   91  213 1    
   182   91  214 1    
   183   92   93 2    
   184   92   94 am   BACKBONE|DICT|INTERRES
   185   94   95 1    
   186   94  215 1    
   187   95   96 1    
   188   95   97 1    
   189   95  216 1    
   190   96  217 1    
   191   96  218 1    
   192   96  219 1    
   193   97   98 2    
   194   97   99 am   BACKBONE|DICT|INTERRES
   195   99  100 1    
   196   99  220 1    
   197  100  101 1    
   198  100  102 1    
   199  100  221 1    
   200  101  222 1    
   201  101  223 1    
   202  101  224 1    
   203  102  103 2    
   204  102  104 am   BACKBONE|DICT|INTERRES
   205  104  105 1    
   206  104  225 1    
   207  105  106 1    
   208  105  107 1    
   209  105  226 1    
   210  106  227 1    
   211  106  228 1    
   212  106  229 1    
   213  107  108 2    
   214  107  109 am   BACKBONE|DICT|INTERRES
   215  109  110 1    
   216  109  230 1    
   217  110  111 1    
   218  110  112 1    
   219  110  231 1    
   220  111  232 1    
   221  111  233 1    
   222  111  234 1    
   223  112  113 2    
   224  112  114 am   BACKBONE|DICT|INTERRES
   225  114  115 1    
   226  114  235 1    
   227  115  116 1    
   228  115  117 1    
   229  115  236 1    
   230  116  237 1    
   231  116  238 1    
   232  116  239 1    
   233  117  118 2    
   234  117  119 am   BACKBONE|DICT|INTERRES
   235  119  120 1    
   236  119  240 1    
   237  120  121 1    
   238  120  124 1    
   239  120  241 1    
   240  121  122 am   BACKBONE|DICT|INTERRES
   241  121  123 2    
   242  122  242 1    
   243  122  243 1    
   244  124  125 1    
   245  124  244 1    
   246  124  245 1    
   247  125  126 1    
   248  126  246 1    
   249  126  247 1    
@<TRIPOS>SUBSTRUCTURE
     1 UNK         1 GROUP             0       ****    0 ROOT    
