@<TRIPOS>MOLECULE
3R540
247   249    1
SMALL
USER_CHARGES


@<TRIPOS>ATOM
      1 CA         -9.3404  -19.5218  -47.8669 C.3       0 UNK        -0.1800 
      2 C          -8.7353  -18.1621  -47.5471 C.2       0 UNK         0.5000 
      3 O          -9.4698  -17.1830  -47.4121 O.2       0 UNK        -0.5000 
      4 N          -7.4051  -18.0989  -47.4396 N.am      1 UNK        -0.5000 
      5 CA         -6.6437  -16.8846  -47.1344 C.3       1 UNK         0.1400 
      6 C6         -5.2906  -16.8505  -47.8858 C.3       23 UNK        -0.0398 
      7 S7         -5.4960  -16.7652  -49.6920 S.3       23 UNK        -0.2404 
      8 C8         -5.1032  -18.4824  -50.1555 C.3       23 UNK        -0.0205 
      9 C9         -3.6202  -18.8275  -50.0781 C.ar      23 UNK        -0.0193 
     10 C10        -2.6596  -17.9806  -50.6403 C.ar      23 UNK        -0.1150 
     11 C11        -1.3117  -18.3455  -50.6556 C.ar      23 UNK        -0.0193 
     12 C12        -0.9247  -19.5687  -50.1059 C.ar      23 UNK        -0.1150 
     13 C13        -1.8689  -20.4214  -49.5299 C.ar      23 UNK        -0.0193 
     14 C14        -3.2160  -20.0452  -49.5190 C.ar      23 UNK        -0.1150 
     15 C15        -1.4275  -21.7681  -48.9770 C.3       23 UNK        -0.0205 
     16 S16        -0.4928  -21.5851  -47.4288 S.3       23 UNK        -0.2404 
     17 C17         0.2183  -23.2650  -47.2703 C.3       23 UNK        -0.0398 
     18 CA          0.6968  -23.6434  -45.8414 C.3       11 UNK         0.1400 
     19 N           1.8374  -22.8224  -45.4344 N.am      11 UNK        -0.5000 
     20 C           3.0847  -23.2632  -45.2328 C.2       10 UNK         0.5000 
     21 O           3.4105  -24.4502  -45.3002 O.2       10 UNK        -0.5000 
     22 CA          4.1444  -22.1782  -44.9399 C.3       10 UNK         0.1400 
     23 CB          5.5899  -22.7196  -44.9090 C.3       10 UNK        -0.1800 
     24 N           4.0218  -21.0369  -45.8584 N.am      10 UNK        -0.5000 
     25 C           4.1704  -21.0617  -47.1925 C.2       9 UNK         0.5000 
     26 O           4.5380  -22.0548  -47.8217 O.2       9 UNK        -0.5000 
     27 CA          3.8375  -19.7808  -47.9770 C.3       9 UNK         0.1400 
     28 CB          2.5173  -19.9496  -48.7390 C.3       9 UNK        -0.1800 
     29 N           3.7386  -18.5786  -47.1500 N.am      9 UNK        -0.5000 
     30 C           4.7637  -17.7597  -46.8888 C.2       8 UNK         0.5000 
     31 O           5.9306  -17.9973  -47.2034 O.2       8 UNK        -0.5000 
     32 CA          4.4228  -16.4393  -46.1763 C.3       8 UNK         0.1400 
     33 CB          3.6622  -15.4918  -47.1195 C.3       8 UNK        -0.1800 
     34 N           3.6481  -16.6412  -44.9531 N.am      8 UNK        -0.5000 
     35 C           4.1528  -17.1271  -43.8105 C.2       7 UNK         0.5000 
     36 O           5.3319  -17.4520  -43.6672 O.2       7 UNK        -0.5000 
     37 CA          3.1816  -17.2748  -42.6231 C.3       7 UNK         0.1400 
     38 CB          3.0686  -15.9526  -41.8489 C.3       7 UNK        -0.1800 
     39 N           1.8449  -17.7106  -43.0218 N.am      7 UNK        -0.5000 
     40 C           1.5601  -18.9026  -43.5625 C.2       6 UNK         0.5000 
     41 O           2.3915  -19.7872  -43.7520 O.2       6 UNK        -0.5000 
     42 CA          0.1084  -19.1205  -44.0169 C.3       6 UNK         0.1400 
     43 CB         -0.7804  -19.4744  -42.8131 C.3       6 UNK        -0.1800 
     44 N          -0.4263  -17.9557  -44.7265 N.am      6 UNK        -0.5000 
     45 C           0.0837  -17.4655  -45.8678 C.2       5 UNK         0.5000 
     46 O           1.0541  -17.9478  -46.4487 O.2       5 UNK        -0.5000 
     47 CA         -0.5572  -16.1818  -46.4145 C.3       5 UNK         0.1400 
     48 CB         -1.8153  -16.5108  -47.2267 C.3       5 UNK        -0.1800 
     49 N          -0.8860  -15.2484  -45.3372 N.am      5 UNK        -0.5000 
     50 C           0.0312  -14.5428  -44.6576 C.2       4 UNK         0.5000 
     51 O           1.2350  -14.5650  -44.9138 O.2       4 UNK        -0.5000 
     52 CA         -0.4707  -13.7095  -43.4611 C.3       4 UNK         0.1400 
     53 CB         -0.9459  -12.3254  -43.9272 C.3       4 UNK        -0.1800 
     54 N          -1.5502  -14.3662  -42.7222 N.am      4 UNK        -0.5000 
     55 C          -1.4323  -15.5405  -42.0873 C.2       3 UNK         0.5000 
     56 O          -0.3642  -16.1410  -41.9745 O.2       3 UNK        -0.5000 
     57 CA         -2.7189  -16.1788  -41.5220 C.3       3 UNK         0.1400 
     58 CB         -2.7929  -15.9723  -40.0021 C.3       3 UNK        -0.1800 
     59 N          -3.9683  -15.7050  -42.1301 N.am      3 UNK        -0.5000 
     60 C          -4.2895  -15.7850  -43.4288 C.2       2 UNK         0.5000 
     61 O          -3.5269  -16.2259  -44.2930 O.2       2 UNK        -0.5000 
     62 CA         -5.6667  -15.2093  -43.8161 C.3       2 UNK         0.1400 
     63 CB         -5.6637  -13.6770  -43.6797 C.3       2 UNK        -0.1800 
     64 N          -6.0480  -15.5431  -45.1878 N.am      2 UNK        -0.5000 
     65 C          -6.4220  -16.7557  -45.6139 C.2       1 UNK         0.5000 
     66 O          -6.5726  -17.7286  -44.8695 O.2       1 UNK        -0.5000 
     67 C          -0.4479  -23.5249  -44.8181 C.2       11 UNK         0.5000 
     68 O          -0.4633  -22.6019  -43.9997 O.2       11 UNK        -0.5000 
     69 N          -1.4301  -24.4266  -44.9369 N.am      12 UNK        -0.5000 
     70 CA         -2.7558  -24.2794  -44.3440 C.3       12 UNK         0.1400 
     71 CB         -3.3940  -25.6702  -44.1833 C.3       12 UNK        -0.1800 
     72 C          -3.5854  -23.3620  -45.2605 C.2       12 UNK         0.5000 
     73 O          -4.2434  -23.8462  -46.1820 O.2       12 UNK        -0.5000 
     74 N          -3.4883  -22.0465  -45.0283 N.am      13 UNK        -0.5000 
     75 CA         -4.0306  -20.9821  -45.8822 C.3       13 UNK         0.1400 
     76 CB         -3.6582  -19.6250  -45.2764 C.3       13 UNK        -0.1800 
     77 C          -5.5443  -21.0574  -46.1607 C.2       13 UNK         0.5000 
     78 O          -5.9938  -20.5952  -47.2116 O.2       13 UNK        -0.5000 
     79 N          -6.2923  -21.6819  -45.2419 N.am      14 UNK        -0.5000 
     80 CA         -7.7238  -21.9638  -45.3502 C.3       14 UNK         0.1400 
     81 CB         -8.2169  -22.5171  -44.0046 C.3       14 UNK        -0.1800 
     82 C          -8.0999  -22.9257  -46.4990 C.2       14 UNK         0.5000 
     83 O          -9.2703  -22.9686  -46.8784 O.2       14 UNK        -0.5000 
     84 N          -7.1229  -23.6703  -47.0406 N.am      15 UNK        -0.5000 
     85 CA         -7.2981  -24.5764  -48.1794 C.3       15 UNK         0.1400 
     86 CB         -6.0716  -25.4965  -48.2799 C.3       15 UNK        -0.1800 
     87 C          -7.5375  -23.8553  -49.5234 C.2       15 UNK         0.5000 
     88 O          -8.0305  -24.4921  -50.4559 O.2       15 UNK        -0.5000 
     89 N          -7.1953  -22.5584  -49.5937 N.am      16 UNK        -0.5000 
     90 CA         -7.2801  -21.6725  -50.7610 C.3       16 UNK         0.1400 
     91 CB         -8.7345  -21.5600  -51.2695 C.3       16 UNK        -0.1800 
     92 C          -6.2781  -22.0339  -51.8825 C.2       16 UNK         0.5000 
     93 O          -5.4484  -22.9311  -51.7125 O.2       16 UNK        -0.5000 
     94 N          -6.3615  -21.2951  -53.0012 N.am      17 UNK        -0.5000 
     95 CA         -5.4812  -21.3591  -54.1769 C.3       17 UNK         0.1400 
     96 CB         -5.6782  -22.6941  -54.9306 C.3       17 UNK        -0.1800 
     97 C          -4.0101  -21.0467  -53.8168 C.2       17 UNK         0.5000 
     98 O          -3.7795  -20.1890  -52.9668 O.2       17 UNK        -0.5000 
     99 N          -3.0531  -21.7249  -54.4702 N.am      18 UNK        -0.5000 
    100 CA        -1.6171  -21.7648  -54.1526 C.3       18 UNK         0.1400 
    101 CB        -1.3978  -22.5376  -52.8353 C.3       18 UNK        -0.1800 
    102 C         -0.8908  -20.3999  -54.1522 C.2       18 UNK         0.5000 
    103 O          0.1191  -20.2515  -53.4635 O.2       18 UNK        -0.5000 
    104 N         -1.3829  -19.4362  -54.9466 N.am      19 UNK        -0.5000 
    105 CA        -0.9056  -18.0468  -55.0065 C.3       19 UNK         0.1400 
    106 CB        -1.7220  -17.2792  -56.0562 C.3       19 UNK        -0.1800 
    107 C          0.6051  -17.8922  -55.2805 C.2       19 UNK         0.5000 
    108 O          1.2462  -16.9971  -54.7241 O.2       19 UNK        -0.5000 
    109 N          1.1528  -18.8067  -56.0914 N.am      20 UNK        -0.5000 
    110 CA         2.5708  -18.8966  -56.4407 C.3       20 UNK         0.1400 
    111 CB         2.7403  -19.9548  -57.5417 C.3       20 UNK        -0.1800 
    112 C          3.5036  -19.2041  -55.2506 C.2       20 UNK         0.5000 
    113 O          4.6980  -18.9196  -55.3458 O.2       20 UNK        -0.5000 
    114 N          2.9646  -19.7673  -54.1580 N.am      21 UNK        -0.5000 
    115 CA         3.7127  -20.0350  -52.9289 C.3       21 UNK         0.1400 
    116 CB         2.9692  -21.0875  -52.0944 C.3       21 UNK        -0.1800 
    117 C          3.9685  -18.7566  -52.1070 C.2       21 UNK         0.5000 
    118 O          4.9856  -18.6826  -51.4168 O.2       21 UNK        -0.5000 
    119 N          3.0631  -17.7740  -52.2086 N.am      22 UNK        -0.5000 
    120 CA         3.2383  -16.4280  -51.6404 C.3       22 UNK         0.1400 
    121 C          4.0509  -15.5184  -52.5994 C.2       22 UNK         0.5000 
    122 N          3.7629  -15.5338  -53.8969 N.am      22 UNK        -0.7600 
    123 O          4.9440  -14.7958  -52.1666 O.2       22 UNK        -0.5000 
    124 C124        1.8964  -15.7387  -51.2838 C.3       23 UNK        -0.0398 
    125 S125        0.8605  -16.6927  -50.1257 S.3       23 UNK        -0.2404 
    126 C126       -0.2828  -17.4485  -51.3183 C.3       23 UNK        -0.0205 
    127 H127       -9.9945  -19.4464  -48.7354 H         1 UNK         0.0600 
    128 H128       -9.9317  -19.8802  -47.0246 H         1 UNK         0.0600 
    129 H129       -8.5741  -20.2640  -48.0889 H         1 UNK         0.0600 
    130 H130       -6.8638  -18.9593  -47.4660 H         1 UNK         0.3000 
    131 H131       -7.2196  -16.0118  -47.4503 H         1 UNK         0.0600 
    132 H132       -4.7088  -15.9751  -47.5944 H         1 UNK         0.0800 
    133 H133       -4.6815  -17.7180  -47.6372 H         1 UNK         0.0800 
    134 H134       -5.4432  -18.6589  -51.1766 H         1 UNK         0.0800 
    135 H135       -5.6776  -19.1460  -49.5114 H         1 UNK         0.0800 
    136 H136       -2.9679  -17.0501  -51.0946 H         1 UNK         0.1150 
    137 H137        0.1133  -19.8637  -50.1406 H         1 UNK         0.1150 
    138 H138       -3.9572  -20.7182  -49.1131 H         1 UNK         0.1150 
    139 H139       -2.2870  -22.4182  -48.8054 H         1 UNK         0.0800 
    140 H140       -0.8017  -22.2667  -49.7185 H         1 UNK         0.0800 
    141 H141        1.0542  -23.3444  -47.9671 H         1 UNK         0.0800 
    142 H142       -0.5207  -23.9887  -47.6178 H         1 UNK         0.0800 
    143 H143        0.9900  -24.6950  -45.8564 H         1 UNK         0.0600 
    144 H144        1.6367  -21.8417  -45.2961 H         1 UNK         0.3000 
    145 H145        3.9283  -21.8057  -43.9390 H         1 UNK         0.0600 
    146 H146        6.3035  -21.9229  -44.6991 H         1 UNK         0.0600 
    147 H147        5.7051  -23.4720  -44.1280 H         1 UNK         0.0600 
    148 H148        5.8749  -23.1858  -45.8522 H         1 UNK         0.0600 
    149 H149        3.6763  -20.1852  -45.4318 H         1 UNK         0.3000 
    150 H150        4.6292  -19.6501  -48.7180 H         1 UNK         0.0600 
    151 H151        2.4556  -20.9171  -49.2366 H         1 UNK         0.0600 
    152 H152        2.4073  -19.1787  -49.5002 H         1 UNK         0.0600 
    153 H153        1.6619  -19.8775  -48.0712 H         1 UNK         0.0600 
    154 H154        2.7999  -18.3099  -46.8568 H         1 UNK         0.3000 
    155 H155        5.3636  -15.9538  -45.9078 H         1 UNK         0.0600 
    156 H156        4.2233  -15.3217  -48.0393 H         1 UNK         0.0600 
    157 H157        3.4991  -14.5201  -46.6534 H         1 UNK         0.0600 
    158 H158        2.6884  -15.8936  -47.4010 H         1 UNK         0.0600 
    159 H159        2.6723  -16.3749  -44.9827 H         1 UNK         0.3000 
    160 H160        3.5925  -18.0304  -41.9503 H         1 UNK         0.0600 
    161 H161        2.6332  -15.1636  -42.4634 H         1 UNK         0.0600 
    162 H162        4.0484  -15.6087  -41.5156 H         1 UNK         0.0600 
    163 H163        2.4442  -16.0673  -40.9626 H         1 UNK         0.0600 
    164 H164        1.0822  -17.0614  -42.8489 H         1 UNK         0.3000 
    165 H165        0.0944  -19.9618  -44.7126 H         1 UNK         0.0600 
    166 H166       -0.7517  -18.7062  -42.0424 H         1 UNK         0.0600 
    167 H167       -1.8188  -19.6217  -43.1015 H         1 UNK         0.0600 
    168 H168       -0.4422  -20.4016  -42.3492 H         1 UNK         0.0600 
    169 H169       -1.2127  -17.4800  -44.3087 H         1 UNK         0.3000 
    170 H170        0.1609  -15.7044  -47.0847 H         1 UNK         0.0600 
    171 H171       -1.5801  -17.2007  -48.0370 H         1 UNK         0.0600 
    172 H172       -2.5784  -16.9850  -46.6116 H         1 UNK         0.0600 
    173 H173       -2.2434  -15.6146  -47.6750 H         1 UNK         0.0600 
    174 H174       -1.8500  -15.2429  -45.0235 H         1 UNK         0.3000 
    175 H175        0.3696  -13.5723  -42.7772 H         1 UNK         0.0600 
    176 H176       -0.1550  -11.8033  -44.4674 H         1 UNK         0.0600 
    177 H177       -1.8065  -12.3979  -44.5935 H         1 UNK         0.0600 
    178 H178       -1.2278  -11.6992  -43.0805 H         1 UNK         0.0600 
    179 H179       -2.4611  -13.9352  -42.7646 H         1 UNK         0.3000 
    180 H180       -2.6553  -17.2508  -41.7162 H         1 UNK         0.0600 
    181 H181       -1.8919  -16.3442  -39.5120 H         1 UNK         0.0600 
    182 H182       -2.8951  -14.9174  -39.7445 H         1 UNK         0.0600 
    183 H183       -3.6386  -16.5083  -39.5708 H         1 UNK         0.0600 
    184 H184       -4.6429  -15.3083  -41.4918 H         1 UNK         0.3000 
    185 H185       -6.4143  -15.6245  -43.1370 H         1 UNK         0.0600 
    186 H186       -5.4495  -13.3676  -42.6561 H         1 UNK         0.0600 
    187 H187       -4.9144  -13.2165  -44.3253 H         1 UNK         0.0600 
    188 H188       -6.6348  -13.2567  -43.9424 H         1 UNK         0.0600 
    189 H189       -5.9308  -14.8040  -45.8649 H         1 UNK         0.3000 
    190 H190       -1.3489  -25.1458  -45.6411 H         1 UNK         0.3000 
    191 H191       -2.6802  -23.8229  -43.3546 H         1 UNK         0.0600 
    192 H192       -3.4726  -26.1966  -45.1355 H         1 UNK         0.0600 
    193 H193       -4.3997  -25.5907  -43.7686 H         1 UNK         0.0600 
    194 H194       -2.8107  -26.2932  -43.5052 H         1 UNK         0.0600 
    195 H195       -2.8793  -21.7460  -44.2800 H         1 UNK         0.3000 
    196 H196       -3.5314  -21.0664  -46.8471 H         1 UNK         0.0600 
    197 H197       -4.1182  -18.8035  -45.8192 H         1 UNK         0.0600 
    198 H198       -2.5824  -19.4711  -45.3232 H         1 UNK         0.0600 
    199 H199       -3.9795  -19.5401  -44.2380 H         1 UNK         0.0600 
    200 H200       -5.8267  -22.0335  -44.4188 H         1 UNK         0.3000 
    201 H201       -8.2327  -21.0167  -45.5370 H         1 UNK         0.0600 
    202 H202       -9.2909  -22.7069  -44.0287 H         1 UNK         0.0600 
    203 H203       -7.7231  -23.4562  -43.7514 H         1 UNK         0.0600 
    204 H204       -8.0326  -21.8102  -43.1953 H         1 UNK         0.0600 
    205 H205       -6.1801  -23.5964  -46.6701 H         1 UNK         0.3000 
    206 H206       -8.1731  -25.1993  -47.9828 H         1 UNK         0.0600 
    207 H207       -5.9020  -26.0357  -47.3477 H         1 UNK         0.0600 
    208 H208       -6.2039  -26.2397  -49.0671 H         1 UNK         0.0600 
    209 H209       -5.1670  -24.9327  -48.5116 H         1 UNK         0.0600 
    210 H210       -6.7744  -22.1472  -48.7704 H         1 UNK         0.3000 
    211 H211       -6.9938  -20.6890  -50.3959 H         1 UNK         0.0600 
    212 H212       -8.8538  -20.7154  -51.9483 H         1 UNK         0.0600 
    213 H213       -9.4301  -21.4051  -50.4446 H         1 UNK         0.0600 
    214 H214       -9.0484  -22.4554  -51.8066 H         1 UNK         0.0600 
    215 H215       -7.0537  -20.5608  -53.0308 H         1 UNK         0.3000 
    216 H216       -5.8043  -20.5559  -54.8405 H         1 UNK         0.0600 
    217 H217       -5.1819  -22.6807  -55.9015 H         1 UNK         0.0600 
    218 H218       -6.7351  -22.8826  -55.1195 H         1 UNK         0.0600 
    219 H219       -5.2878  -23.5424  -54.3670 H         1 UNK         0.0600 
    220 H220       -3.3521  -22.3786  -55.1800 H         1 UNK         0.3000 
    221 H221       -1.1482  -22.3428  -54.9498 H         1 UNK         0.0600 
    222 H222       -1.8279  -22.0034  -51.9883 H         1 UNK         0.0600 
    223 H223       -1.8582  -23.5246  -52.8749 H         1 UNK         0.0600 
    224 H224       -0.3369  -22.6838  -52.6282 H         1 UNK         0.0600 
    225 H225       -2.2134  -19.6491  -55.4788 H         1 UNK         0.3000 
    226 H226       -1.1087  -17.5976  -54.0349 H         1 UNK         0.0600 
    227 H227       -1.4076  -16.2359  -56.1098 H         1 UNK         0.0600 
    228 H228       -1.6043  -17.7097  -57.0514 H         1 UNK         0.0600 
    229 H229       -2.7841  -17.2841  -55.8106 H         1 UNK         0.0600 
    230 H230        0.5477  -19.5151  -56.4794 H         1 UNK         0.3000 
    231 H231        2.8738  -17.9291  -56.8461 H         1 UNK         0.0600 
    232 H232        2.1538  -19.7033  -58.4256 H         1 UNK         0.0600 
    233 H233        2.4289  -20.9428  -57.2002 H         1 UNK         0.0600 
    234 H234        3.7822  -20.0296  -57.8562 H         1 UNK         0.0600 
    235 H235        1.9677  -19.9602  -54.1296 H         1 UNK         0.3000 
    236 H236        4.6834  -20.4546  -53.2019 H         1 UNK         0.0600 
    237 H237        2.7415  -21.9750  -52.6850 H         1 UNK         0.0600 
    238 H238        3.5799  -21.4083  -51.2501 H         1 UNK         0.0600 
    239 H239        2.0309  -20.6995  -51.6972 H         1 UNK         0.0600 
    240 H240        2.2822  -17.8979  -52.8367 H         1 UNK         0.3000 
    241 H241        3.8079  -16.5149  -50.7125 H         1 UNK         0.0600 
    242 H242        2.9880  -16.0849  -54.2495 H         1 UNK         0.3800 
    243 H243        4.2880  -14.9494  -54.5276 H         1 UNK         0.3800 
    244 H244        2.0907  -14.7720  -50.8159 H         1 UNK         0.0800 
    245 H245        1.3239  -15.5201  -52.1872 H         1 UNK         0.0800 
    246 H246        0.2858  -18.0385  -52.0356 H         1 UNK         0.0800 
    247 H247       -0.7777  -16.6572  -51.8827 H         1 UNK         0.0800 
@<TRIPOS>BOND
     1    1    2 1    
     2    1  127 1    
     3    1  128 1    
     4    1  129 1    
     5    2    3 2    
     6    2    4 am   BACKBONE|DICT|INTERRES
     7    4    5 1    
     8    4  130 1    
     9    5    6 1    
    10    5   65 1    
    11    5  131 1    
    12    6    7 1    
    13    6  132 1    
    14    6  133 1    
    15    7    8 1    
    16    8    9 1    
    17    8  134 1    
    18    8  135 1    
    19    9   10 ar   
    20    9   14 ar   
    21   10   11 ar   
    22   10  136 1    
    23   11   12 ar   
    24   11  126 1    
    25   12   13 ar   
    26   12  137 1    
    27   13   14 ar   
    28   13   15 1    
    29   14  138 1    
    30   15   16 1    
    31   15  139 1    
    32   15  140 1    
    33   16   17 1    
    34   17   18 1    
    35   17  141 1    
    36   17  142 1    
    37   18   19 1    
    38   18   67 1    
    39   18  143 1    
    40   19   20 am   BACKBONE|DICT|INTERRES
    41   19  144 1    
    42   20   21 2    
    43   20   22 1    
    44   22   23 1    
    45   22   24 1    
    46   22  145 1    
    47   23  146 1    
    48   23  147 1    
    49   23  148 1    
    50   24   25 am   BACKBONE|DICT|INTERRES
    51   24  149 1    
    52   25   26 2    
    53   25   27 1    
    54   27   28 1    
    55   27   29 1    
    56   27  150 1    
    57   28  151 1    
    58   28  152 1    
    59   28  153 1    
    60   29   30 am   BACKBONE|DICT|INTERRES
    61   29  154 1    
    62   30   31 2    
    63   30   32 1    
    64   32   33 1    
    65   32   34 1    
    66   32  155 1    
    67   33  156 1    
    68   33  157 1    
    69   33  158 1    
    70   34   35 am   BACKBONE|DICT|INTERRES
    71   34  159 1    
    72   35   36 2    
    73   35   37 1    
    74   37   38 1    
    75   37   39 1    
    76   37  160 1    
    77   38  161 1    
    78   38  162 1    
    79   38  163 1    
    80   39   40 am   BACKBONE|DICT|INTERRES
    81   39  164 1    
    82   40   41 2    
    83   40   42 1    
    84   42   43 1    
    85   42   44 1    
    86   42  165 1    
    87   43  166 1    
    88   43  167 1    
    89   43  168 1    
    90   44   45 am   BACKBONE|DICT|INTERRES
    91   44  169 1    
    92   45   46 2    
    93   45   47 1    
    94   47   48 1    
    95   47   49 1    
    96   47  170 1    
    97   48  171 1    
    98   48  172 1    
    99   48  173 1    
   100   49   50 am   BACKBONE|DICT|INTERRES
   101   49  174 1    
   102   50   51 2    
   103   50   52 1    
   104   52   53 1    
   105   52   54 1    
   106   52  175 1    
   107   53  176 1    
   108   53  177 1    
   109   53  178 1    
   110   54   55 am   BACKBONE|DICT|INTERRES
   111   54  179 1    
   112   55   56 2    
   113   55   57 1    
   114   57   58 1    
   115   57   59 1    
   116   57  180 1    
   117   58  181 1    
   118   58  182 1    
   119   58  183 1    
   120   59   60 am   BACKBONE|DICT|INTERRES
   121   59  184 1    
   122   60   61 2    
   123   60   62 1    
   124   62   63 1    
   125   62   64 1    
   126   62  185 1    
   127   63  186 1    
   128   63  187 1    
   129   63  188 1    
   130   64   65 am   BACKBONE|DICT|INTERRES
   131   64  189 1    
   132   65   66 2    
   133   67   68 2    
   134   67   69 am   BACKBONE|DICT|INTERRES
   135   69   70 1    
   136   69  190 1    
   137   70   71 1    
   138   70   72 1    
   139   70  191 1    
   140   71  192 1    
   141   71  193 1    
   142   71  194 1    
   143   72   73 2    
   144   72   74 am   BACKBONE|DICT|INTERRES
   145   74   75 1    
   146   74  195 1    
   147   75   76 1    
   148   75   77 1    
   149   75  196 1    
   150   76  197 1    
   151   76  198 1    
   152   76  199 1    
   153   77   78 2    
   154   77   79 am   BACKBONE|DICT|INTERRES
   155   79   80 1    
   156   79  200 1    
   157   80   81 1    
   158   80   82 1    
   159   80  201 1    
   160   81  202 1    
   161   81  203 1    
   162   81  204 1    
   163   82   83 2    
   164   82   84 am   BACKBONE|DICT|INTERRES
   165   84   85 1    
   166   84  205 1    
   167   85   86 1    
   168   85   87 1    
   169   85  206 1    
   170   86  207 1    
   171   86  208 1    
   172   86  209 1    
   173   87   88 2    
   174   87   89 am   BACKBONE|DICT|INTERRES
   175   89   90 1    
   176   89  210 1    
   177   90   91 1    
   178   90   92 1    
   179   90  211 1    
   180   91  212 1    
   181   91  213 1    
   182   91  214 1    
   183   92   93 2    
   184   92   94 am   BACKBONE|DICT|INTERRES
   185   94   95 1    
   186   94  215 1    
   187   95   96 1    
   188   95   97 1    
   189   95  216 1    
   190   96  217 1    
   191   96  218 1    
   192   96  219 1    
   193   97   98 2    
   194   97   99 am   BACKBONE|DICT|INTERRES
   195   99  100 1    
   196   99  220 1    
   197  100  101 1    
   198  100  102 1    
   199  100  221 1    
   200  101  222 1    
   201  101  223 1    
   202  101  224 1    
   203  102  103 2    
   204  102  104 am   BACKBONE|DICT|INTERRES
   205  104  105 1    
   206  104  225 1    
   207  105  106 1    
   208  105  107 1    
   209  105  226 1    
   210  106  227 1    
   211  106  228 1    
   212  106  229 1    
   213  107  108 2    
   214  107  109 am   BACKBONE|DICT|INTERRES
   215  109  110 1    
   216  109  230 1    
   217  110  111 1    
   218  110  112 1    
   219  110  231 1    
   220  111  232 1    
   221  111  233 1    
   222  111  234 1    
   223  112  113 2    
   224  112  114 am   BACKBONE|DICT|INTERRES
   225  114  115 1    
   226  114  235 1    
   227  115  116 1    
   228  115  117 1    
   229  115  236 1    
   230  116  237 1    
   231  116  238 1    
   232  116  239 1    
   233  117  118 2    
   234  117  119 am   BACKBONE|DICT|INTERRES
   235  119  120 1    
   236  119  240 1    
   237  120  121 1    
   238  120  124 1    
   239  120  241 1    
   240  121  122 am   BACKBONE|DICT|INTERRES
   241  121  123 2    
   242  122  242 1    
   243  122  243 1    
   244  124  125 1    
   245  124  244 1    
   246  124  245 1    
   247  125  126 1    
   248  126  246 1    
   249  126  247 1    
@<TRIPOS>SUBSTRUCTURE
     1 UNK         1 GROUP             0       ****    0 ROOT    
