@<TRIPOS>MOLECULE
3R540
247   249    1
SMALL
USER_CHARGES


@<TRIPOS>ATOM
      1 CA         -0.9655  -12.5595  -51.4266 C.3       0 UNK        -0.1800 
      2 C          -0.3753  -13.3192  -50.2481 C.2       0 UNK         0.5000 
      3 O           0.6921  -12.9486  -49.7579 O.2       0 UNK        -0.5000 
      4 N          -1.0620  -14.3824  -49.8095 N.am      1 UNK        -0.5000 
      5 CA         -0.6456  -15.3373  -48.7751 C.3       1 UNK         0.1400 
      6 C6         -0.3254  -14.6941  -47.3907 C.3       23 UNK        -0.0398 
      7 S7         -1.5774  -13.5044  -46.7828 S.3       23 UNK        -0.2404 
      8 C8         -2.4606  -14.4524  -45.5041 C.3       23 UNK        -0.0205 
      9 C9         -3.5606  -15.3055  -46.1109 C.ar      23 UNK        -0.0193 
     10 C10        -4.8612  -14.8081  -46.2234 C.ar      23 UNK        -0.1150 
     11 C11        -5.8666  -15.5859  -46.8037 C.ar      23 UNK        -0.0193 
     12 C12        -5.5612  -16.8683  -47.2693 C.ar      23 UNK        -0.1150 
     13 C13        -4.2609  -17.3707  -47.1865 C.ar      23 UNK        -0.0193 
     14 C14        -3.2722  -16.5872  -46.5788 C.ar      23 UNK        -0.1150 
     15 C15        -3.9683  -18.7503  -47.7734 C.3       23 UNK        -0.0205 
     16 S16        -2.2739  -18.9450  -48.4197 S.3       23 UNK        -0.2404 
     17 C17        -1.3969  -19.4527  -46.9069 C.3       23 UNK        -0.0398 
     18 CA         -0.9641  -20.9337  -46.9103 C.3       11 UNK         0.1400 
     19 N          -0.0017  -21.1895  -45.8395 N.am      11 UNK        -0.5000 
     20 C           0.6421  -22.3434  -45.6260 C.2       10 UNK         0.5000 
     21 O           0.5454  -23.3297  -46.3535 O.2       10 UNK        -0.5000 
     22 CA          1.4863  -22.4202  -44.3438 C.3       10 UNK         0.1400 
     23 CB          2.8687  -21.7847  -44.5578 C.3       10 UNK        -0.1800 
     24 N           0.8105  -21.7729  -43.2173 N.am      10 UNK        -0.5000 
     25 C          -0.2967  -22.2482  -42.6282 C.2       9 UNK         0.5000 
     26 O          -0.8328  -23.3118  -42.9401 O.2       9 UNK        -0.5000 
     27 CA         -0.9332  -21.3648  -41.5380 C.3       9 UNK         0.1400 
     28 CB         -0.2182  -21.5621  -40.1932 C.3       9 UNK        -0.1800 
     29 N          -0.9267  -19.9424  -41.8882 N.am      9 UNK        -0.5000 
     30 C          -1.6426  -19.4073  -42.8877 C.2       8 UNK         0.5000 
     31 O          -2.4128  -20.0560  -43.5938 O.2       8 UNK        -0.5000 
     32 CA         -1.4221  -17.9109  -43.1886 C.3       8 UNK         0.1400 
     33 CB         -2.3882  -17.0458  -42.3679 C.3       8 UNK        -0.1800 
     34 N          -0.0446  -17.4600  -42.9673 N.am      8 UNK        -0.5000 
     35 C           1.0355  -17.9652  -43.5830 C.2       7 UNK         0.5000 
     36 O           0.9621  -18.8567  -44.4298 O.2       7 UNK        -0.5000 
     37 CA          2.4185  -17.4097  -43.1879 C.3       7 UNK         0.1400 
     38 CB          3.3404  -17.2563  -44.4104 C.3       7 UNK        -0.1800 
     39 N           2.3201  -16.1215  -42.5018 N.am      7 UNK        -0.5000 
     40 C           2.3379  -15.9451  -41.1729 C.2       6 UNK         0.5000 
     41 O           2.4272  -16.8715  -40.3669 O.2       6 UNK        -0.5000 
     42 CA          2.2287  -14.4979  -40.6461 C.3       6 UNK         0.1400 
     43 CB          3.6083  -13.9852  -40.2052 C.3       6 UNK        -0.1800 
     44 N           1.6696  -13.5588  -41.6203 N.am      6 UNK        -0.5000 
     45 C           0.3983  -13.5557  -42.0439 C.2       5 UNK         0.5000 
     46 O          -0.4669  -14.3117  -41.6035 O.2       5 UNK        -0.5000 
     47 CA          0.0500  -12.5796  -43.1865 C.3       5 UNK         0.1400 
     48 CB         -0.5184  -11.2694  -42.6225 C.3       5 UNK        -0.1800 
     49 N           1.1724  -12.2730  -44.0830 N.am      5 UNK        -0.5000 
     50 C           1.8550  -13.1783  -44.7963 C.2       4 UNK         0.5000 
     51 O           1.6230  -14.3909  -44.7590 O.2       4 UNK        -0.5000 
     52 CA          3.0117  -12.6550  -45.6606 C.3       4 UNK         0.1400 
     53 CB          4.1135  -12.0176  -44.7908 C.3       4 UNK        -0.1800 
     54 N           3.5596  -13.7831  -46.4052 N.am      4 UNK        -0.5000 
     55 C           4.3308  -13.7221  -47.4963 C.2       3 UNK         0.5000 
     56 O           4.6840  -12.6724  -48.0338 O.2       3 UNK        -0.5000 
     57 CA          4.7647  -15.0694  -48.0903 C.3       3 UNK         0.1400 
     58 CB          5.9334  -15.6656  -47.2805 C.3       3 UNK        -0.1800 
     59 N           3.6267  -15.9875  -48.1292 N.am      3 UNK        -0.5000 
     60 C           3.5709  -17.1391  -48.8098 C.2       2 UNK         0.5000 
     61 O           4.5065  -17.5912  -49.4704 O.2       2 UNK        -0.5000 
     62 CA          2.2404  -17.9171  -48.7546 C.3       2 UNK         0.1400 
     63 CB          2.3321  -19.0819  -47.7578 C.3       2 UNK        -0.1800 
     64 N           1.0920  -17.0661  -48.4155 N.am      2 UNK        -0.5000 
     65 C           0.4984  -16.2464  -49.2968 C.2       1 UNK         0.5000 
     66 O           0.8275  -16.2105  -50.4860 O.2       1 UNK        -0.5000 
     67 C          -2.1731  -21.8889  -46.8389 C.2       11 UNK         0.5000 
     68 O          -2.5354  -22.4797  -47.8549 O.2       11 UNK        -0.5000 
     69 N          -2.7460  -22.0562  -45.6385 N.am      12 UNK        -0.5000 
     70 CA         -3.8556  -22.9718  -45.3701 C.3       12 UNK         0.1400 
     71 CB         -4.3725  -22.7411  -43.9423 C.3       12 UNK        -0.1800 
     72 C          -3.4891  -24.4526  -45.5847 C.2       12 UNK         0.5000 
     73 O          -4.3327  -25.2194  -46.0495 O.2       12 UNK        -0.5000 
     74 N          -2.2428  -24.8245  -45.2600 N.am      13 UNK        -0.5000 
     75 CA         -1.6944  -26.1592  -45.5003 C.3       13 UNK         0.1400 
     76 CB         -0.4083  -26.3423  -44.6798 C.3       13 UNK        -0.1800 
     77 C          -1.4399  -26.4311  -46.9958 C.2       13 UNK         0.5000 
     78 O          -1.7321  -27.5304  -47.4679 O.2       13 UNK        -0.5000 
     79 N          -0.9048  -25.4302  -47.7090 N.am      14 UNK        -0.5000 
     80 CA         -0.6340  -25.4704  -49.1470 C.3       14 UNK         0.1400 
     81 CB          0.2533  -24.2712  -49.5193 C.3       14 UNK        -0.1800 
     82 C          -1.9278  -25.4999  -49.9842 C.2       14 UNK         0.5000 
     83 O          -2.0681  -26.3550  -50.8604 O.2       14 UNK        -0.5000 
     84 N          -2.8568  -24.5915  -49.6547 N.am      15 UNK        -0.5000 
     85 CA         -4.2120  -24.4457  -50.1881 C.3       15 UNK         0.1400 
     86 CB         -5.0638  -25.6699  -49.7851 C.3       15 UNK        -0.1800 
     87 C          -4.2760  -24.1560  -51.7045 C.2       15 UNK         0.5000 
     88 O          -3.2601  -23.8774  -52.3490 O.2       15 UNK        -0.5000 
     89 N          -5.4949  -24.2298  -52.2573 N.am      16 UNK        -0.5000 
     90 CA         -5.8044  -24.0029  -53.6713 C.3       16 UNK         0.1400 
     91 CB         -7.3282  -24.0245  -53.8607 C.3       16 UNK        -0.1800 
     92 C          -5.1270  -25.0049  -54.6267 C.2       16 UNK         0.5000 
     93 O          -4.9081  -24.6698  -55.7901 O.2       16 UNK        -0.5000 
     94 N          -4.7534  -26.1864  -54.1139 N.am      17 UNK        -0.5000 
     95 CA         -3.9602  -27.2004  -54.8138 C.3       17 UNK         0.1400 
     96 CB         -3.8799  -28.4606  -53.9391 C.3       17 UNK        -0.1800 
     97 C          -2.5448  -26.7141  -55.1898 C.2       17 UNK         0.5000 
     98 O          -2.0104  -27.1402  -56.2140 O.2       17 UNK        -0.5000 
     99 N          -1.9834  -25.8104  -54.3759 N.am      18 UNK        -0.5000 
    100 CA        -0.7125  -25.1259  -54.6176 C.3       18 UNK         0.1400 
    101 CB         0.0435  -25.0455  -53.2838 C.3       18 UNK        -0.1800 
    102 C         -0.9196  -23.7109  -55.1970 C.2       18 UNK         0.5000 
    103 O          0.0600  -22.9853  -55.3716 O.2       18 UNK        -0.5000 
    104 N         -2.1821  -23.3322  -55.4516 N.am      19 UNK        -0.5000 
    105 CA        -2.6608  -22.0062  -55.8554 C.3       19 UNK         0.1400 
    106 CB        -2.1312  -21.6275  -57.2544 C.3       19 UNK        -0.1800 
    107 C         -2.4048  -20.9134  -54.7933 C.2       19 UNK         0.5000 
    108 O         -2.2700  -19.7392  -55.1430 O.2       19 UNK        -0.5000 
    109 N         -2.3501  -21.3088  -53.5138 N.am      20 UNK        -0.5000 
    110 CA        -2.1960  -20.4085  -52.3748 C.3       20 UNK         0.1400 
    111 CB        -1.6163  -21.2071  -51.1952 C.3       20 UNK        -0.1800 
    112 C         -3.5607  -19.7777  -52.0380 C.2       20 UNK         0.5000 
    113 O         -4.5639  -20.4944  -51.9841 O.2       20 UNK        -0.5000 
    114 N         -3.5855  -18.4547  -51.8456 N.am      21 UNK        -0.5000 
    115 CA        -4.7922  -17.6564  -51.6402 C.3       21 UNK         0.1400 
    116 CB        -5.5227  -17.4619  -52.9849 C.3       21 UNK        -0.1800 
    117 C         -4.4255  -16.3046  -51.0072 C.2       21 UNK         0.5000 
    118 O         -3.2412  -15.9868  -50.8721 O.2       21 UNK        -0.5000 
    119 N         -5.4556  -15.5304  -50.6441 N.am      22 UNK        -0.5000 
    120 CA        -5.3554  -14.2361  -49.9445 C.3       22 UNK         0.1400 
    121 C         -4.6575  -13.0896  -50.7349 C.2       22 UNK         0.5000 
    122 N         -4.4757  -13.1996  -52.0451 N.am      22 UNK        -0.7600 
    123 O         -4.2848  -12.0779  -50.1487 O.2       22 UNK        -0.5000 
    124 C124       -6.7335  -13.7356  -49.4205 C.3       23 UNK        -0.0398 
    125 S125       -7.8171  -15.0164  -48.6936 S.3       23 UNK        -0.2404 
    126 C126       -7.2768  -15.0357  -46.9540 C.3       23 UNK        -0.0205 
    127 H127       -1.5116  -11.6843  -51.0745 H         1 UNK         0.0600 
    128 H128       -1.6480  -13.1873  -51.9993 H         1 UNK         0.0600 
    129 H129       -0.1748  -12.2251  -52.0982 H         1 UNK         0.0600 
    130 H130       -1.9033  -14.6676  -50.3026 H         1 UNK         0.3000 
    131 H131       -1.5046  -15.9939  -48.6441 H         1 UNK         0.0600 
    132 H132       -0.1871  -15.4636  -46.6310 H         1 UNK         0.0800 
    133 H133        0.6231  -14.1584  -47.4390 H         1 UNK         0.0800 
    134 H134       -1.7612  -15.0675  -44.9360 H         1 UNK         0.0800 
    135 H135       -2.8954  -13.7522  -44.7893 H         1 UNK         0.0800 
    136 H136       -5.0852  -13.8107  -45.8719 H         1 UNK         0.1150 
    137 H137       -6.3379  -17.4639  -47.7282 H         1 UNK         0.1150 
    138 H138       -2.2611  -16.9483  -46.4910 H         1 UNK         0.1150 
    139 H139       -4.1793  -19.5146  -47.0245 H         1 UNK         0.0800 
    140 H140       -4.6502  -18.9428  -48.6029 H         1 UNK         0.0800 
    141 H141       -2.0102  -19.2379  -46.0332 H         1 UNK         0.0800 
    142 H142       -0.5206  -18.8126  -46.8146 H         1 UNK         0.0800 
    143 H143       -0.4498  -21.1374  -47.8518 H         1 UNK         0.0600 
    144 H144        0.1914  -20.4167  -45.2085 H         1 UNK         0.3000 
    145 H145        1.6298  -23.4745  -44.0981 H         1 UNK         0.0600 
    146 H146        3.4839  -21.8673  -43.6618 H         1 UNK         0.0600 
    147 H147        2.7972  -20.7290  -44.8196 H         1 UNK         0.0600 
    148 H148        3.4035  -22.2844  -45.3664 H         1 UNK         0.0600 
    149 H149        1.1576  -20.8669  -42.9407 H         1 UNK         0.3000 
    150 H150       -1.9722  -21.6805  -41.4206 H         1 UNK         0.0600 
    151 H151       -0.2212  -22.6130  -39.9006 H         1 UNK         0.0600 
    152 H152       -0.7129  -21.0035  -39.3984 H         1 UNK         0.0600 
    153 H153        0.8217  -21.2359  -40.2358 H         1 UNK         0.0600 
    154 H154       -0.3165  -19.3403  -41.3553 H         1 UNK         0.3000 
    155 H155       -1.6488  -17.7534  -44.2434 H         1 UNK         0.0600 
    156 H156       -3.4206  -17.3667  -42.5131 H         1 UNK         0.0600 
    157 H157       -2.3327  -15.9996  -42.6674 H         1 UNK         0.0600 
    158 H158       -2.1714  -17.1011  -41.3005 H         1 UNK         0.0600 
    159 H159        0.0863  -16.7097  -42.3030 H         1 UNK         0.3000 
    160 H160        2.8764  -18.1449  -42.5235 H         1 UNK         0.0600 
    161 H161        2.8642  -16.6895  -45.2095 H         1 UNK         0.0600 
    162 H162        3.6111  -18.2315  -44.8155 H         1 UNK         0.0600 
    163 H163        4.2700  -16.7521  -44.1461 H         1 UNK         0.0600 
    164 H164        2.1714  -15.3196  -43.1057 H         1 UNK         0.3000 
    165 H165        1.5731  -14.5153  -39.7730 H         1 UNK         0.0600 
    166 H166        3.5375  -12.9910  -39.7635 H         1 UNK         0.0600 
    167 H167        4.0483  -14.6420  -39.4535 H         1 UNK         0.0600 
    168 H168        4.3045  -13.9326  -41.0433 H         1 UNK         0.0600 
    169 H169        2.3122  -12.9009  -42.0356 H         1 UNK         0.3000 
    170 H170       -0.7261  -13.0543  -43.7862 H         1 UNK         0.0600 
    171 H171        0.2260  -10.7259  -42.0392 H         1 UNK         0.0600 
    172 H172       -0.8653  -10.6139  -43.4215 H         1 UNK         0.0600 
    173 H173       -1.3710  -11.4621  -41.9698 H         1 UNK         0.0600 
    174 H174        1.4237  -11.2982  -44.1635 H         1 UNK         0.3000 
    175 H175        2.6112  -11.9190  -46.3606 H         1 UNK         0.0600 
    176 H176        4.5156  -12.7297  -44.0689 H         1 UNK         0.0600 
    177 H177        4.9432  -11.6591  -45.4001 H         1 UNK         0.0600 
    178 H178        3.7364  -11.1597  -44.2336 H         1 UNK         0.0600 
    179 H179        3.3013  -14.6779  -46.0114 H         1 UNK         0.3000 
    180 H180        5.0989  -14.8883  -49.1140 H         1 UNK         0.0600 
    181 H181        6.3354  -16.5604  -47.7551 H         1 UNK         0.0600 
    182 H182        5.6270  -15.9338  -46.2690 H         1 UNK         0.0600 
    183 H183        6.7540  -14.9519  -47.1971 H         1 UNK         0.0600 
    184 H184        2.7839  -15.6603  -47.6830 H         1 UNK         0.3000 
    185 H185        2.0824  -18.3487  -49.7456 H         1 UNK         0.0600 
    186 H186        1.4960  -19.7660  -47.8840 H         1 UNK         0.0600 
    187 H187        3.2420  -19.6641  -47.9094 H         1 UNK         0.0600 
    188 H188        2.3327  -18.7353  -46.7264 H         1 UNK         0.0600 
    189 H189        0.7776  -17.0955  -47.4580 H         1 UNK         0.3000 
    190 H190       -2.4296  -21.4905  -44.8556 H         1 UNK         0.3000 
    191 H191       -4.6610  -22.7287  -46.0662 H         1 UNK         0.0600 
    192 H192       -3.5979  -22.9312  -43.1988 H         1 UNK         0.0600 
    193 H193       -5.2128  -23.3995  -43.7188 H         1 UNK         0.0600 
    194 H194       -4.7184  -21.7158  -43.8097 H         1 UNK         0.0600 
    195 H195       -1.6262  -24.1447  -44.8318 H         1 UNK         0.3000 
    196 H196       -2.4222  -26.8933  -45.1482 H         1 UNK         0.0600 
    197 H197       -0.5975  -26.2039  -43.6151 H         1 UNK         0.0600 
    198 H198        0.3660  -25.6345  -44.9752 H         1 UNK         0.0600 
    199 H199       -0.0022  -27.3460  -44.8111 H         1 UNK         0.0600 
    200 H200       -0.6338  -24.5799  -47.2233 H         1 UNK         0.3000 
    201 H201       -0.0751  -26.3840  -49.3595 H         1 UNK         0.0600 
    202 H202        1.1695  -24.2632  -48.9287 H         1 UNK         0.0600 
    203 H203       -0.2567  -23.3220  -49.3523 H         1 UNK         0.0600 
    204 H204        0.5513  -24.3086  -50.5651 H         1 UNK         0.0600 
    205 H205       -2.6159  -23.9044  -48.9418 H         1 UNK         0.3000 
    206 H206       -4.6276  -23.5674  -49.6923 H         1 UNK         0.0600 
    207 H207       -4.9519  -25.8911  -48.7234 H         1 UNK         0.0600 
    208 H208       -6.1261  -25.4992  -49.9598 H         1 UNK         0.0600 
    209 H209       -4.7757  -26.5635  -50.3401 H         1 UNK         0.0600 
    210 H210       -6.2795  -24.4549  -51.6634 H         1 UNK         0.3000 
    211 H211       -5.4402  -23.0068  -53.9320 H         1 UNK         0.0600 
    212 H212       -7.5958  -23.8306  -54.9004 H         1 UNK         0.0600 
    213 H213       -7.8121  -23.2582  -53.2548 H         1 UNK         0.0600 
    214 H214       -7.7544  -24.9904  -53.5866 H         1 UNK         0.0600 
    215 H215       -4.9684  -26.3726  -53.1457 H         1 UNK         0.3000 
    216 H216       -4.4805  -27.4546  -55.7395 H         1 UNK         0.0600 
    217 H217       -3.3897  -28.2567  -52.9857 H         1 UNK         0.0600 
    218 H218       -4.8722  -28.8598  -53.7288 H         1 UNK         0.0600 
    219 H219       -3.3129  -29.2474  -54.4384 H         1 UNK         0.0600 
    220 H220       -2.4918  -25.5068  -53.5523 H         1 UNK         0.3000 
    221 H221       -0.1036  -25.6902  -55.3265 H         1 UNK         0.0600 
    222 H222       -0.4993  -24.4244  -52.5713 H         1 UNK         0.0600 
    223 H223        0.1746  -26.0325  -52.8398 H         1 UNK         0.0600 
    224 H224        1.0353  -24.6110  -53.4140 H         1 UNK         0.0600 
    225 H225       -2.9097  -24.0213  -55.3120 H         1 UNK         0.3000 
    226 H226       -3.7453  -22.0919  -55.9330 H         1 UNK         0.0600 
    227 H227       -2.3303  -22.4179  -57.9781 H         1 UNK         0.0600 
    228 H228       -2.6151  -20.7227  -57.6238 H         1 UNK         0.0600 
    229 H229       -1.0570  -21.4415  -57.2462 H         1 UNK         0.0600 
    230 H230       -2.5434  -22.2790  -53.2844 H         1 UNK         0.3000 
    231 H231       -1.4827  -19.6252  -52.6402 H         1 UNK         0.0600 
    232 H232       -1.1845  -20.5407  -50.4517 H         1 UNK         0.0600 
    233 H233       -0.8178  -21.8752  -51.5189 H         1 UNK         0.0600 
    234 H234       -2.3743  -21.8129  -50.6977 H         1 UNK         0.0600 
    235 H235       -2.7276  -17.9174  -51.8284 H         1 UNK         0.3000 
    236 H236       -5.4481  -18.1792  -50.9411 H         1 UNK         0.0600 
    237 H237       -4.8931  -16.9435  -53.7090 H         1 UNK         0.0600 
    238 H238       -5.8136  -18.4171  -53.4222 H         1 UNK         0.0600 
    239 H239       -6.4359  -16.8785  -52.8643 H         1 UNK         0.0600 
    240 H240       -6.3968  -15.8652  -50.7895 H         1 UNK         0.3000 
    241 H241       -4.7171  -14.4142  -49.0781 H         1 UNK         0.0600 
    242 H242       -4.0376  -12.4462  -52.5502 H         1 UNK         0.3800 
    243 H243       -4.7793  -14.0241  -52.5369 H         1 UNK         0.3800 
    244 H244       -6.5900  -12.9394  -48.6879 H         1 UNK         0.0800 
    245 H245       -7.2997  -13.2861  -50.2385 H         1 UNK         0.0800 
    246 H246       -7.9605  -15.6616  -46.3792 H         1 UNK         0.0800 
    247 H247       -7.3559  -14.0298  -46.5388 H         1 UNK         0.0800 
@<TRIPOS>BOND
     1    1    2 1    
     2    1  127 1    
     3    1  128 1    
     4    1  129 1    
     5    2    3 2    
     6    2    4 am   BACKBONE|DICT|INTERRES
     7    4    5 1    
     8    4  130 1    
     9    5    6 1    
    10    5   65 1    
    11    5  131 1    
    12    6    7 1    
    13    6  132 1    
    14    6  133 1    
    15    7    8 1    
    16    8    9 1    
    17    8  134 1    
    18    8  135 1    
    19    9   10 ar   
    20    9   14 ar   
    21   10   11 ar   
    22   10  136 1    
    23   11   12 ar   
    24   11  126 1    
    25   12   13 ar   
    26   12  137 1    
    27   13   14 ar   
    28   13   15 1    
    29   14  138 1    
    30   15   16 1    
    31   15  139 1    
    32   15  140 1    
    33   16   17 1    
    34   17   18 1    
    35   17  141 1    
    36   17  142 1    
    37   18   19 1    
    38   18   67 1    
    39   18  143 1    
    40   19   20 am   BACKBONE|DICT|INTERRES
    41   19  144 1    
    42   20   21 2    
    43   20   22 1    
    44   22   23 1    
    45   22   24 1    
    46   22  145 1    
    47   23  146 1    
    48   23  147 1    
    49   23  148 1    
    50   24   25 am   BACKBONE|DICT|INTERRES
    51   24  149 1    
    52   25   26 2    
    53   25   27 1    
    54   27   28 1    
    55   27   29 1    
    56   27  150 1    
    57   28  151 1    
    58   28  152 1    
    59   28  153 1    
    60   29   30 am   BACKBONE|DICT|INTERRES
    61   29  154 1    
    62   30   31 2    
    63   30   32 1    
    64   32   33 1    
    65   32   34 1    
    66   32  155 1    
    67   33  156 1    
    68   33  157 1    
    69   33  158 1    
    70   34   35 am   BACKBONE|DICT|INTERRES
    71   34  159 1    
    72   35   36 2    
    73   35   37 1    
    74   37   38 1    
    75   37   39 1    
    76   37  160 1    
    77   38  161 1    
    78   38  162 1    
    79   38  163 1    
    80   39   40 am   BACKBONE|DICT|INTERRES
    81   39  164 1    
    82   40   41 2    
    83   40   42 1    
    84   42   43 1    
    85   42   44 1    
    86   42  165 1    
    87   43  166 1    
    88   43  167 1    
    89   43  168 1    
    90   44   45 am   BACKBONE|DICT|INTERRES
    91   44  169 1    
    92   45   46 2    
    93   45   47 1    
    94   47   48 1    
    95   47   49 1    
    96   47  170 1    
    97   48  171 1    
    98   48  172 1    
    99   48  173 1    
   100   49   50 am   BACKBONE|DICT|INTERRES
   101   49  174 1    
   102   50   51 2    
   103   50   52 1    
   104   52   53 1    
   105   52   54 1    
   106   52  175 1    
   107   53  176 1    
   108   53  177 1    
   109   53  178 1    
   110   54   55 am   BACKBONE|DICT|INTERRES
   111   54  179 1    
   112   55   56 2    
   113   55   57 1    
   114   57   58 1    
   115   57   59 1    
   116   57  180 1    
   117   58  181 1    
   118   58  182 1    
   119   58  183 1    
   120   59   60 am   BACKBONE|DICT|INTERRES
   121   59  184 1    
   122   60   61 2    
   123   60   62 1    
   124   62   63 1    
   125   62   64 1    
   126   62  185 1    
   127   63  186 1    
   128   63  187 1    
   129   63  188 1    
   130   64   65 am   BACKBONE|DICT|INTERRES
   131   64  189 1    
   132   65   66 2    
   133   67   68 2    
   134   67   69 am   BACKBONE|DICT|INTERRES
   135   69   70 1    
   136   69  190 1    
   137   70   71 1    
   138   70   72 1    
   139   70  191 1    
   140   71  192 1    
   141   71  193 1    
   142   71  194 1    
   143   72   73 2    
   144   72   74 am   BACKBONE|DICT|INTERRES
   145   74   75 1    
   146   74  195 1    
   147   75   76 1    
   148   75   77 1    
   149   75  196 1    
   150   76  197 1    
   151   76  198 1    
   152   76  199 1    
   153   77   78 2    
   154   77   79 am   BACKBONE|DICT|INTERRES
   155   79   80 1    
   156   79  200 1    
   157   80   81 1    
   158   80   82 1    
   159   80  201 1    
   160   81  202 1    
   161   81  203 1    
   162   81  204 1    
   163   82   83 2    
   164   82   84 am   BACKBONE|DICT|INTERRES
   165   84   85 1    
   166   84  205 1    
   167   85   86 1    
   168   85   87 1    
   169   85  206 1    
   170   86  207 1    
   171   86  208 1    
   172   86  209 1    
   173   87   88 2    
   174   87   89 am   BACKBONE|DICT|INTERRES
   175   89   90 1    
   176   89  210 1    
   177   90   91 1    
   178   90   92 1    
   179   90  211 1    
   180   91  212 1    
   181   91  213 1    
   182   91  214 1    
   183   92   93 2    
   184   92   94 am   BACKBONE|DICT|INTERRES
   185   94   95 1    
   186   94  215 1    
   187   95   96 1    
   188   95   97 1    
   189   95  216 1    
   190   96  217 1    
   191   96  218 1    
   192   96  219 1    
   193   97   98 2    
   194   97   99 am   BACKBONE|DICT|INTERRES
   195   99  100 1    
   196   99  220 1    
   197  100  101 1    
   198  100  102 1    
   199  100  221 1    
   200  101  222 1    
   201  101  223 1    
   202  101  224 1    
   203  102  103 2    
   204  102  104 am   BACKBONE|DICT|INTERRES
   205  104  105 1    
   206  104  225 1    
   207  105  106 1    
   208  105  107 1    
   209  105  226 1    
   210  106  227 1    
   211  106  228 1    
   212  106  229 1    
   213  107  108 2    
   214  107  109 am   BACKBONE|DICT|INTERRES
   215  109  110 1    
   216  109  230 1    
   217  110  111 1    
   218  110  112 1    
   219  110  231 1    
   220  111  232 1    
   221  111  233 1    
   222  111  234 1    
   223  112  113 2    
   224  112  114 am   BACKBONE|DICT|INTERRES
   225  114  115 1    
   226  114  235 1    
   227  115  116 1    
   228  115  117 1    
   229  115  236 1    
   230  116  237 1    
   231  116  238 1    
   232  116  239 1    
   233  117  118 2    
   234  117  119 am   BACKBONE|DICT|INTERRES
   235  119  120 1    
   236  119  240 1    
   237  120  121 1    
   238  120  124 1    
   239  120  241 1    
   240  121  122 am   BACKBONE|DICT|INTERRES
   241  121  123 2    
   242  122  242 1    
   243  122  243 1    
   244  124  125 1    
   245  124  244 1    
   246  124  245 1    
   247  125  126 1    
   248  126  246 1    
   249  126  247 1    
@<TRIPOS>SUBSTRUCTURE
     1 UNK         1 GROUP             0       ****    0 ROOT    
