@<TRIPOS>MOLECULE
3R540
247   249    1
SMALL
USER_CHARGES


@<TRIPOS>ATOM
      1 CA          4.5675  -17.4174  -48.0207 C.3       0 UNK        -0.1800 
      2 C           3.8485  -16.3577  -47.2001 C.2       0 UNK         0.5000 
      3 O           3.8035  -16.4554  -45.9746 O.2       0 UNK        -0.5000 
      4 N           3.2914  -15.3404  -47.8676 N.am      1 UNK        -0.5000 
      5 CA          2.5694  -14.2230  -47.2511 C.3       1 UNK         0.1400 
      6 C6          1.5723  -13.5571  -48.2319 C.3       23 UNK        -0.0398 
      7 S7          0.1693  -14.6618  -48.5897 S.3       23 UNK        -0.2404 
      8 C8          0.5645  -15.2613  -50.2586 C.3       23 UNK        -0.0205 
      9 C9         -0.0026  -16.6553  -50.4623 C.ar      23 UNK        -0.0193 
     10 C10        -1.3763  -16.8375  -50.6406 C.ar      23 UNK        -0.1150 
     11 C11        -1.9089  -18.1197  -50.7966 C.ar      23 UNK        -0.0193 
     12 C12        -1.0536  -19.2261  -50.7704 C.ar      23 UNK        -0.1150 
     13 C13         0.3240  -19.0573  -50.5914 C.ar      23 UNK        -0.0193 
     14 C14         0.8430  -17.7669  -50.4485 C.ar      23 UNK        -0.1150 
     15 C15         1.2435  -20.2733  -50.5702 C.3       23 UNK        -0.0205 
     16 S16         2.4538  -20.2839  -49.1992 S.3       23 UNK        -0.2404 
     17 C17         1.4297  -20.0285  -47.7074 C.3       23 UNK        -0.0398 
     18 CA          0.8737  -21.3482  -47.1176 C.3       11 UNK         0.1400 
     19 N           0.6654  -21.2741  -45.6688 N.am      11 UNK        -0.5000 
     20 C           0.3033  -22.3097  -44.8963 C.2       10 UNK         0.5000 
     21 O           0.1650  -23.4601  -45.3115 O.2       10 UNK        -0.5000 
     22 CA         -0.0111  -22.0044  -43.4221 C.3       10 UNK         0.1400 
     23 CB          1.2792  -21.9258  -42.5932 C.3       10 UNK        -0.1800 
     24 N          -0.7925  -20.7778  -43.2557 N.am      10 UNK        -0.5000 
     25 C          -2.0320  -20.6000  -43.7367 C.2       9 UNK         0.5000 
     26 O          -2.6640  -21.4718  -44.3323 O.2       9 UNK        -0.5000 
     27 CA         -2.6573  -19.2041  -43.5673 C.3       9 UNK         0.1400 
     28 CB         -3.2064  -19.0187  -42.1454 C.3       9 UNK        -0.1800 
     29 N          -1.7233  -18.1230  -43.8784 N.am      9 UNK        -0.5000 
     30 C          -1.1556  -17.9210  -45.0769 C.2       8 UNK         0.5000 
     31 O          -1.3803  -18.6116  -46.0714 O.2       8 UNK        -0.5000 
     32 CA         -0.1166  -16.7882  -45.1538 C.3       8 UNK         0.1400 
     33 CB         -0.8085  -15.4166  -45.2058 C.3       8 UNK        -0.1800 
     34 N           0.8146  -16.8259  -44.0254 N.am      8 UNK        -0.5000 
     35 C           1.6576  -17.8374  -43.7680 C.2       7 UNK         0.5000 
     36 O           1.7685  -18.8382  -44.4764 O.2       7 UNK        -0.5000 
     37 CA          2.4587  -17.7427  -42.4585 C.3       7 UNK         0.1400 
     38 CB          3.6721  -16.8161  -42.6191 C.3       7 UNK        -0.1800 
     39 N           1.6249  -17.2770  -41.3494 N.am      7 UNK        -0.5000 
     40 C           0.6529  -18.0113  -40.7862 C.2       6 UNK         0.5000 
     41 O           0.3841  -19.1610  -41.1299 O.2       6 UNK        -0.5000 
     42 CA         -0.1886  -17.3460  -39.6804 C.3       6 UNK         0.1400 
     43 CB          0.4564  -17.5728  -38.3052 C.3       6 UNK        -0.1800 
     44 N          -0.3834  -15.9123  -39.8886 N.am      6 UNK        -0.5000 
     45 C          -1.0069  -15.3643  -40.9410 C.2       5 UNK         0.5000 
     46 O          -1.5535  -16.0219  -41.8266 O.2       5 UNK        -0.5000 
     47 CA         -0.9692  -13.8266  -41.0454 C.3       5 UNK         0.1400 
     48 CB         -2.2715  -13.2198  -40.5034 C.3       5 UNK        -0.1800 
     49 N           0.1732  -13.2157  -40.3537 N.am      5 UNK        -0.5000 
     50 C           1.4571  -13.4196  -40.6771 C.2       4 UNK         0.5000 
     51 O           1.8216  -14.1652  -41.5890 O.2       4 UNK        -0.5000 
     52 CA          2.5127  -12.7147  -39.8102 C.3       4 UNK         0.1400 
     53 CB          3.4112  -13.7450  -39.1067 C.3       4 UNK        -0.1800 
     54 N           3.3379  -11.8504  -40.6462 N.am      4 UNK        -0.5000 
     55 C           2.9839  -10.6247  -41.0551 C.2       3 UNK         0.5000 
     56 O           1.9781  -10.0354  -40.6567 O.2       3 UNK        -0.5000 
     57 CA          3.8976   -9.9487  -42.0994 C.3       3 UNK         0.1400 
     58 CB          4.9347   -9.0510  -41.4072 C.3       3 UNK        -0.1800 
     59 N           4.5929  -10.9005  -42.9734 N.am      3 UNK        -0.5000 
     60 C           3.9815  -11.7280  -43.8324 C.2       2 UNK         0.5000 
     61 O           2.7597  -11.7370  -44.0055 O.2       2 UNK        -0.5000 
     62 CA          4.8925  -12.7167  -44.5938 C.3       2 UNK         0.1400 
     63 CB          5.6813  -13.6089  -43.6180 C.3       2 UNK        -0.1800 
     64 N           4.1215  -13.5825  -45.4835 N.am      2 UNK        -0.5000 
     65 C           3.5543  -13.2090  -46.6356 C.2       1 UNK         0.5000 
     66 O           3.7825  -12.1357  -47.1980 O.2       1 UNK        -0.5000 
     67 C          -0.4113  -21.7850  -47.8452 C.2       11 UNK         0.5000 
     68 O          -0.3722  -22.7366  -48.6244 O.2       11 UNK        -0.5000 
     69 N          -1.5331  -21.1150  -47.5441 N.am      12 UNK        -0.5000 
     70 CA         -2.8502  -21.4217  -48.0987 C.3       12 UNK         0.1400 
     71 CB         -3.8662  -20.3668  -47.6399 C.3       12 UNK        -0.1800 
     72 C          -3.3312  -22.8439  -47.7610 C.2       12 UNK         0.5000 
     73 O          -3.8683  -23.5163  -48.6396 O.2       12 UNK        -0.5000 
     74 N          -3.0968  -23.2965  -46.5229 N.am      13 UNK        -0.5000 
     75 CA         -3.3919  -24.6582  -46.0788 C.3       13 UNK         0.1400 
     76 CB         -3.2045  -24.7583  -44.5572 C.3       13 UNK        -0.1800 
     77 C          -2.5451  -25.7180  -46.8085 C.2       13 UNK         0.5000 
     78 O          -3.0947  -26.7192  -47.2691 O.2       13 UNK        -0.5000 
     79 N          -1.2317  -25.4739  -46.9146 N.am      14 UNK        -0.5000 
     80 CA         -0.2705  -26.3742  -47.5524 C.3       14 UNK         0.1400 
     81 CB          1.1574  -25.9202  -47.2123 C.3       14 UNK        -0.1800 
     82 C          -0.4514  -26.4791  -49.0770 C.2       14 UNK         0.5000 
     83 O          -0.3884  -27.5821  -49.6212 O.2       14 UNK        -0.5000 
     84 N          -0.6677  -25.3349  -49.7375 N.am      15 UNK        -0.5000 
     85 CA         -0.7603  -25.2221  -51.1941 C.3       15 UNK         0.1400 
     86 CB         -0.1895  -23.8589  -51.6178 C.3       15 UNK        -0.1800 
     87 C          -2.1890  -25.4109  -51.7401 C.2       15 UNK         0.5000 
     88 O          -2.3834  -25.2574  -52.9465 O.2       15 UNK        -0.5000 
     89 N          -3.1648  -25.7000  -50.8649 N.am      16 UNK        -0.5000 
     90 CA         -4.5933  -25.8755  -51.1613 C.3       16 UNK         0.1400 
     91 CB         -4.8252  -27.1541  -51.9929 C.3       16 UNK        -0.1800 
     92 C          -5.1987  -24.6155  -51.8130 C.2       16 UNK         0.5000 
     93 O          -5.7325  -24.6711  -52.9232 O.2       16 UNK        -0.5000 
     94 N          -5.0287  -23.4819  -51.1193 N.am      17 UNK        -0.5000 
     95 CA         -5.3767  -22.1210  -51.5344 C.3       17 UNK         0.1400 
     96 CB         -6.9090  -21.9485  -51.5973 C.3       17 UNK        -0.1800 
     97 C          -4.6512  -21.7020  -52.8298 C.2       17 UNK         0.5000 
     98 O          -5.2510  -21.0522  -53.6842 O.2       17 UNK        -0.5000 
     99 N          -3.3802  -22.1174  -52.9533 N.am      18 UNK        -0.5000 
    100 CA        -2.5089  -21.9718  -54.1263 C.3       18 UNK         0.1400 
    101 CB        -2.1341  -20.4932  -54.3517 C.3       18 UNK        -0.1800 
    102 C         -3.1160  -22.6408  -55.3759 C.2       18 UNK         0.5000 
    103 O         -3.2449  -22.0036  -56.4207 O.2       18 UNK        -0.5000 
    104 N         -3.5327  -23.9061  -55.2200 N.am      19 UNK        -0.5000 
    105 CA        -4.3042  -24.7017  -56.1828 C.3       19 UNK         0.1400 
    106 CB        -3.4316  -25.0886  -57.3946 C.3       19 UNK        -0.1800 
    107 C         -5.6257  -24.0050  -56.5784 C.2       19 UNK         0.5000 
    108 O         -5.9502  -23.8990  -57.7623 O.2       19 UNK        -0.5000 
    109 N         -6.3349  -23.5084  -55.5558 N.am      20 UNK        -0.5000 
    110 CA        -7.5801  -22.7349  -55.5943 C.3       20 UNK         0.1400 
    111 CB        -8.7176  -23.5480  -56.2458 C.3       20 UNK        -0.1800 
    112 C         -7.4694  -21.3130  -56.1909 C.2       20 UNK         0.5000 
    113 O         -8.4934  -20.6321  -56.2775 O.2       20 UNK        -0.5000 
    114 N         -6.2632  -20.8488  -56.5545 N.am      21 UNK        -0.5000 
    115 CA        -6.0264  -19.5108  -57.1102 C.3       21 UNK         0.1400 
    116 CB        -4.5901  -19.4083  -57.6416 C.3       21 UNK        -0.1800 
    117 C         -6.3168  -18.3634  -56.1221 C.2       21 UNK         0.5000 
    118 O         -6.6957  -17.2766  -56.5618 O.2       21 UNK        -0.5000 
    119 N         -6.1683  -18.6239  -54.8168 N.am      22 UNK        -0.5000 
    120 CA        -6.5644  -17.7100  -53.7327 C.3       22 UNK         0.1400 
    121 C         -8.0986  -17.6919  -53.4517 C.2       22 UNK         0.5000 
    122 N         -8.9194  -18.5117  -54.1002 N.am      22 UNK        -0.7600 
    123 O         -8.5604  -16.9053  -52.6295 O.2       22 UNK        -0.5000 
    124 C124       -5.7684  -17.9660  -52.4252 C.3       23 UNK        -0.0398 
    125 S125       -3.9644  -17.7923  -52.6243 S.3       23 UNK        -0.2404 
    126 C126       -3.4097  -18.2993  -50.9672 C.3       23 UNK        -0.0205 
    127 H127        4.2677  -17.3885  -49.0685 H         1 UNK         0.0600 
    128 H128        4.3417  -18.4100  -47.6317 H         1 UNK         0.0600 
    129 H129        5.6454  -17.2673  -47.9648 H         1 UNK         0.0600 
    130 H130        3.3957  -15.2932  -48.8700 H         1 UNK         0.3000 
    131 H131        1.9831  -14.6181  -46.4189 H         1 UNK         0.0600 
    132 H132        1.1533  -12.6498  -47.7928 H         1 UNK         0.0800 
    133 H133        2.0661  -13.2475  -49.1545 H         1 UNK         0.0800 
    134 H134        0.1504  -14.5763  -50.9997 H         1 UNK         0.0800 
    135 H135        1.6442  -15.2696  -50.4113 H         1 UNK         0.0800 
    136 H136       -2.0338  -15.9794  -50.6477 H         1 UNK         0.1150 
    137 H137       -1.4604  -20.2198  -50.8906 H         1 UNK         0.1150 
    138 H138        1.9061  -17.6307  -50.3101 H         1 UNK         0.1150 
    139 H139        0.6620  -21.1933  -50.5304 H         1 UNK         0.0800 
    140 H140        1.7906  -20.3063  -51.5130 H         1 UNK         0.0800 
    141 H141        0.6444  -19.2934  -47.8911 H         1 UNK         0.0800 
    142 H142        2.0918  -19.5573  -46.9807 H         1 UNK         0.0800 
    143 H143        1.6180  -22.1323  -47.2729 H         1 UNK         0.0600 
    144 H144        0.8007  -20.3654  -45.2348 H         1 UNK         0.3000 
    145 H145       -0.6091  -22.8318  -43.0348 H         1 UNK         0.0600 
    146 H146        1.0585  -21.8153  -41.5316 H         1 UNK         0.0600 
    147 H147        1.8733  -22.8333  -42.7080 H         1 UNK         0.0600 
    148 H148        1.9028  -21.0842  -42.8950 H         1 UNK         0.0600 
    149 H149       -0.3539  -20.0304  -42.7263 H         1 UNK         0.3000 
    150 H150       -3.4927  -19.1280  -44.2663 H         1 UNK         0.0600 
    151 H151       -3.7001  -18.0529  -42.0357 H         1 UNK         0.0600 
    152 H152       -3.9405  -19.7895  -41.9073 H         1 UNK         0.0600 
    153 H153       -2.4156  -19.0765  -41.3977 H         1 UNK         0.0600 
    154 H154       -1.5086  -17.4764  -43.1246 H         1 UNK         0.3000 
    155 H155        0.4612  -16.9189  -46.0716 H         1 UNK         0.0600 
    156 H156       -1.4196  -15.2321  -44.3230 H         1 UNK         0.0600 
    157 H157       -1.4663  -15.3494  -46.0731 H         1 UNK         0.0600 
    158 H158       -0.0849  -14.6059  -45.2824 H         1 UNK         0.0600 
    159 H159        0.7719  -16.0589  -43.3701 H         1 UNK         0.3000 
    160 H160        2.8267  -18.7413  -42.2132 H         1 UNK         0.0600 
    161 H161        3.3752  -15.8214  -42.9510 H         1 UNK         0.0600 
    162 H162        4.3650  -17.2124  -43.3623 H         1 UNK         0.0600 
    163 H163        4.2216  -16.7109  -41.6837 H         1 UNK         0.0600 
    164 H164        1.7483  -16.3139  -41.0635 H         1 UNK         0.3000 
    165 H165       -1.1720  -17.8200  -39.6802 H         1 UNK         0.0600 
    166 H166       -0.1699  -17.1774  -37.5053 H         1 UNK         0.0600 
    167 H167        0.5961  -18.6371  -38.1108 H         1 UNK         0.0600 
    168 H168        1.4344  -17.0948  -38.2349 H         1 UNK         0.0600 
    169 H169        0.0288  -15.2942  -39.2061 H         1 UNK         0.3000 
    170 H170       -0.8895  -13.5763  -42.1054 H         1 UNK         0.0600 
    171 H171       -3.1395  -13.6360  -41.0167 H         1 UNK         0.0600 
    172 H172       -2.3946  -13.4166  -39.4377 H         1 UNK         0.0600 
    173 H173       -2.2956  -12.1400  -40.6517 H         1 UNK         0.0600 
    174 H174       -0.0467  -12.5851  -39.5959 H         1 UNK         0.3000 
    175 H175        2.0169  -12.1148  -39.0440 H         1 UNK         0.0600 
    176 H176        3.9500  -14.3693  -39.8212 H         1 UNK         0.0600 
    177 H177        4.1477  -13.2545  -38.4701 H         1 UNK         0.0600 
    178 H178        2.8223  -14.4075  -38.4711 H         1 UNK         0.0600 
    179 H179        4.1563  -12.2724  -41.0580 H         1 UNK         0.3000 
    180 H180        3.2651   -9.3176  -42.7273 H         1 UNK         0.0600 
    181 H181        5.6147   -9.6301  -40.7811 H         1 UNK         0.0600 
    182 H182        4.4479   -8.3133  -40.7678 H         1 UNK         0.0600 
    183 H183        5.5321   -8.5029  -42.1360 H         1 UNK         0.0600 
    184 H184        5.5983  -10.9369  -42.8869 H         1 UNK         0.3000 
    185 H185        5.5983  -12.1389  -45.1939 H         1 UNK         0.0600 
    186 H186        6.3987  -13.0275  -43.0384 H         1 UNK         0.0600 
    187 H187        5.0220  -14.1130  -42.9110 H         1 UNK         0.0600 
    188 H188        6.2477  -14.3736  -44.1503 H         1 UNK         0.0600 
    189 H189        3.9165  -14.5155  -45.1450 H         1 UNK         0.3000 
    190 H190       -1.4811  -20.3269  -46.9028 H         1 UNK         0.3000 
    191 H191       -2.7680  -21.3582  -49.1850 H         1 UNK         0.0600 
    192 H192       -3.5604  -19.3668  -47.9485 H         1 UNK         0.0600 
    193 H193       -4.8497  -20.5560  -48.0716 H         1 UNK         0.0600 
    194 H194       -3.9769  -20.3611  -46.5552 H         1 UNK         0.0600 
    195 H195       -2.7027  -22.6632  -45.8322 H         1 UNK         0.3000 
    196 H196       -4.4414  -24.8615  -46.3022 H         1 UNK         0.0600 
    197 H197       -3.4322  -25.7634  -44.2002 H         1 UNK         0.0600 
    198 H198       -3.8669  -24.0689  -44.0335 H         1 UNK         0.0600 
    199 H199       -2.1813  -24.5272  -44.2602 H         1 UNK         0.0600 
    200 H200       -0.8495  -24.6345  -46.4871 H         1 UNK         0.3000 
    201 H201       -0.4153  -27.3718  -47.1325 H         1 UNK         0.0600 
    202 H202        1.3293  -25.9364  -46.1359 H         1 UNK         0.0600 
    203 H203        1.3517  -24.9066  -47.5658 H         1 UNK         0.0600 
    204 H204        1.8980  -26.5771  -47.6700 H         1 UNK         0.0600 
    205 H205       -0.6760  -24.4585  -49.2180 H         1 UNK         0.3000 
    206 H206       -0.1395  -25.9949  -51.6519 H         1 UNK         0.0600 
    207 H207        0.7965  -23.6918  -51.1836 H         1 UNK         0.0600 
    208 H208       -0.0735  -23.8045  -52.7002 H         1 UNK         0.0600 
    209 H209       -0.8355  -23.0369  -51.3079 H         1 UNK         0.0600 
    210 H210       -2.9096  -25.7598  -49.8883 H         1 UNK         0.3000 
    211 H211       -5.0979  -26.0056  -50.2027 H         1 UNK         0.0600 
    212 H212       -4.3701  -27.0873  -52.9816 H         1 UNK         0.0600 
    213 H213       -5.8909  -27.3356  -52.1370 H         1 UNK         0.0600 
    214 H214       -4.4110  -28.0290  -51.4922 H         1 UNK         0.0600 
    215 H215       -4.5742  -23.5551  -50.2075 H         1 UNK         0.3000 
    216 H216       -5.0054  -21.4556  -50.7545 H         1 UNK         0.0600 
    217 H217       -7.1914  -20.9362  -51.8852 H         1 UNK         0.0600 
    218 H218       -7.3608  -22.1433  -50.6248 H         1 UNK         0.0600 
    219 H219       -7.3658  -22.6295  -52.3133 H         1 UNK         0.0600 
    220 H220       -3.0133  -22.6943  -52.2119 H         1 UNK         0.3000 
    221 H221       -1.5890  -22.5128  -53.9083 H         1 UNK         0.0600 
    222 H222       -3.0051  -19.8879  -54.6019 H         1 UNK         0.0600 
    223 H223       -1.6729  -20.0622  -53.4643 H         1 UNK         0.0600 
    224 H224       -1.4205  -20.3911  -55.1698 H         1 UNK         0.0600 
    225 H225       -3.3461  -24.3611  -54.3292 H         1 UNK         0.3000 
    226 H226       -4.5831  -25.6216  -55.6667 H         1 UNK         0.0600 
    227 H227       -2.5198  -25.5941  -57.0767 H         1 UNK         0.0600 
    228 H228       -3.9660  -25.7697  -58.0577 H         1 UNK         0.0600 
    229 H229       -3.1442  -24.2173  -57.9837 H         1 UNK         0.0600 
    230 H230       -5.9783  -23.6897  -54.6211 H         1 UNK         0.3000 
    231 H231       -7.8550  -22.5841  -54.5512 H         1 UNK         0.0600 
    232 H232       -8.5611  -23.6813  -57.3164 H         1 UNK         0.0600 
    233 H233       -9.6785  -23.0479  -56.1193 H         1 UNK         0.0600 
    234 H234       -8.8066  -24.5352  -55.7924 H         1 UNK         0.0600 
    235 H235       -5.4483  -21.4328  -56.4118 H         1 UNK         0.3000 
    236 H236       -6.7035  -19.3881  -57.9580 H         1 UNK         0.0600 
    237 H237       -4.3695  -20.2086  -58.3481 H         1 UNK         0.0600 
    238 H238       -4.4345  -18.4622  -58.1612 H         1 UNK         0.0600 
    239 H239       -3.8599  -19.4587  -56.8341 H         1 UNK         0.0600 
    240 H240       -5.8374  -19.5429  -54.5271 H         1 UNK         0.3000 
    241 H241       -6.3203  -16.6959  -54.0544 H         1 UNK         0.0600 
    242 H242       -9.9068  -18.4733  -53.9030 H         1 UNK         0.3800 
    243 H243       -8.5789  -19.1517  -54.8073 H         1 UNK         0.3800 
    244 H244       -6.0771  -17.2636  -51.6489 H         1 UNK         0.0800 
    245 H245       -5.9843  -18.9608  -52.0381 H         1 UNK         0.0800 
    246 H246       -3.6917  -19.3382  -50.7956 H         1 UNK         0.0800 
    247 H247       -3.9292  -17.7077  -50.2118 H         1 UNK         0.0800 
@<TRIPOS>BOND
     1    1    2 1    
     2    1  127 1    
     3    1  128 1    
     4    1  129 1    
     5    2    3 2    
     6    2    4 am   BACKBONE|DICT|INTERRES
     7    4    5 1    
     8    4  130 1    
     9    5    6 1    
    10    5   65 1    
    11    5  131 1    
    12    6    7 1    
    13    6  132 1    
    14    6  133 1    
    15    7    8 1    
    16    8    9 1    
    17    8  134 1    
    18    8  135 1    
    19    9   10 ar   
    20    9   14 ar   
    21   10   11 ar   
    22   10  136 1    
    23   11   12 ar   
    24   11  126 1    
    25   12   13 ar   
    26   12  137 1    
    27   13   14 ar   
    28   13   15 1    
    29   14  138 1    
    30   15   16 1    
    31   15  139 1    
    32   15  140 1    
    33   16   17 1    
    34   17   18 1    
    35   17  141 1    
    36   17  142 1    
    37   18   19 1    
    38   18   67 1    
    39   18  143 1    
    40   19   20 am   BACKBONE|DICT|INTERRES
    41   19  144 1    
    42   20   21 2    
    43   20   22 1    
    44   22   23 1    
    45   22   24 1    
    46   22  145 1    
    47   23  146 1    
    48   23  147 1    
    49   23  148 1    
    50   24   25 am   BACKBONE|DICT|INTERRES
    51   24  149 1    
    52   25   26 2    
    53   25   27 1    
    54   27   28 1    
    55   27   29 1    
    56   27  150 1    
    57   28  151 1    
    58   28  152 1    
    59   28  153 1    
    60   29   30 am   BACKBONE|DICT|INTERRES
    61   29  154 1    
    62   30   31 2    
    63   30   32 1    
    64   32   33 1    
    65   32   34 1    
    66   32  155 1    
    67   33  156 1    
    68   33  157 1    
    69   33  158 1    
    70   34   35 am   BACKBONE|DICT|INTERRES
    71   34  159 1    
    72   35   36 2    
    73   35   37 1    
    74   37   38 1    
    75   37   39 1    
    76   37  160 1    
    77   38  161 1    
    78   38  162 1    
    79   38  163 1    
    80   39   40 am   BACKBONE|DICT|INTERRES
    81   39  164 1    
    82   40   41 2    
    83   40   42 1    
    84   42   43 1    
    85   42   44 1    
    86   42  165 1    
    87   43  166 1    
    88   43  167 1    
    89   43  168 1    
    90   44   45 am   BACKBONE|DICT|INTERRES
    91   44  169 1    
    92   45   46 2    
    93   45   47 1    
    94   47   48 1    
    95   47   49 1    
    96   47  170 1    
    97   48  171 1    
    98   48  172 1    
    99   48  173 1    
   100   49   50 am   BACKBONE|DICT|INTERRES
   101   49  174 1    
   102   50   51 2    
   103   50   52 1    
   104   52   53 1    
   105   52   54 1    
   106   52  175 1    
   107   53  176 1    
   108   53  177 1    
   109   53  178 1    
   110   54   55 am   BACKBONE|DICT|INTERRES
   111   54  179 1    
   112   55   56 2    
   113   55   57 1    
   114   57   58 1    
   115   57   59 1    
   116   57  180 1    
   117   58  181 1    
   118   58  182 1    
   119   58  183 1    
   120   59   60 am   BACKBONE|DICT|INTERRES
   121   59  184 1    
   122   60   61 2    
   123   60   62 1    
   124   62   63 1    
   125   62   64 1    
   126   62  185 1    
   127   63  186 1    
   128   63  187 1    
   129   63  188 1    
   130   64   65 am   BACKBONE|DICT|INTERRES
   131   64  189 1    
   132   65   66 2    
   133   67   68 2    
   134   67   69 am   BACKBONE|DICT|INTERRES
   135   69   70 1    
   136   69  190 1    
   137   70   71 1    
   138   70   72 1    
   139   70  191 1    
   140   71  192 1    
   141   71  193 1    
   142   71  194 1    
   143   72   73 2    
   144   72   74 am   BACKBONE|DICT|INTERRES
   145   74   75 1    
   146   74  195 1    
   147   75   76 1    
   148   75   77 1    
   149   75  196 1    
   150   76  197 1    
   151   76  198 1    
   152   76  199 1    
   153   77   78 2    
   154   77   79 am   BACKBONE|DICT|INTERRES
   155   79   80 1    
   156   79  200 1    
   157   80   81 1    
   158   80   82 1    
   159   80  201 1    
   160   81  202 1    
   161   81  203 1    
   162   81  204 1    
   163   82   83 2    
   164   82   84 am   BACKBONE|DICT|INTERRES
   165   84   85 1    
   166   84  205 1    
   167   85   86 1    
   168   85   87 1    
   169   85  206 1    
   170   86  207 1    
   171   86  208 1    
   172   86  209 1    
   173   87   88 2    
   174   87   89 am   BACKBONE|DICT|INTERRES
   175   89   90 1    
   176   89  210 1    
   177   90   91 1    
   178   90   92 1    
   179   90  211 1    
   180   91  212 1    
   181   91  213 1    
   182   91  214 1    
   183   92   93 2    
   184   92   94 am   BACKBONE|DICT|INTERRES
   185   94   95 1    
   186   94  215 1    
   187   95   96 1    
   188   95   97 1    
   189   95  216 1    
   190   96  217 1    
   191   96  218 1    
   192   96  219 1    
   193   97   98 2    
   194   97   99 am   BACKBONE|DICT|INTERRES
   195   99  100 1    
   196   99  220 1    
   197  100  101 1    
   198  100  102 1    
   199  100  221 1    
   200  101  222 1    
   201  101  223 1    
   202  101  224 1    
   203  102  103 2    
   204  102  104 am   BACKBONE|DICT|INTERRES
   205  104  105 1    
   206  104  225 1    
   207  105  106 1    
   208  105  107 1    
   209  105  226 1    
   210  106  227 1    
   211  106  228 1    
   212  106  229 1    
   213  107  108 2    
   214  107  109 am   BACKBONE|DICT|INTERRES
   215  109  110 1    
   216  109  230 1    
   217  110  111 1    
   218  110  112 1    
   219  110  231 1    
   220  111  232 1    
   221  111  233 1    
   222  111  234 1    
   223  112  113 2    
   224  112  114 am   BACKBONE|DICT|INTERRES
   225  114  115 1    
   226  114  235 1    
   227  115  116 1    
   228  115  117 1    
   229  115  236 1    
   230  116  237 1    
   231  116  238 1    
   232  116  239 1    
   233  117  118 2    
   234  117  119 am   BACKBONE|DICT|INTERRES
   235  119  120 1    
   236  119  240 1    
   237  120  121 1    
   238  120  124 1    
   239  120  241 1    
   240  121  122 am   BACKBONE|DICT|INTERRES
   241  121  123 2    
   242  122  242 1    
   243  122  243 1    
   244  124  125 1    
   245  124  244 1    
   246  124  245 1    
   247  125  126 1    
   248  126  246 1    
   249  126  247 1    
@<TRIPOS>SUBSTRUCTURE
     1 UNK         1 GROUP             0       ****    0 ROOT    
