@<TRIPOS>MOLECULE
3R540
247   249    1
SMALL
USER_CHARGES


@<TRIPOS>ATOM
      1 CA          3.2991  -12.4217  -51.4335 C.3       0 UNK        -0.1800 
      2 C           3.5924  -12.5624  -49.9465 C.2       0 UNK         0.5000 
      3 O           4.7109  -12.2847  -49.5137 O.2       0 UNK        -0.5000 
      4 N           2.5927  -12.9940  -49.1671 N.am      1 UNK        -0.5000 
      5 CA          2.6839  -13.1849  -47.7133 C.3       1 UNK         0.1400 
      6 C6          1.5119  -14.0326  -47.1625 C.3       23 UNK        -0.0398 
      7 S7          1.4487  -15.7188  -47.8559 S.3       23 UNK        -0.2404 
      8 C8          0.1959  -15.5339  -49.1675 C.3       23 UNK        -0.0205 
      9 C9         -0.4404  -16.8603  -49.5627 C.ar      23 UNK        -0.0193 
     10 C10        -1.8326  -16.9917  -49.5670 C.ar      23 UNK        -0.1150 
     11 C11        -2.4329  -18.1902  -49.9610 C.ar      23 UNK        -0.0193 
     12 C12        -1.6288  -19.2652  -50.3452 C.ar      23 UNK        -0.1150 
     13 C13        -0.2348  -19.1557  -50.3380 C.ar      23 UNK        -0.0193 
     14 C14         0.3508  -17.9457  -49.9536 C.ar      23 UNK        -0.1150 
     15 C15         0.6479  -20.3247  -50.7661 C.3       23 UNK        -0.0205 
     16 S16         0.1952  -21.9167  -49.9988 S.3       23 UNK        -0.2404 
     17 C17         0.2090  -21.4905  -48.2249 C.3       23 UNK        -0.0398 
     18 CA          0.0020  -22.7122  -47.2994 C.3       11 UNK         0.1400 
     19 N           0.2842  -22.3753  -45.9021 N.am      11 UNK        -0.5000 
     20 C           0.3389  -23.2580  -44.8951 C.2       10 UNK         0.5000 
     21 O           0.2076  -24.4717  -45.0415 O.2       10 UNK        -0.5000 
     22 CA          0.5122  -22.6882  -43.4774 C.3       10 UNK         0.1400 
     23 CB          1.9805  -22.3282  -43.2084 C.3       10 UNK        -0.1800 
     24 N          -0.3435  -21.5256  -43.2364 N.am      10 UNK        -0.5000 
     25 C          -1.6843  -21.5589  -43.2483 C.2       9 UNK         0.5000 
     26 O          -2.3382  -22.5897  -43.4075 O.2       9 UNK        -0.5000 
     27 CA         -2.4188  -20.2126  -43.1056 C.3       9 UNK         0.1400 
     28 CB         -2.4809  -19.7746  -41.6353 C.3       9 UNK        -0.1800 
     29 N          -1.8140  -19.1502  -43.9099 N.am      9 UNK        -0.5000 
     30 C          -1.7338  -19.1570  -45.2487 C.2       8 UNK         0.5000 
     31 O          -2.2025  -20.0442  -45.9597 O.2       8 UNK        -0.5000 
     32 CA         -0.9428  -18.0089  -45.8964 C.3       8 UNK         0.1400 
     33 CB         -1.7980  -16.7358  -45.9934 C.3       8 UNK        -0.1800 
     34 N           0.2922  -17.7314  -45.1635 N.am      8 UNK        -0.5000 
     35 C           1.3300  -18.5775  -45.0911 C.2       7 UNK         0.5000 
     36 O           1.3710  -19.6626  -45.6712 O.2       7 UNK        -0.5000 
     37 CA          2.4900  -18.1690  -44.1673 C.3       7 UNK         0.1400 
     38 CB          3.4726  -17.2409  -44.8970 C.3       7 UNK        -0.1800 
     39 N           2.0108  -17.5266  -42.9417 N.am      7 UNK        -0.5000 
     40 C           1.3770  -18.1817  -41.9560 C.2       6 UNK         0.5000 
     41 O           1.1740  -19.3946  -41.9720 O.2       6 UNK        -0.5000 
     42 CA          0.8412  -17.3518  -40.7719 C.3       6 UNK         0.1400 
     43 CB          1.9020  -17.2485  -39.6664 C.3       6 UNK        -0.1800 
     44 N           0.4133  -16.0066  -41.1524 N.am      6 UNK        -0.5000 
     45 C          -0.5542  -15.7253  -42.0361 C.2       5 UNK         0.5000 
     46 O          -1.2686  -16.5835  -42.5543 O.2       5 UNK        -0.5000 
     47 CA         -0.7105  -14.2482  -42.4558 C.3       5 UNK         0.1400 
     48 CB         -1.8812  -13.5973  -41.7057 C.3       5 UNK        -0.1800 
     49 N           0.4948  -13.4311  -42.2630 N.am      5 UNK        -0.5000 
     50 C           1.6952  -13.6646  -42.8103 C.2       4 UNK         0.5000 
     51 O           1.9254  -14.6248  -43.5461 O.2       4 UNK        -0.5000 
     52 CA          2.8156  -12.6715  -42.4502 C.3       4 UNK         0.1400 
     53 CB          4.2024  -13.1475  -42.9195 C.3       4 UNK        -0.1800 
     54 N           2.5434  -11.3408  -42.9954 N.am      4 UNK        -0.5000 
     55 C           1.7364  -10.4336  -42.4249 C.2       3 UNK         0.5000 
     56 O           1.1097  -10.6530  -41.3865 O.2       3 UNK        -0.5000 
     57 CA          1.6019   -9.0529  -43.0991 C.3       3 UNK         0.1400 
     58 CB          2.4128   -8.0009  -42.3263 C.3       3 UNK        -0.1800 
     59 N           2.0272   -9.0356  -44.4988 N.am      3 UNK        -0.5000 
     60 C           1.3129   -9.5249  -45.5196 C.2       2 UNK         0.5000 
     61 O           0.1965  -10.0303  -45.3885 O.2       2 UNK        -0.5000 
     62 CA          1.9482   -9.4645  -46.9266 C.3       2 UNK         0.1400 
     63 CB          3.2912   -8.7014  -46.9918 C.3       2 UNK        -0.1800 
     64 N           2.0949  -10.8056  -47.4989 N.am      2 UNK        -0.5000 
     65 C           2.7545  -11.8418  -46.9562 C.2       1 UNK         0.5000 
     66 O           3.3900  -11.7720  -45.9039 O.2       1 UNK        -0.5000 
     67 C          -1.4000  -23.3408  -47.4623 C.2       11 UNK         0.5000 
     68 O          -1.5290  -24.3769  -48.1170 O.2       11 UNK        -0.5000 
     69 N          -2.4188  -22.7378  -46.8327 N.am      12 UNK        -0.5000 
     70 CA         -3.7956  -23.2357  -46.8055 C.3       12 UNK         0.1400 
     71 CB         -4.7015  -22.2276  -46.0842 C.3       12 UNK        -0.1800 
     72 C          -3.9237  -24.6386  -46.1843 C.2       12 UNK         0.5000 
     73 O          -4.6964  -25.4533  -46.6881 O.2       12 UNK        -0.5000 
     74 N          -3.1495  -24.9002  -45.1246 N.am      13 UNK        -0.5000 
     75 CA         -3.0901  -26.1899  -44.4457 C.3       13 UNK         0.1400 
     76 CB         -2.4998  -25.9965  -43.0392 C.3       13 UNK        -0.1800 
     77 C          -2.2961  -27.2455  -45.2377 C.2       13 UNK         0.5000 
     78 O          -2.8247  -28.3246  -45.5075 O.2       13 UNK        -0.5000 
     79 N          -1.0324  -26.9387  -45.5587 N.am      14 UNK        -0.5000 
     80 CA         -0.0585  -27.9148  -46.0503 C.3       14 UNK         0.1400 
     81 CB          1.3537  -27.4673  -45.6414 C.3       14 UNK        -0.1800 
     82 C          -0.1172  -28.1467  -47.5679 C.2       14 UNK         0.5000 
     83 O           0.0923  -29.2782  -48.0074 O.2       14 UNK        -0.5000 
     84 N          -0.3728  -27.0845  -48.3411 N.am      15 UNK        -0.5000 
     85 CA         -0.3376  -27.0995  -49.8071 C.3       15 UNK         0.1400 
     86 CB          0.5830  -25.9635  -50.2885 C.3       15 UNK        -0.1800 
     87 C          -1.7392  -26.9659  -50.4270 C.2       15 UNK         0.5000 
     88 O          -1.8449  -26.8409  -51.6479 O.2       15 UNK        -0.5000 
     89 N          -2.7871  -26.9477  -49.5877 N.am      16 UNK        -0.5000 
     90 CA         -4.1921  -26.7041  -49.9412 C.3       16 UNK         0.1400 
     91 CB         -4.7590  -27.8787  -50.7657 C.3       16 UNK        -0.1800 
     92 C          -4.3985  -25.3325  -50.6231 C.2       16 UNK         0.5000 
     93 O          -5.2335  -25.2060  -51.5192 O.2       16 UNK        -0.5000 
     94 N          -3.5886  -24.3475  -50.2044 N.am      17 UNK        -0.5000 
     95 CA         -3.4611  -22.9795  -50.7194 C.3       17 UNK         0.1400 
     96 CB         -4.8115  -22.2346  -50.6998 C.3       17 UNK        -0.1800 
     97 C          -2.7660  -22.8797  -52.0930 C.2       17 UNK         0.5000 
     98 O          -2.6199  -21.7703  -52.6033 O.2       17 UNK        -0.5000 
     99 N          -2.3387  -24.0134  -52.6697 N.am      18 UNK        -0.5000 
    100 CA        -1.6834  -24.1998  -53.9716 C.3       18 UNK         0.1400 
    101 CB        -0.3375  -23.4524  -54.0347 C.3       18 UNK        -0.1800 
    102 C         -2.5683  -23.8760  -55.1959 C.2       18 UNK         0.5000 
    103 O         -2.5503  -24.6349  -56.1660 O.2       18 UNK        -0.5000 
    104 N         -3.3362  -22.7850  -55.1339 N.am      19 UNK        -0.5000 
    105 CA        -4.2967  -22.3336  -56.1321 C.3       19 UNK         0.1400 
    106 CB        -3.5684  -21.5426  -57.2342 C.3       19 UNK        -0.1800 
    107 C         -5.3599  -21.4651  -55.4425 C.2       19 UNK         0.5000 
    108 O         -5.1290  -20.9582  -54.3437 O.2       19 UNK        -0.5000 
    109 N         -6.5009  -21.2743  -56.1150 N.am      20 UNK        -0.5000 
    110 CA        -7.6140  -20.4440  -55.6392 C.3       20 UNK         0.1400 
    111 CB        -8.8824  -20.8338  -56.4150 C.3       20 UNK        -0.1800 
    112 C         -7.3557  -18.9257  -55.7565 C.2       20 UNK         0.5000 
    113 O         -8.1340  -18.1379  -55.2166 O.2       20 UNK        -0.5000 
    114 N         -6.2835  -18.5401  -56.4643 N.am      21 UNK        -0.5000 
    115 CA        -5.9060  -17.1655  -56.8062 C.3       21 UNK         0.1400 
    116 CB        -4.6284  -17.2055  -57.6591 C.3       21 UNK        -0.1800 
    117 C         -5.7215  -16.2112  -55.6088 C.2       21 UNK         0.5000 
    118 O         -5.9261  -15.0070  -55.7693 O.2       21 UNK        -0.5000 
    119 N         -5.3552  -16.7512  -54.4393 N.am      22 UNK        -0.5000 
    120 CA        -5.2673  -16.0042  -53.1740 C.3       22 UNK         0.1400 
    121 C         -6.6365  -15.7302  -52.4790 C.2       22 UNK         0.5000 
    122 N         -7.7557  -16.2624  -52.9580 N.am      22 UNK        -0.7600 
    123 O         -6.6869  -15.0004  -51.4925 O.2       22 UNK        -0.5000 
    124 C124       -4.2224  -16.6221  -52.2101 C.3       23 UNK        -0.0398 
    125 S125       -4.6127  -18.3239  -51.6738 S.3       23 UNK        -0.2404 
    126 C126       -3.9484  -18.3275  -49.9767 C.3       23 UNK        -0.0205 
    127 H127        2.2769  -12.7141  -51.6754 H         1 UNK         0.0600 
    128 H128        3.9774  -13.0502  -52.0106 H         1 UNK         0.0600 
    129 H129        3.4405  -11.3875  -51.7475 H         1 UNK         0.0600 
    130 H130        1.7022  -13.2160  -49.5857 H         1 UNK         0.3000 
    131 H131        3.6125  -13.7202  -47.5025 H         1 UNK         0.0600 
    132 H132        1.6110  -14.1451  -46.0824 H         1 UNK         0.0800 
    133 H133        0.5568  -13.5286  -47.3183 H         1 UNK         0.0800 
    134 H134       -0.5755  -14.8373  -48.8368 H         1 UNK         0.0800 
    135 H135        0.6600  -15.0915  -50.0493 H         1 UNK         0.0800 
    136 H136       -2.4524  -16.1566  -49.2724 H         1 UNK         0.1150 
    137 H137       -2.0932  -20.1884  -50.6559 H         1 UNK         0.1150 
    138 H138        1.4269  -17.8439  -49.9574 H         1 UNK         0.1150 
    139 H139        0.5826  -20.4308  -51.8497 H         1 UNK         0.0800 
    140 H140        1.6946  -20.1191  -50.5373 H         1 UNK         0.0800 
    141 H141       -0.5466  -20.7286  -48.0288 H         1 UNK         0.0800 
    142 H142        1.1715  -21.0245  -48.0096 H         1 UNK         0.0800 
    143 H143        0.7294  -23.4741  -47.5883 H         1 UNK         0.0600 
    144 H144        0.4470  -21.3932  -45.6992 H         1 UNK         0.3000 
    145 H145        0.2210  -23.4674  -42.7701 H         1 UNK         0.0600 
    146 H146        2.1247  -22.0102  -42.1758 H         1 UNK         0.0600 
    147 H147        2.6304  -23.1877  -43.3771 H         1 UNK         0.0600 
    148 H148        2.3249  -21.5232  -43.8576 H         1 UNK         0.0600 
    149 H149        0.1278  -20.6496  -43.0316 H         1 UNK         0.3000 
    150 H150       -3.4417  -20.3524  -43.4606 H         1 UNK         0.0600 
    151 H151       -2.9869  -20.5252  -41.0269 H         1 UNK         0.0600 
    152 H152       -3.0306  -18.8396  -41.5243 H         1 UNK         0.0600 
    153 H153       -1.4859  -19.6296  -41.2155 H         1 UNK         0.0600 
    154 H154       -1.4416  -18.3500  -43.4073 H         1 UNK         0.3000 
    155 H155       -0.6724  -18.3146  -46.9095 H         1 UNK         0.0600 
    156 H156       -2.1346  -16.3916  -45.0161 H         1 UNK         0.0600 
    157 H157       -1.2465  -15.9215  -46.4619 H         1 UNK         0.0600 
    158 H158       -2.6871  -16.9154  -46.5988 H         1 UNK         0.0600 
    159 H159        0.3300  -16.8730  -44.6342 H         1 UNK         0.3000 
    160 H160        3.0309  -19.0757  -43.8883 H         1 UNK         0.0600 
    161 H161        2.9902  -16.3240  -45.2351 H         1 UNK         0.0600 
    162 H162        3.8881  -17.7318  -45.7779 H         1 UNK         0.0600 
    163 H163        4.3069  -16.9625  -44.2533 H         1 UNK         0.0600 
    164 H164        2.0905  -16.5155  -42.9024 H         1 UNK         0.3000 
    165 H165       -0.0269  -17.8740  -40.3658 H         1 UNK         0.0600 
    166 H166        1.5094  -16.7342  -38.7890 H         1 UNK         0.0600 
    167 H167        2.2260  -18.2387  -39.3431 H         1 UNK         0.0600 
    168 H168        2.7865  -16.7081  -40.0061 H         1 UNK         0.0600 
    169 H169        0.9456  -15.2378  -40.7738 H         1 UNK         0.3000 
    170 H170       -0.9414  -14.2421  -43.5230 H         1 UNK         0.0600 
    171 H171       -2.8026  -14.1631  -41.8513 H         1 UNK         0.0600 
    172 H172       -1.6920  -13.5467  -40.6327 H         1 UNK         0.0600 
    173 H173       -2.0638  -12.5836  -42.0631 H         1 UNK         0.0600 
    174 H174        0.3956  -12.5962  -41.6958 H         1 UNK         0.3000 
    175 H175        2.8529  -12.6069  -41.3606 H         1 UNK         0.0600 
    176 H176        4.9787  -12.4319  -42.6489 H         1 UNK         0.0600 
    177 H177        4.2423  -13.2939  -43.9986 H         1 UNK         0.0600 
    178 H178        4.4623  -14.0997  -42.4553 H         1 UNK         0.0600 
    179 H179        2.9612  -11.1356  -43.8960 H         1 UNK         0.3000 
    180 H180        0.5483   -8.7693  -43.0523 H         1 UNK         0.0600 
    181 H181        3.4803   -8.2243  -42.3418 H         1 UNK         0.0600 
    182 H182        2.1020   -7.9567  -41.2815 H         1 UNK         0.0600 
    183 H183        2.2709   -7.0054  -42.7474 H         1 UNK         0.0600 
    184 H184        2.9437   -8.6570  -44.6891 H         1 UNK         0.3000 
    185 H185        1.2360   -8.9319  -47.5585 H         1 UNK         0.0600 
    186 H186        3.1785   -7.6731  -46.6459 H         1 UNK         0.0600 
    187 H187        4.0680   -9.1751  -46.3906 H         1 UNK         0.0600 
    188 H188        3.6577   -8.6529  -48.0173 H         1 UNK         0.0600 
    189 H189        1.5942  -10.9684  -48.3605 H         1 UNK         0.3000 
    190 H190       -2.2492  -21.8571  -46.3512 H         1 UNK         0.3000 
    191 H191       -4.1433  -23.3031  -47.8345 H         1 UNK         0.0600 
    192 H192       -4.6783  -21.2553  -46.5768 H         1 UNK         0.0600 
    193 H193       -5.7382  -22.5662  -46.0825 H         1 UNK         0.0600 
    194 H194       -4.4014  -22.0847  -45.0467 H         1 UNK         0.0600 
    195 H195       -2.5811  -24.1526  -44.7408 H         1 UNK         0.3000 
    196 H196       -4.1097  -26.5627  -44.3265 H         1 UNK         0.0600 
    197 H197       -2.4405  -26.9456  -42.5052 H         1 UNK         0.0600 
    198 H198       -3.1192  -25.3257  -42.4435 H         1 UNK         0.0600 
    199 H199       -1.4949  -25.5744  -43.0743 H         1 UNK         0.0600 
    200 H200       -0.6674  -26.0153  -45.3282 H         1 UNK         0.3000 
    201 H201       -0.2505  -28.8738  -45.5638 H         1 UNK         0.0600 
    202 H202        1.4288  -27.3339  -44.5620 H         1 UNK         0.0600 
    203 H203        1.6311  -26.5249  -46.1153 H         1 UNK         0.0600 
    204 H204        2.0981  -28.2103  -45.9304 H         1 UNK         0.0600 
    205 H205       -0.5853  -26.1895  -47.9128 H         1 UNK         0.3000 
    206 H206        0.0779  -28.0400  -50.1738 H         1 UNK         0.0600 
    207 H207        1.5770  -26.0478  -49.8491 H         1 UNK         0.0600 
    208 H208        0.7056  -25.9882  -51.3720 H         1 UNK         0.0600 
    209 H209        0.1851  -24.9827  -50.0303 H         1 UNK         0.0600 
    210 H210       -2.5907  -27.0377  -48.6007 H         1 UNK         0.3000 
    211 H211       -4.7471  -26.6673  -49.0042 H         1 UNK         0.0600 
    212 H212       -4.3014  -27.9412  -51.7534 H         1 UNK         0.0600 
    213 H213       -5.8344  -27.7704  -50.9109 H         1 UNK         0.0600 
    214 H214       -4.5958  -28.8300  -50.2595 H         1 UNK         0.0600 
    215 H215       -2.9097  -24.5825  -49.4847 H         1 UNK         0.3000 
    216 H216       -2.8035  -22.4656  -50.0185 H         1 UNK         0.0600 
    217 H217       -4.6718  -21.1802  -50.9322 H         1 UNK         0.0600 
    218 H218       -5.2882  -22.2904  -49.7218 H         1 UNK         0.0600 
    219 H219       -5.5074  -22.6285  -51.4405 H         1 UNK         0.0600 
    220 H220       -2.5022  -24.8783  -52.1675 H         1 UNK         0.3000 
    221 H221       -1.4612  -25.2666  -54.0266 H         1 UNK         0.0600 
    222 H222       -0.4683  -22.3702  -54.0164 H         1 UNK         0.0600 
    223 H223        0.3040  -23.7260  -53.1967 H         1 UNK         0.0600 
    224 H224        0.1996  -23.6985  -54.9513 H         1 UNK         0.0600 
    225 H225       -3.3021  -22.2168  -54.2875 H         1 UNK         0.3000 
    226 H226       -4.7949  -23.2016  -56.5688 H         1 UNK         0.0600 
    227 H227       -2.8198  -22.1575  -57.7340 H         1 UNK         0.0600 
    228 H228       -4.2643  -21.1981  -57.9998 H         1 UNK         0.0600 
    229 H229       -3.0627  -20.6651  -56.8288 H         1 UNK         0.0600 
    230 H230       -6.6231  -21.7153  -57.0156 H         1 UNK         0.3000 
    231 H231       -7.7829  -20.6610  -54.5822 H         1 UNK         0.0600 
    232 H232       -8.7759  -20.6411  -57.4833 H         1 UNK         0.0600 
    233 H233       -9.7465  -20.2680  -56.0642 H         1 UNK         0.0600 
    234 H234       -9.1154  -21.8908  -56.2850 H         1 UNK         0.0600 
    235 H235       -5.7048  -19.2676  -56.8550 H         1 UNK         0.3000 
    236 H236       -6.7114  -16.7556  -57.4188 H         1 UNK         0.0600 
    237 H237       -4.7791  -17.7833  -58.5712 H         1 UNK         0.0600 
    238 H238       -4.3257  -16.2014  -57.9596 H         1 UNK         0.0600 
    239 H239       -3.7954  -17.6500  -57.1128 H         1 UNK         0.0600 
    240 H240       -5.2248  -17.7512  -54.3770 H         1 UNK         0.3000 
    241 H241       -4.8853  -15.0113  -53.4193 H         1 UNK         0.0600 
    242 H242       -8.6298  -16.0657  -52.4975 H         1 UNK         0.3800 
    243 H243       -7.7481  -16.8696  -53.7718 H         1 UNK         0.3800 
    244 H244       -3.2439  -16.6402  -52.6917 H         1 UNK         0.0800 
    245 H245       -4.1045  -15.9828  -51.3339 H         1 UNK         0.0800 
    246 H246       -4.2274  -19.2608  -49.4858 H         1 UNK         0.0800 
    247 H247       -4.4189  -17.5298  -49.3999 H         1 UNK         0.0800 
@<TRIPOS>BOND
     1    1    2 1    
     2    1  127 1    
     3    1  128 1    
     4    1  129 1    
     5    2    3 2    
     6    2    4 am   BACKBONE|DICT|INTERRES
     7    4    5 1    
     8    4  130 1    
     9    5    6 1    
    10    5   65 1    
    11    5  131 1    
    12    6    7 1    
    13    6  132 1    
    14    6  133 1    
    15    7    8 1    
    16    8    9 1    
    17    8  134 1    
    18    8  135 1    
    19    9   10 ar   
    20    9   14 ar   
    21   10   11 ar   
    22   10  136 1    
    23   11   12 ar   
    24   11  126 1    
    25   12   13 ar   
    26   12  137 1    
    27   13   14 ar   
    28   13   15 1    
    29   14  138 1    
    30   15   16 1    
    31   15  139 1    
    32   15  140 1    
    33   16   17 1    
    34   17   18 1    
    35   17  141 1    
    36   17  142 1    
    37   18   19 1    
    38   18   67 1    
    39   18  143 1    
    40   19   20 am   BACKBONE|DICT|INTERRES
    41   19  144 1    
    42   20   21 2    
    43   20   22 1    
    44   22   23 1    
    45   22   24 1    
    46   22  145 1    
    47   23  146 1    
    48   23  147 1    
    49   23  148 1    
    50   24   25 am   BACKBONE|DICT|INTERRES
    51   24  149 1    
    52   25   26 2    
    53   25   27 1    
    54   27   28 1    
    55   27   29 1    
    56   27  150 1    
    57   28  151 1    
    58   28  152 1    
    59   28  153 1    
    60   29   30 am   BACKBONE|DICT|INTERRES
    61   29  154 1    
    62   30   31 2    
    63   30   32 1    
    64   32   33 1    
    65   32   34 1    
    66   32  155 1    
    67   33  156 1    
    68   33  157 1    
    69   33  158 1    
    70   34   35 am   BACKBONE|DICT|INTERRES
    71   34  159 1    
    72   35   36 2    
    73   35   37 1    
    74   37   38 1    
    75   37   39 1    
    76   37  160 1    
    77   38  161 1    
    78   38  162 1    
    79   38  163 1    
    80   39   40 am   BACKBONE|DICT|INTERRES
    81   39  164 1    
    82   40   41 2    
    83   40   42 1    
    84   42   43 1    
    85   42   44 1    
    86   42  165 1    
    87   43  166 1    
    88   43  167 1    
    89   43  168 1    
    90   44   45 am   BACKBONE|DICT|INTERRES
    91   44  169 1    
    92   45   46 2    
    93   45   47 1    
    94   47   48 1    
    95   47   49 1    
    96   47  170 1    
    97   48  171 1    
    98   48  172 1    
    99   48  173 1    
   100   49   50 am   BACKBONE|DICT|INTERRES
   101   49  174 1    
   102   50   51 2    
   103   50   52 1    
   104   52   53 1    
   105   52   54 1    
   106   52  175 1    
   107   53  176 1    
   108   53  177 1    
   109   53  178 1    
   110   54   55 am   BACKBONE|DICT|INTERRES
   111   54  179 1    
   112   55   56 2    
   113   55   57 1    
   114   57   58 1    
   115   57   59 1    
   116   57  180 1    
   117   58  181 1    
   118   58  182 1    
   119   58  183 1    
   120   59   60 am   BACKBONE|DICT|INTERRES
   121   59  184 1    
   122   60   61 2    
   123   60   62 1    
   124   62   63 1    
   125   62   64 1    
   126   62  185 1    
   127   63  186 1    
   128   63  187 1    
   129   63  188 1    
   130   64   65 am   BACKBONE|DICT|INTERRES
   131   64  189 1    
   132   65   66 2    
   133   67   68 2    
   134   67   69 am   BACKBONE|DICT|INTERRES
   135   69   70 1    
   136   69  190 1    
   137   70   71 1    
   138   70   72 1    
   139   70  191 1    
   140   71  192 1    
   141   71  193 1    
   142   71  194 1    
   143   72   73 2    
   144   72   74 am   BACKBONE|DICT|INTERRES
   145   74   75 1    
   146   74  195 1    
   147   75   76 1    
   148   75   77 1    
   149   75  196 1    
   150   76  197 1    
   151   76  198 1    
   152   76  199 1    
   153   77   78 2    
   154   77   79 am   BACKBONE|DICT|INTERRES
   155   79   80 1    
   156   79  200 1    
   157   80   81 1    
   158   80   82 1    
   159   80  201 1    
   160   81  202 1    
   161   81  203 1    
   162   81  204 1    
   163   82   83 2    
   164   82   84 am   BACKBONE|DICT|INTERRES
   165   84   85 1    
   166   84  205 1    
   167   85   86 1    
   168   85   87 1    
   169   85  206 1    
   170   86  207 1    
   171   86  208 1    
   172   86  209 1    
   173   87   88 2    
   174   87   89 am   BACKBONE|DICT|INTERRES
   175   89   90 1    
   176   89  210 1    
   177   90   91 1    
   178   90   92 1    
   179   90  211 1    
   180   91  212 1    
   181   91  213 1    
   182   91  214 1    
   183   92   93 2    
   184   92   94 am   BACKBONE|DICT|INTERRES
   185   94   95 1    
   186   94  215 1    
   187   95   96 1    
   188   95   97 1    
   189   95  216 1    
   190   96  217 1    
   191   96  218 1    
   192   96  219 1    
   193   97   98 2    
   194   97   99 am   BACKBONE|DICT|INTERRES
   195   99  100 1    
   196   99  220 1    
   197  100  101 1    
   198  100  102 1    
   199  100  221 1    
   200  101  222 1    
   201  101  223 1    
   202  101  224 1    
   203  102  103 2    
   204  102  104 am   BACKBONE|DICT|INTERRES
   205  104  105 1    
   206  104  225 1    
   207  105  106 1    
   208  105  107 1    
   209  105  226 1    
   210  106  227 1    
   211  106  228 1    
   212  106  229 1    
   213  107  108 2    
   214  107  109 am   BACKBONE|DICT|INTERRES
   215  109  110 1    
   216  109  230 1    
   217  110  111 1    
   218  110  112 1    
   219  110  231 1    
   220  111  232 1    
   221  111  233 1    
   222  111  234 1    
   223  112  113 2    
   224  112  114 am   BACKBONE|DICT|INTERRES
   225  114  115 1    
   226  114  235 1    
   227  115  116 1    
   228  115  117 1    
   229  115  236 1    
   230  116  237 1    
   231  116  238 1    
   232  116  239 1    
   233  117  118 2    
   234  117  119 am   BACKBONE|DICT|INTERRES
   235  119  120 1    
   236  119  240 1    
   237  120  121 1    
   238  120  124 1    
   239  120  241 1    
   240  121  122 am   BACKBONE|DICT|INTERRES
   241  121  123 2    
   242  122  242 1    
   243  122  243 1    
   244  124  125 1    
   245  124  244 1    
   246  124  245 1    
   247  125  126 1    
   248  126  246 1    
   249  126  247 1    
@<TRIPOS>SUBSTRUCTURE
     1 UNK         1 GROUP             0       ****    0 ROOT    
