@<TRIPOS>MOLECULE
3R540
247   249    1
SMALL
USER_CHARGES


@<TRIPOS>ATOM
      1 CA         -1.6823  -13.2013  -44.0693 C.3       0 UNK        -0.1800 
      2 C          -0.9656  -12.8337  -45.3615 C.2       0 UNK         0.5000 
      3 O          -1.5820  -12.2631  -46.2620 O.2       0 UNK        -0.5000 
      4 N           0.3255  -13.1696  -45.4600 N.am      1 UNK        -0.5000 
      5 CA          1.1879  -12.8536  -46.6038 C.3       1 UNK         0.1400 
      6 C6          2.4487  -13.7561  -46.6457 C.3       23 UNK        -0.0398 
      7 S7          2.0379  -15.5227  -46.8272 S.3       23 UNK        -0.2404 
      8 C8          1.8458  -15.6478  -48.6341 C.3       23 UNK        -0.0205 
      9 C9          0.9089  -16.7861  -49.0023 C.ar      23 UNK        -0.0193 
     10 C10        -0.4748  -16.5925  -48.9501 C.ar      23 UNK        -0.1150 
     11 C11        -1.3492  -17.6405  -49.2487 C.ar      23 UNK        -0.0193 
     12 C12        -0.8294  -18.8882  -49.6020 C.ar      23 UNK        -0.1150 
     13 C13         0.5510  -19.0867  -49.6905 C.ar      23 UNK        -0.0193 
     14 C14         1.4167  -18.0298  -49.3894 C.ar      23 UNK        -0.1150 
     15 C15         1.0948  -20.4487  -50.1056 C.3       23 UNK        -0.0205 
     16 S16         2.2213  -21.1829  -48.8734 S.3       23 UNK        -0.2404 
     17 C17         1.2244  -21.1192  -47.3473 C.3       23 UNK        -0.0398 
     18 CA          0.5633  -22.4630  -46.9719 C.3       11 UNK         0.1400 
     19 N           0.1647  -22.4637  -45.5670 N.am      11 UNK        -0.5000 
     20 C          -0.3046  -23.5148  -44.8854 C.2       10 UNK         0.5000 
     21 O          -0.4124  -24.6474  -45.3542 O.2       10 UNK        -0.5000 
     22 CA         -0.7747  -23.2303  -43.4492 C.3       10 UNK         0.1400 
     23 CB          0.4128  -23.2302  -42.4748 C.3       10 UNK        -0.1800 
     24 N          -1.4858  -21.9542  -43.3517 N.am      10 UNK        -0.5000 
     25 C          -2.6933  -21.7195  -43.8833 C.2       9 UNK         0.5000 
     26 O          -3.3495  -22.5659  -44.4907 O.2       9 UNK        -0.5000 
     27 CA         -3.2388  -20.2869  -43.7413 C.3       9 UNK         0.1400 
     28 CB         -3.7816  -20.0455  -42.3249 C.3       9 UNK        -0.1800 
     29 N          -2.2385  -19.2661  -44.0584 N.am      9 UNK        -0.5000 
     30 C          -1.7257  -19.0688  -45.2813 C.2       8 UNK         0.5000 
     31 O          -2.0353  -19.7334  -46.2675 O.2       8 UNK        -0.5000 
     32 CA         -0.6652  -17.9630  -45.4240 C.3       8 UNK         0.1400 
     33 CB         -1.3623  -16.5997  -45.5444 C.3       8 UNK        -0.1800 
     34 N           0.3036  -17.9048  -44.3267 N.am      8 UNK        -0.5000 
     35 C           0.9966  -18.9295  -43.8084 C.2       7 UNK         0.5000 
     36 O           0.9130  -20.0879  -44.2146 O.2       7 UNK        -0.5000 
     37 CA          1.9287  -18.6296  -42.6180 C.3       7 UNK         0.1400 
     38 CB          3.3961  -18.6813  -43.0702 C.3       7 UNK        -0.1800 
     39 N           1.6922  -17.3467  -41.9510 N.am      7 UNK        -0.5000 
     40 C           0.5655  -16.9501  -41.3412 C.2       6 UNK         0.5000 
     41 O          -0.4555  -17.6373  -41.2879 O.2       6 UNK        -0.5000 
     42 CA          0.5774  -15.5514  -40.6862 C.3       6 UNK         0.1400 
     43 CB          0.2939  -15.6546  -39.1788 C.3       6 UNK        -0.1800 
     44 N           1.8370  -14.8218  -40.8752 N.am      6 UNK        -0.5000 
     45 C           2.2034  -14.1915  -41.9974 C.2       5 UNK         0.5000 
     46 O           1.5230  -14.1634  -43.0255 O.2       5 UNK        -0.5000 
     47 CA          3.5888  -13.5265  -41.9853 C.3       5 UNK         0.1400 
     48 CB          4.5892  -14.3499  -42.8120 C.3       5 UNK        -0.1800 
     49 N           3.5061  -12.1785  -42.5361 N.am      5 UNK        -0.5000 
     50 C           3.0733  -11.1035  -41.8642 C.2       4 UNK         0.5000 
     51 O           2.7654  -11.1300  -40.6711 O.2       4 UNK        -0.5000 
     52 CA          2.9402   -9.7895  -42.6620 C.3       4 UNK         0.1400 
     53 CB          3.2436   -8.5335  -41.8178 C.3       4 UNK        -0.1800 
     54 N           3.6887   -9.7980  -43.9252 N.am      4 UNK        -0.5000 
     55 C           5.0173   -9.7345  -44.1109 C.2       3 UNK         0.5000 
     56 O           5.8280   -9.5991  -43.1943 O.2       3 UNK        -0.5000 
     57 CA          5.5447   -9.8848  -45.5577 C.3       3 UNK         0.1400 
     58 CB          6.4871  -11.0958  -45.6653 C.3       3 UNK        -0.1800 
     59 N           4.4862  -10.0411  -46.5587 N.am      3 UNK        -0.5000 
     60 C           3.7096   -9.0594  -47.0372 C.2       2 UNK         0.5000 
     61 O           3.8631   -7.8703  -46.7578 O.2       2 UNK        -0.5000 
     62 CA          2.5364   -9.4847  -47.9475 C.3       2 UNK         0.1400 
     63 CB          2.9098   -9.2951  -49.4255 C.3       2 UNK        -0.1800 
     64 N           2.0769  -10.8673  -47.7452 N.am      2 UNK        -0.5000 
     65 C           1.5876  -11.3625  -46.5982 C.2       1 UNK         0.5000 
     66 O           1.5010  -10.6999  -45.5616 O.2       1 UNK        -0.5000 
     67 C          -0.6222  -22.8161  -47.8943 C.2       11 UNK         0.5000 
     68 O          -0.4817  -23.6926  -48.7462 O.2       11 UNK        -0.5000 
     69 N          -1.7835  -22.1803  -47.6744 N.am      12 UNK        -0.5000 
     70 CA         -3.0310  -22.4750  -48.3790 C.3       12 UNK         0.1400 
     71 CB         -4.1107  -21.4508  -48.0062 C.3       12 UNK        -0.1800 
     72 C          -3.5353  -23.9050  -48.1321 C.2       12 UNK         0.5000 
     73 O          -3.9750  -24.5511  -49.0812 O.2       12 UNK        -0.5000 
     74 N          -3.4323  -24.3900  -46.8863 N.am      13 UNK        -0.5000 
     75 CA         -3.7745  -25.7632  -46.5112 C.3       13 UNK         0.1400 
     76 CB         -3.7245  -25.9200  -44.9842 C.3       13 UNK        -0.1800 
     77 C          -2.8807  -26.8059  -47.2086 C.2       13 UNK         0.5000 
     78 O          -3.4013  -27.7824  -47.7484 O.2       13 UNK        -0.5000 
     79 N          -1.5636  -26.5548  -47.2379 N.am      14 UNK        -0.5000 
     80 CA         -0.5724  -27.3723  -47.9445 C.3       14 UNK         0.1400 
     81 CB          0.8393  -26.8870  -47.5821 C.3       14 UNK        -0.1800 
     82 C          -0.7732  -27.3760  -49.4734 C.2       14 UNK         0.5000 
     83 O          -0.5862  -28.4114  -50.1127 O.2       14 UNK        -0.5000 
     84 N          -1.1893  -26.2277  -50.0214 N.am      15 UNK        -0.5000 
     85 CA         -1.5465  -26.0269  -51.4268 C.3       15 UNK         0.1400 
     86 CB         -1.4701  -24.5214  -51.7225 C.3       15 UNK        -0.1800 
     87 C          -2.9402  -26.5771  -51.8033 C.2       15 UNK         0.5000 
     88 O          -3.3187  -26.4904  -52.9732 O.2       15 UNK        -0.5000 
     89 N          -3.6930  -27.0907  -50.8165 N.am      16 UNK        -0.5000 
     90 CA         -5.0686  -27.5945  -50.9104 C.3       16 UNK         0.1400 
     91 CB         -5.1120  -28.8991  -51.7320 C.3       16 UNK        -0.1800 
     92 C          -6.0634  -26.5291  -51.4208 C.2       16 UNK         0.5000 
     93 O          -6.9991  -26.8541  -52.1546 O.2       16 UNK        -0.5000 
     94 N          -5.8115  -25.2662  -51.0470 N.am      17 UNK        -0.5000 
     95 CA         -6.4694  -24.0147  -51.4344 C.3       17 UNK         0.1400 
     96 CB         -7.9416  -23.9905  -50.9863 C.3       17 UNK        -0.1800 
     97 C          -6.3349  -23.6546  -52.9265 C.2       17 UNK         0.5000 
     98 O          -6.0059  -22.5108  -53.2402 O.2       17 UNK        -0.5000 
     99 N          -6.5849  -24.6227  -53.8146 N.am      18 UNK        -0.5000 
    100 CA        -6.6648  -24.4717  -55.2667 C.3       18 UNK         0.1400 
    101 CB        -7.0731  -25.8164  -55.8871 C.3       18 UNK        -0.1800 
    102 C         -5.3816  -23.9399  -55.9277 C.2       18 UNK         0.5000 
    103 O         -5.4749  -23.1010  -56.8245 O.2       18 UNK        -0.5000 
    104 N         -4.2131  -24.4205  -55.4783 N.am      19 UNK        -0.5000 
    105 CA        -2.9166  -23.9960  -56.0149 C.3       19 UNK         0.1400 
    106 CB        -1.8787  -25.1099  -55.8079 C.3       19 UNK        -0.1800 
    107 C         -2.4317  -22.6547  -55.4295 C.2       19 UNK         0.5000 
    108 O         -1.5946  -21.9992  -56.0511 O.2       19 UNK        -0.5000 
    109 N         -2.9620  -22.2631  -54.2623 N.am      20 UNK        -0.5000 
    110 CA        -2.6982  -20.9684  -53.6333 C.3       20 UNK         0.1400 
    111 CB        -2.8832  -21.0831  -52.1123 C.3       20 UNK        -0.1800 
    112 C         -3.6004  -19.8674  -54.2151 C.2       20 UNK         0.5000 
    113 O         -3.1138  -18.7753  -54.5081 O.2       20 UNK        -0.5000 
    114 N         -4.8931  -20.1897  -54.3774 N.am      21 UNK        -0.5000 
    115 CA        -5.9689  -19.3404  -54.8994 C.3       21 UNK         0.1400 
    116 CB        -5.7212  -18.9851  -56.3803 C.3       21 UNK        -0.1800 
    117 C         -6.2651  -18.1058  -54.0180 C.2       21 UNK         0.5000 
    118 O         -6.7154  -17.0781  -54.5280 O.2       21 UNK        -0.5000 
    119 N         -6.0225  -18.2332  -52.7063 N.am      22 UNK        -0.5000 
    120 CA        -6.2517  -17.1817  -51.6982 C.3       22 UNK         0.1400 
    121 C         -7.7421  -16.9998  -51.2823 C.2       22 UNK         0.5000 
    122 N         -8.6608  -17.8717  -51.6806 N.am      22 UNK        -0.7600 
    123 O         -8.0739  -16.0415  -50.5897 O.2       22 UNK        -0.5000 
    124 C124       -5.3535  -17.3739  -50.4480 C.3       23 UNK        -0.0398 
    125 S125       -3.5760  -17.3464  -50.8501 S.3       23 UNK        -0.2404 
    126 C126       -2.8540  -17.4356  -49.1834 C.3       23 UNK        -0.0205 
    127 H127       -1.8840  -12.3042  -43.4842 H         1 UNK         0.0600 
    128 H128       -1.0916  -13.8834  -43.4583 H         1 UNK         0.0600 
    129 H129       -2.6322  -13.6876  -44.2912 H         1 UNK         0.0600 
    130 H130        0.7868  -13.5978  -44.6603 H         1 UNK         0.3000 
    131 H131        0.6125  -13.0272  -47.5153 H         1 UNK         0.0600 
    132 H132        3.1137  -13.4772  -47.4649 H         1 UNK         0.0800 
    133 H133        3.0292  -13.6368  -45.7301 H         1 UNK         0.0800 
    134 H134        1.4484  -14.7162  -49.0385 H         1 UNK         0.0800 
    135 H135        2.8257  -15.7891  -49.0924 H         1 UNK         0.0800 
    136 H136       -0.8688  -15.6286  -48.6598 H         1 UNK         0.1150 
    137 H137       -1.5057  -19.7033  -49.8135 H         1 UNK         0.1150 
    138 H138        2.4856  -18.1827  -49.4400 H         1 UNK         0.1150 
    139 H139        0.2808  -21.1500  -50.2965 H         1 UNK         0.0800 
    140 H140        1.6298  -20.3403  -51.0497 H         1 UNK         0.0800 
    141 H141        0.4862  -20.3190  -47.3831 H         1 UNK         0.0800 
    142 H142        1.9207  -20.8284  -46.5598 H         1 UNK         0.0800 
    143 H143        1.3102  -23.2519  -47.0835 H         1 UNK         0.0600 
    144 H144        0.2605  -21.5782  -45.0745 H         1 UNK         0.3000 
    145 H145       -1.4590  -24.0288  -43.1549 H         1 UNK         0.0600 
    146 H146        0.9491  -24.1792  -42.5152 H         1 UNK         0.0600 
    147 H147        1.1272  -22.4394  -42.7066 H         1 UNK         0.0600 
    148 H148        0.0787  -23.0896  -41.4468 H         1 UNK         0.0600 
    149 H149       -0.9884  -21.1875  -42.9230 H         1 UNK         0.3000 
    150 H150       -4.0668  -20.1778  -44.4452 H         1 UNK         0.0600 
    151 H151       -4.2555  -19.0668  -42.2469 H         1 UNK         0.0600 
    152 H152       -2.9913  -20.0951  -41.5747 H         1 UNK         0.0600 
    153 H153       -4.5328  -20.7915  -42.0620 H         1 UNK         0.0600 
    154 H154       -1.9073  -18.6915  -43.2954 H         1 UNK         0.3000 
    155 H155       -0.1082  -18.1514  -46.3434 H         1 UNK         0.0600 
    156 H156       -1.8612  -16.3180  -44.6164 H         1 UNK         0.0600 
    157 H157       -2.1167  -16.6104  -46.3312 H         1 UNK         0.0600 
    158 H158       -0.6518  -15.8149  -45.7937 H         1 UNK         0.0600 
    159 H159        0.4627  -16.9926  -43.9256 H         1 UNK         0.3000 
    160 H160        1.7674  -19.4183  -41.8806 H         1 UNK         0.0600 
    161 H161        3.6275  -19.6363  -43.5442 H         1 UNK         0.0600 
    162 H162        3.6212  -17.8941  -43.7913 H         1 UNK         0.0600 
    163 H163        4.0753  -18.5682  -42.2250 H         1 UNK         0.0600 
    164 H164        2.4689  -16.7038  -41.9420 H         1 UNK         0.3000 
    165 H165       -0.2296  -14.9762  -41.1449 H         1 UNK         0.0600 
    166 H166        0.2442  -14.6676  -38.7185 H         1 UNK         0.0600 
    167 H167       -0.6620  -16.1455  -38.9907 H         1 UNK         0.0600 
    168 H168        1.0646  -16.2284  -38.6628 H         1 UNK         0.0600 
    169 H169        2.4603  -14.8037  -40.0802 H         1 UNK         0.3000 
    170 H170        3.9576  -13.4690  -40.9588 H         1 UNK         0.0600 
    171 H171        5.5730  -13.8801  -42.8215 H         1 UNK         0.0600 
    172 H172        4.7118  -15.3495  -42.3933 H         1 UNK         0.0600 
    173 H173        4.2646  -14.4673  -43.8462 H         1 UNK         0.0600 
    174 H174        3.6936  -12.0773  -43.5210 H         1 UNK         0.3000 
    175 H175        1.8897   -9.7322  -42.9502 H         1 UNK         0.0600 
    176 H176        4.2440   -8.5630  -41.3860 H         1 UNK         0.0600 
    177 H177        3.1602   -7.6260  -42.4157 H         1 UNK         0.0600 
    178 H178        2.5385   -8.4415  -40.9910 H         1 UNK         0.0600 
    179 H179        3.1011   -9.9403  -44.7413 H         1 UNK         0.3000 
    180 H180        6.1159   -8.9837  -45.7899 H         1 UNK         0.0600 
    181 H181        7.3308  -11.0006  -44.9804 H         1 UNK         0.0600 
    182 H182        6.8992  -11.1873  -46.6704 H         1 UNK         0.0600 
    183 H183        5.9743  -12.0283  -45.4256 H         1 UNK         0.0600 
    184 H184        4.2961  -10.9828  -46.8655 H         1 UNK         0.3000 
    185 H185        1.6975   -8.8237  -47.7198 H         1 UNK         0.0600 
    186 H186        3.2292   -8.2703  -49.6203 H         1 UNK         0.0600 
    187 H187        3.7262   -9.9549  -49.7220 H         1 UNK         0.0600 
    188 H188        2.0596   -9.4970  -50.0773 H         1 UNK         0.0600 
    189 H189        2.1187  -11.4652  -48.5581 H         1 UNK         0.3000 
    190 H190       -1.8238  -21.4308  -46.9872 H         1 UNK         0.3000 
    191 H191       -2.8347  -22.3769  -49.4471 H         1 UNK         0.0600 
    192 H192       -4.3068  -21.4437  -46.9335 H         1 UNK         0.0600 
    193 H193       -5.0512  -21.6686  -48.5140 H         1 UNK         0.0600 
    194 H194       -3.8113  -20.4465  -48.2990 H         1 UNK         0.0600 
    195 H195       -3.1088  -23.7783  -46.1444 H         1 UNK         0.3000 
    196 H196       -4.8026  -25.9445  -46.8319 H         1 UNK         0.0600 
    197 H197       -4.0139  -26.9286  -44.6867 H         1 UNK         0.0600 
    198 H198       -4.4096  -25.2276  -44.4948 H         1 UNK         0.0600 
    199 H199       -2.7259  -25.7364  -44.5892 H         1 UNK         0.0600 
    200 H200       -1.2092  -25.7459  -46.7341 H         1 UNK         0.3000 
    201 H201       -0.6788  -28.4011  -47.5946 H         1 UNK         0.0600 
    202 H202        1.0148  -26.9532  -46.5082 H         1 UNK         0.0600 
    203 H203        0.9985  -25.8509  -47.8824 H         1 UNK         0.0600 
    204 H204        1.6002  -27.4934  -48.0749 H         1 UNK         0.0600 
    205 H205       -1.2419  -25.4053  -49.4277 H         1 UNK         0.3000 
    206 H206       -0.8129  -26.5390  -52.0522 H         1 UNK         0.0600 
    207 H207       -1.6752  -24.3048  -52.7684 H         1 UNK         0.0600 
    208 H208       -2.1969  -23.9691  -51.1286 H         1 UNK         0.0600 
    209 H209       -0.4805  -24.1221  -51.4999 H         1 UNK         0.0600 
    210 H210       -3.3039  -27.0843  -49.8820 H         1 UNK         0.3000 
    211 H211       -5.3761  -27.8330  -49.8914 H         1 UNK         0.0600 
    212 H212       -4.8719  -28.7252  -52.7814 H         1 UNK         0.0600 
    213 H213       -6.1029  -29.3531  -51.6941 H         1 UNK         0.0600 
    214 H214       -4.4054  -29.6323  -51.3432 H         1 UNK         0.0600 
    215 H215       -5.0203  -25.1300  -50.4181 H         1 UNK         0.3000 
    216 H216       -5.9485  -23.2322  -50.8802 H         1 UNK         0.0600 
    217 H217       -8.3944  -23.0201  -51.1936 H         1 UNK         0.0600 
    218 H218       -8.0286  -24.1674  -49.9143 H         1 UNK         0.0600 
    219 H219       -8.5387  -24.7442  -51.5002 H         1 UNK         0.0600 
    220 H220       -6.8232  -25.5363  -53.4359 H         1 UNK         0.3000 
    221 H221       -7.4579  -23.7497  -55.4715 H         1 UNK         0.0600 
    222 H222       -6.3423  -26.5967  -55.6700 H         1 UNK         0.0600 
    223 H223       -8.0393  -26.1485  -55.5069 H         1 UNK         0.0600 
    224 H224       -7.1603  -25.7383  -56.9716 H         1 UNK         0.0600 
    225 H225       -4.2055  -25.1102  -54.7366 H         1 UNK         0.3000 
    226 H226       -3.0159  -23.8510  -57.0930 H         1 UNK         0.0600 
    227 H227       -2.1868  -26.0293  -56.3059 H         1 UNK         0.0600 
    228 H228       -0.9117  -24.8248  -56.2240 H         1 UNK         0.0600 
    229 H229       -1.7255  -25.3398  -54.7559 H         1 UNK         0.0600 
    230 H230       -3.6811  -22.8370  -53.8468 H         1 UNK         0.3000 
    231 H231       -1.6616  -20.6781  -53.8185 H         1 UNK         0.0600 
    232 H232       -3.8362  -21.5397  -51.8449 H         1 UNK         0.0600 
    233 H233       -2.0840  -21.6752  -51.6694 H         1 UNK         0.0600 
    234 H234       -2.8493  -20.1009  -51.6430 H         1 UNK         0.0600 
    235 H235       -5.1992  -21.1073  -54.0586 H         1 UNK         0.3000 
    236 H236       -6.8705  -19.9534  -54.8612 H         1 UNK         0.0600 
    237 H237       -4.8727  -18.3112  -56.4999 H         1 UNK         0.0600 
    238 H238       -5.5256  -19.8804  -56.9710 H         1 UNK         0.0600 
    239 H239       -6.5919  -18.4943  -56.8164 H         1 UNK         0.0600 
    240 H240       -5.6452  -19.1057  -52.3690 H         1 UNK         0.3000 
    241 H241       -5.9637  -16.2309  -52.1513 H         1 UNK         0.0600 
    242 H242       -9.6223  -17.7382  -51.4086 H         1 UNK         0.3800 
    243 H243       -8.4065  -18.6611  -52.2517 H         1 UNK         0.3800 
    244 H244       -5.5397  -16.5843  -49.7176 H         1 UNK         0.0800 
    245 H245       -5.5876  -18.3169  -49.9509 H         1 UNK         0.0800 
    246 H246       -3.3055  -18.2537  -48.6232 H         1 UNK         0.0800 
    247 H247       -3.0955  -16.5205  -48.6409 H         1 UNK         0.0800 
@<TRIPOS>BOND
     1    1    2 1    
     2    1  127 1    
     3    1  128 1    
     4    1  129 1    
     5    2    3 2    
     6    2    4 am   BACKBONE|DICT|INTERRES
     7    4    5 1    
     8    4  130 1    
     9    5    6 1    
    10    5   65 1    
    11    5  131 1    
    12    6    7 1    
    13    6  132 1    
    14    6  133 1    
    15    7    8 1    
    16    8    9 1    
    17    8  134 1    
    18    8  135 1    
    19    9   10 ar   
    20    9   14 ar   
    21   10   11 ar   
    22   10  136 1    
    23   11   12 ar   
    24   11  126 1    
    25   12   13 ar   
    26   12  137 1    
    27   13   14 ar   
    28   13   15 1    
    29   14  138 1    
    30   15   16 1    
    31   15  139 1    
    32   15  140 1    
    33   16   17 1    
    34   17   18 1    
    35   17  141 1    
    36   17  142 1    
    37   18   19 1    
    38   18   67 1    
    39   18  143 1    
    40   19   20 am   BACKBONE|DICT|INTERRES
    41   19  144 1    
    42   20   21 2    
    43   20   22 1    
    44   22   23 1    
    45   22   24 1    
    46   22  145 1    
    47   23  146 1    
    48   23  147 1    
    49   23  148 1    
    50   24   25 am   BACKBONE|DICT|INTERRES
    51   24  149 1    
    52   25   26 2    
    53   25   27 1    
    54   27   28 1    
    55   27   29 1    
    56   27  150 1    
    57   28  151 1    
    58   28  152 1    
    59   28  153 1    
    60   29   30 am   BACKBONE|DICT|INTERRES
    61   29  154 1    
    62   30   31 2    
    63   30   32 1    
    64   32   33 1    
    65   32   34 1    
    66   32  155 1    
    67   33  156 1    
    68   33  157 1    
    69   33  158 1    
    70   34   35 am   BACKBONE|DICT|INTERRES
    71   34  159 1    
    72   35   36 2    
    73   35   37 1    
    74   37   38 1    
    75   37   39 1    
    76   37  160 1    
    77   38  161 1    
    78   38  162 1    
    79   38  163 1    
    80   39   40 am   BACKBONE|DICT|INTERRES
    81   39  164 1    
    82   40   41 2    
    83   40   42 1    
    84   42   43 1    
    85   42   44 1    
    86   42  165 1    
    87   43  166 1    
    88   43  167 1    
    89   43  168 1    
    90   44   45 am   BACKBONE|DICT|INTERRES
    91   44  169 1    
    92   45   46 2    
    93   45   47 1    
    94   47   48 1    
    95   47   49 1    
    96   47  170 1    
    97   48  171 1    
    98   48  172 1    
    99   48  173 1    
   100   49   50 am   BACKBONE|DICT|INTERRES
   101   49  174 1    
   102   50   51 2    
   103   50   52 1    
   104   52   53 1    
   105   52   54 1    
   106   52  175 1    
   107   53  176 1    
   108   53  177 1    
   109   53  178 1    
   110   54   55 am   BACKBONE|DICT|INTERRES
   111   54  179 1    
   112   55   56 2    
   113   55   57 1    
   114   57   58 1    
   115   57   59 1    
   116   57  180 1    
   117   58  181 1    
   118   58  182 1    
   119   58  183 1    
   120   59   60 am   BACKBONE|DICT|INTERRES
   121   59  184 1    
   122   60   61 2    
   123   60   62 1    
   124   62   63 1    
   125   62   64 1    
   126   62  185 1    
   127   63  186 1    
   128   63  187 1    
   129   63  188 1    
   130   64   65 am   BACKBONE|DICT|INTERRES
   131   64  189 1    
   132   65   66 2    
   133   67   68 2    
   134   67   69 am   BACKBONE|DICT|INTERRES
   135   69   70 1    
   136   69  190 1    
   137   70   71 1    
   138   70   72 1    
   139   70  191 1    
   140   71  192 1    
   141   71  193 1    
   142   71  194 1    
   143   72   73 2    
   144   72   74 am   BACKBONE|DICT|INTERRES
   145   74   75 1    
   146   74  195 1    
   147   75   76 1    
   148   75   77 1    
   149   75  196 1    
   150   76  197 1    
   151   76  198 1    
   152   76  199 1    
   153   77   78 2    
   154   77   79 am   BACKBONE|DICT|INTERRES
   155   79   80 1    
   156   79  200 1    
   157   80   81 1    
   158   80   82 1    
   159   80  201 1    
   160   81  202 1    
   161   81  203 1    
   162   81  204 1    
   163   82   83 2    
   164   82   84 am   BACKBONE|DICT|INTERRES
   165   84   85 1    
   166   84  205 1    
   167   85   86 1    
   168   85   87 1    
   169   85  206 1    
   170   86  207 1    
   171   86  208 1    
   172   86  209 1    
   173   87   88 2    
   174   87   89 am   BACKBONE|DICT|INTERRES
   175   89   90 1    
   176   89  210 1    
   177   90   91 1    
   178   90   92 1    
   179   90  211 1    
   180   91  212 1    
   181   91  213 1    
   182   91  214 1    
   183   92   93 2    
   184   92   94 am   BACKBONE|DICT|INTERRES
   185   94   95 1    
   186   94  215 1    
   187   95   96 1    
   188   95   97 1    
   189   95  216 1    
   190   96  217 1    
   191   96  218 1    
   192   96  219 1    
   193   97   98 2    
   194   97   99 am   BACKBONE|DICT|INTERRES
   195   99  100 1    
   196   99  220 1    
   197  100  101 1    
   198  100  102 1    
   199  100  221 1    
   200  101  222 1    
   201  101  223 1    
   202  101  224 1    
   203  102  103 2    
   204  102  104 am   BACKBONE|DICT|INTERRES
   205  104  105 1    
   206  104  225 1    
   207  105  106 1    
   208  105  107 1    
   209  105  226 1    
   210  106  227 1    
   211  106  228 1    
   212  106  229 1    
   213  107  108 2    
   214  107  109 am   BACKBONE|DICT|INTERRES
   215  109  110 1    
   216  109  230 1    
   217  110  111 1    
   218  110  112 1    
   219  110  231 1    
   220  111  232 1    
   221  111  233 1    
   222  111  234 1    
   223  112  113 2    
   224  112  114 am   BACKBONE|DICT|INTERRES
   225  114  115 1    
   226  114  235 1    
   227  115  116 1    
   228  115  117 1    
   229  115  236 1    
   230  116  237 1    
   231  116  238 1    
   232  116  239 1    
   233  117  118 2    
   234  117  119 am   BACKBONE|DICT|INTERRES
   235  119  120 1    
   236  119  240 1    
   237  120  121 1    
   238  120  124 1    
   239  120  241 1    
   240  121  122 am   BACKBONE|DICT|INTERRES
   241  121  123 2    
   242  122  242 1    
   243  122  243 1    
   244  124  125 1    
   245  124  244 1    
   246  124  245 1    
   247  125  126 1    
   248  126  246 1    
   249  126  247 1    
@<TRIPOS>SUBSTRUCTURE
     1 UNK         1 GROUP             0       ****    0 ROOT    
