@<TRIPOS>MOLECULE
3R540
247   249    1
SMALL
USER_CHARGES


@<TRIPOS>ATOM
      1 CA          0.4275  -14.0949  -53.4621 C.3       0 UNK        -0.1800 
      2 C           0.3252  -13.2037  -52.2316 C.2       0 UNK         0.5000 
      3 O          -0.1923  -12.0898  -52.3209 O.2       0 UNK        -0.5000 
      4 N           0.8231  -13.6881  -51.0887 N.am      1 UNK        -0.5000 
      5 CA          0.7078  -13.0462  -49.7766 C.3       1 UNK         0.1400 
      6 C6          1.8328  -13.5212  -48.8161 C.3       23 UNK        -0.0398 
      7 S7          1.8027  -15.3084  -48.4307 S.3       23 UNK        -0.2404 
      8 C8          3.0769  -15.9570  -49.5553 C.3       23 UNK        -0.0205 
      9 C9          2.7126  -17.3487  -50.0466 C.ar      23 UNK        -0.0193 
     10 C10         1.7026  -17.5044  -50.9996 C.ar      23 UNK        -0.1150 
     11 C11         1.3621  -18.7709  -51.4769 C.ar      23 UNK        -0.0193 
     12 C12         2.0446  -19.8925  -50.9963 C.ar      23 UNK        -0.1150 
     13 C13         3.0556  -19.7535  -50.0395 C.ar      23 UNK        -0.0193 
     14 C14         3.3864  -18.4771  -49.5698 C.ar      23 UNK        -0.1150 
     15 C15         3.8110  -20.9804  -49.5426 C.3       23 UNK        -0.0205 
     16 S16         3.6753  -21.2146  -47.7411 S.3       23 UNK        -0.2404 
     17 C17         1.8840  -21.4931  -47.5212 C.3       23 UNK        -0.0398 
     18 CA          1.5580  -22.6141  -46.4927 C.3       11 UNK         0.1400 
     19 N           2.2216  -22.3847  -45.2114 N.am      11 UNK        -0.5000 
     20 C           2.8038  -23.3074  -44.4387 C.2       10 UNK         0.5000 
     21 O           2.9635  -24.4825  -44.7759 O.2       10 UNK        -0.5000 
     22 CA          3.2551  -22.8301  -43.0416 C.3       10 UNK         0.1400 
     23 CB          4.3268  -23.7358  -42.3986 C.3       10 UNK        -0.1800 
     24 N           3.6563  -21.4190  -43.0208 N.am      10 UNK        -0.5000 
     25 C           4.7182  -20.8581  -43.6205 C.2       9 UNK         0.5000 
     26 O           5.5723  -21.4977  -44.2357 O.2       9 UNK        -0.5000 
     27 CA          4.8604  -19.3222  -43.5310 C.3       9 UNK         0.1400 
     28 CB          4.7968  -18.6893  -44.9317 C.3       9 UNK        -0.1800 
     29 N           3.8533  -18.6832  -42.6801 N.am      9 UNK        -0.5000 
     30 C           3.8506  -18.6861  -41.3406 C.2       8 UNK         0.5000 
     31 O           4.7478  -19.1810  -40.6577 O.2       8 UNK        -0.5000 
     32 CA          2.6176  -18.0718  -40.6468 C.3       8 UNK         0.1400 
     33 CB          2.8183  -16.5672  -40.4124 C.3       8 UNK        -0.1800 
     34 N           1.3676  -18.2921  -41.3820 N.am      8 UNK        -0.5000 
     35 C           0.8167  -19.4954  -41.6032 C.2       7 UNK         0.5000 
     36 O           1.2928  -20.5499  -41.1823 O.2       7 UNK        -0.5000 
     37 CA         -0.4418  -19.5393  -42.4911 C.3       7 UNK         0.1400 
     38 CB         -1.6945  -19.1528  -41.6916 C.3       7 UNK        -0.1800 
     39 N          -0.3275  -18.6895  -43.6770 N.am      7 UNK        -0.5000 
     40 C           0.5913  -18.8594  -44.6384 C.2       6 UNK         0.5000 
     41 O           1.4064  -19.7793  -44.6420 O.2       6 UNK        -0.5000 
     42 CA          0.6523  -17.7976  -45.7486 C.3       6 UNK         0.1400 
     43 CB         -0.4633  -18.0179  -46.7781 C.3       6 UNK        -0.1800 
     44 N           0.5730  -16.4402  -45.2132 N.am      6 UNK        -0.5000 
     45 C           1.4717  -15.8948  -44.3823 C.2       5 UNK         0.5000 
     46 O           2.5009  -16.4611  -44.0183 O.2       5 UNK        -0.5000 
     47 CA          1.1326  -14.5091  -43.8096 C.3       5 UNK         0.1400 
     48 CB          1.5003  -13.3910  -44.7962 C.3       5 UNK        -0.1800 
     49 N          -0.2800  -14.4059  -43.4448 N.am      5 UNK        -0.5000 
     50 C          -0.8422  -15.0502  -42.4126 C.2       4 UNK         0.5000 
     51 O          -0.2168  -15.7692  -41.6333 O.2       4 UNK        -0.5000 
     52 CA         -2.3644  -14.8896  -42.2442 C.3       4 UNK         0.1400 
     53 CB         -2.6910  -13.6017  -41.4736 C.3       4 UNK        -0.1800 
     54 N          -3.0747  -14.8822  -43.5241 N.am      4 UNK        -0.5000 
     55 C          -3.1878  -15.9482  -44.3288 C.2       3 UNK         0.5000 
     56 O          -2.7364  -17.0600  -44.0562 O.2       3 UNK        -0.5000 
     57 CA         -3.8819  -15.7211  -45.6856 C.3       3 UNK         0.1400 
     58 CB         -5.4046  -15.8667  -45.5470 C.3       3 UNK        -0.1800 
     59 N          -3.5755  -14.4280  -46.3072 N.am      3 UNK        -0.5000 
     60 C          -2.3439  -14.0084  -46.6251 C.2       2 UNK         0.5000 
     61 O          -1.3189  -14.6281  -46.3380 O.2       2 UNK        -0.5000 
     62 CA         -2.2398  -12.6384  -47.3230 C.3       2 UNK         0.1400 
     63 CB         -2.2829  -11.5108  -46.2795 C.3       2 UNK        -0.1800 
     64 N          -1.0064  -12.5063  -48.1018 N.am      2 UNK        -0.5000 
     65 C          -0.7102  -13.2376  -49.1850 C.2       1 UNK         0.5000 
     66 O          -1.5022  -14.0280  -49.7055 O.2       1 UNK        -0.5000 
     67 C           0.0410  -22.7744  -46.2175 C.2       11 UNK         0.5000 
     68 O          -0.3356  -23.3035  -45.1686 O.2       11 UNK        -0.5000 
     69 N          -0.8131  -22.3316  -47.1552 N.am      12 UNK        -0.5000 
     70 CA         -2.2840  -22.3205  -47.0772 C.3       12 UNK         0.1400 
     71 CB         -2.7739  -21.4178  -45.9239 C.3       12 UNK        -0.1800 
     72 C          -2.9408  -23.7216  -47.0562 C.2       12 UNK         0.5000 
     73 O          -4.1234  -23.8436  -46.7331 O.2       12 UNK        -0.5000 
     74 N          -2.1721  -24.7544  -47.4286 N.am      13 UNK        -0.5000 
     75 CA         -2.5199  -26.1722  -47.3055 C.3       13 UNK         0.1400 
     76 CB         -1.2517  -27.0042  -47.5532 C.3       13 UNK        -0.1800 
     77 C          -3.6654  -26.6569  -48.2167 C.2       13 UNK         0.5000 
     78 O          -4.2273  -27.7196  -47.9486 O.2       13 UNK        -0.5000 
     79 N          -3.9952  -25.8919  -49.2665 N.am      14 UNK        -0.5000 
     80 CA         -5.0861  -26.1975  -50.1965 C.3       14 UNK         0.1400 
     81 CB         -4.6579  -25.8042  -51.6213 C.3       14 UNK        -0.1800 
     82 C          -6.3955  -25.4867  -49.8032 C.2       14 UNK         0.5000 
     83 O          -7.4039  -25.6747  -50.4835 O.2       14 UNK        -0.5000 
     84 N          -6.3516  -24.6619  -48.7436 N.am      15 UNK        -0.5000 
     85 CA         -7.4216  -23.8075  -48.2158 C.3       15 UNK         0.1400 
     86 CB         -8.6490  -24.6374  -47.7858 C.3       15 UNK        -0.1800 
     87 C          -7.8008  -22.6270  -49.1361 C.2       15 UNK         0.5000 
     88 O          -8.7489  -21.9038  -48.8267 O.2       15 UNK        -0.5000 
     89 N          -7.0413  -22.4168  -50.2215 N.am      16 UNK        -0.5000 
     90 CA         -7.1399  -21.2391  -51.0848 C.3       16 UNK         0.1400 
     91 CB         -6.5056  -21.5480  -52.4482 C.3       16 UNK        -0.1800 
     92 C          -6.4898  -20.0124  -50.4189 C.2       16 UNK         0.5000 
     93 O          -6.9799  -18.8966  -50.5908 O.2       16 UNK        -0.5000 
     94 N          -5.4308  -20.2652  -49.6333 N.am      17 UNK        -0.5000 
     95 CA         -4.7619  -19.4066  -48.6483 C.3       17 UNK         0.1400 
     96 CB         -5.7193  -19.0667  -47.4934 C.3       17 UNK        -0.1800 
     97 C          -4.0670  -18.1372  -49.1744 C.2       17 UNK         0.5000 
     98 O          -3.0146  -17.7884  -48.6468 O.2       17 UNK        -0.5000 
     99 N          -4.6415  -17.4727  -50.1777 N.am      18 UNK        -0.5000 
    100 CA        -4.1440  -16.2239  -50.7527 C.3       18 UNK         0.1400 
    101 CB        -4.7391  -15.0341  -49.9748 C.3       18 UNK        -0.1800 
    102 C         -4.4336  -16.1546  -52.2630 C.2       18 UNK         0.5000 
    103 O         -4.5795  -15.0603  -52.8105 O.2       18 UNK        -0.5000 
    104 N         -4.5281  -17.3181  -52.9166 N.am      19 UNK        -0.5000 
    105 CA        -4.7950  -17.4628  -54.3418 C.3       19 UNK         0.1400 
    106 CB        -6.3117  -17.4070  -54.5953 C.3       19 UNK        -0.1800 
    107 C         -4.2117  -18.7941  -54.8271 C.2       19 UNK         0.5000 
    108 O         -4.1776  -19.7592  -54.0591 O.2       19 UNK        -0.5000 
    109 N         -3.7979  -18.8253  -56.1014 N.am      20 UNK        -0.5000 
    110 CA        -3.2275  -19.9741  -56.8118 C.3       20 UNK         0.1400 
    111 CB        -4.3295  -21.0223  -57.0927 C.3       20 UNK        -0.1800 
    112 C         -1.9824  -20.5365  -56.0901 C.2       20 UNK         0.5000 
    113 O         -1.0456  -19.7803  -55.8272 O.2       20 UNK        -0.5000 
    114 N         -1.9952  -21.8373  -55.7739 N.am      21 UNK        -0.5000 
    115 CA        -0.9542  -22.5270  -55.0106 C.3       21 UNK         0.1400 
    116 CB        -1.0364  -24.0300  -55.3218 C.3       21 UNK        -0.1800 
    117 C         -1.0533  -22.2896  -53.4898 C.2       21 UNK         0.5000 
    118 O         -0.1365  -22.6815  -52.7652 O.2       21 UNK        -0.5000 
    119 N         -2.1541  -21.6794  -53.0262 N.am      22 UNK        -0.5000 
    120 CA        -2.5114  -21.3804  -51.6282 C.3       22 UNK         0.1400 
    121 C         -2.7573  -22.6428  -50.7584 C.2       22 UNK         0.5000 
    122 N         -1.8315  -23.5924  -50.7365 N.am      22 UNK        -0.7600 
    123 O         -3.7930  -22.7567  -50.1049 O.2       22 UNK        -0.5000 
    124 C124       -1.5310  -20.4061  -50.9264 C.3       23 UNK        -0.0398 
    125 S125       -1.3942  -18.8066  -51.7961 S.3       23 UNK        -0.2404 
    126 C126        0.2698  -18.9132  -52.5260 C.3       23 UNK        -0.0205 
    127 H127        0.9899  -15.0065  -53.2589 H         1 UNK         0.0600 
    128 H128        0.9268  -13.5627  -54.2718 H         1 UNK         0.0600 
    129 H129       -0.5687  -14.3788  -53.8017 H         1 UNK         0.0600 
    130 H130        1.1877  -14.6275  -51.0661 H         1 UNK         0.3000 
    131 H131        0.8425  -11.9719  -49.9201 H         1 UNK         0.0600 
    132 H132        2.8055  -13.2609  -49.2353 H         1 UNK         0.0800 
    133 H133        1.7804  -12.9739  -47.8749 H         1 UNK         0.0800 
    134 H134        4.0374  -15.9649  -49.0379 H         1 UNK         0.0800 
    135 H135        3.1987  -15.3005  -50.4176 H         1 UNK         0.0800 
    136 H136        1.1712  -16.6400  -51.3683 H         1 UNK         0.1150 
    137 H137        1.7919  -20.8736  -51.3742 H         1 UNK         0.1150 
    138 H138        4.1707  -18.3655  -48.8342 H         1 UNK         0.1150 
    139 H139        3.4653  -21.8848  -50.0458 H         1 UNK         0.0800 
    140 H140        4.8647  -20.8708  -49.8020 H         1 UNK         0.0800 
    141 H141        1.4554  -21.7376  -48.4939 H         1 UNK         0.0800 
    142 H142        1.4445  -20.5430  -47.2177 H         1 UNK         0.0800 
    143 H143        1.9013  -23.5604  -46.9151 H         1 UNK         0.0600 
    144 H144        2.1002  -21.4446  -44.8398 H         1 UNK         0.3000 
    145 H145        2.3662  -22.8894  -42.4122 H         1 UNK         0.0600 
    146 H146        4.6233  -23.3613  -41.4188 H         1 UNK         0.0600 
    147 H147        3.9459  -24.7477  -42.2564 H         1 UNK         0.0600 
    148 H148        5.2219  -23.8108  -43.0161 H         1 UNK         0.0600 
    149 H149        3.0071  -20.8009  -42.5497 H         1 UNK         0.3000 
    150 H150        5.8467  -19.1145  -43.1116 H         1 UNK         0.0600 
    151 H151        5.5657  -19.1013  -45.5863 H         1 UNK         0.0600 
    152 H152        4.9533  -17.6115  -44.8864 H         1 UNK         0.0600 
    153 H153        3.8336  -18.8673  -45.4102 H         1 UNK         0.0600 
    154 H154        3.1095  -18.1890  -43.1631 H         1 UNK         0.3000 
    155 H155        2.5163  -18.5540  -39.6724 H         1 UNK         0.0600 
    156 H156        3.7264  -16.3789  -39.8384 H         1 UNK         0.0600 
    157 H157        1.9856  -16.1408  -39.8529 H         1 UNK         0.0600 
    158 H158        2.9047  -16.0212  -41.3518 H         1 UNK         0.0600 
    159 H159        0.8933  -17.4642  -41.7287 H         1 UNK         0.3000 
    160 H160       -0.5665  -20.5682  -42.8361 H         1 UNK         0.0600 
    161 H161       -1.6539  -18.1173  -41.3532 H         1 UNK         0.0600 
    162 H162       -1.8052  -19.7839  -40.8090 H         1 UNK         0.0600 
    163 H163       -2.5962  -19.2728  -42.2924 H         1 UNK         0.0600 
    164 H164       -1.0039  -17.9369  -43.7671 H         1 UNK         0.3000 
    165 H165        1.6115  -17.8983  -46.2610 H         1 UNK         0.0600 
    166 H166       -0.3951  -17.2991  -47.5951 H         1 UNK         0.0600 
    167 H167       -0.4080  -19.0132  -47.2187 H         1 UNK         0.0600 
    168 H168       -1.4511  -17.9141  -46.3299 H         1 UNK         0.0600 
    169 H169       -0.2141  -15.8717  -45.5184 H         1 UNK         0.3000 
    170 H170        1.7290  -14.3679  -42.9057 H         1 UNK         0.0600 
    171 H171        2.5532  -13.4486  -45.0748 H         1 UNK         0.0600 
    172 H172        0.9163  -13.4542  -45.7131 H         1 UNK         0.0600 
    173 H173        1.3313  -12.4073  -44.3584 H         1 UNK         0.0600 
    174 H174       -0.8758  -13.9036  -44.0858 H         1 UNK         0.3000 
    175 H175       -2.7255  -15.7377  -41.6585 H         1 UNK         0.0600 
    176 H176       -2.1868  -13.5880  -40.5064 H         1 UNK         0.0600 
    177 H177       -2.3762  -12.7122  -42.0207 H         1 UNK         0.0600 
    178 H178       -3.7609  -13.5176  -41.2822 H         1 UNK         0.0600 
    179 H179       -3.4734  -14.0053  -43.8248 H         1 UNK         0.3000 
    180 H180       -3.5258  -16.5001  -46.3614 H         1 UNK         0.0600 
    181 H181       -5.6669  -16.8072  -45.0608 H         1 UNK         0.0600 
    182 H182       -5.8337  -15.0609  -44.9503 H         1 UNK         0.0600 
    183 H183       -5.8908  -15.8596  -46.5229 H         1 UNK         0.0600 
    184 H184       -4.3669  -13.8492  -46.5480 H         1 UNK         0.3000 
    185 H185       -3.0874  -12.5284  -48.0027 H         1 UNK         0.0600 
    186 H186       -3.2035  -11.5484  -45.6958 H         1 UNK         0.0600 
    187 H187       -1.4481  -11.5771  -45.5803 H         1 UNK         0.0600 
    188 H188       -2.2442  -10.5309  -46.7559 H         1 UNK         0.0600 
    189 H189       -0.3086  -11.8844  -47.7227 H         1 UNK         0.3000 
    190 H190       -0.4292  -21.9436  -48.0039 H         1 UNK         0.3000 
    191 H191       -2.6161  -21.8530  -47.9999 H         1 UNK         0.0600 
    192 H192       -2.5328  -21.8367  -44.9468 H         1 UNK         0.0600 
    193 H193       -3.8559  -21.2864  -45.9602 H         1 UNK         0.0600 
    194 H194       -2.3275  -20.4250  -45.9807 H         1 UNK         0.0600 
    195 H195       -1.2160  -24.5527  -47.6783 H         1 UNK         0.3000 
    196 H196       -2.8406  -26.3426  -46.2757 H         1 UNK         0.0600 
    197 H197       -1.4506  -28.0699  -47.4311 H         1 UNK         0.0600 
    198 H198       -0.4630  -26.7416  -46.8478 H         1 UNK         0.0600 
    199 H199       -0.8645  -26.8565  -48.5622 H         1 UNK         0.0600 
    200 H200       -3.5604  -24.9866  -49.3724 H         1 UNK         0.3000 
    201 H201       -5.2869  -27.2707  -50.1970 H         1 UNK         0.0600 
    202 H202       -5.3867  -26.1518  -52.3544 H         1 UNK         0.0600 
    203 H203       -4.5737  -24.7248  -51.7404 H         1 UNK         0.0600 
    204 H204       -3.6980  -26.2483  -51.8849 H         1 UNK         0.0600 
    205 H205       -5.4698  -24.5743  -48.2509 H         1 UNK         0.3000 
    206 H206       -7.0077  -23.3529  -47.3145 H         1 UNK         0.0600 
    207 H207       -8.3593  -25.4627  -47.1354 H         1 UNK         0.0600 
    208 H208       -9.3595  -24.0235  -47.2311 H         1 UNK         0.0600 
    209 H209       -9.1814  -25.0531  -48.6414 H         1 UNK         0.0600 
    210 H210       -6.2697  -23.0463  -50.3912 H         1 UNK         0.3000 
    211 H211       -8.1945  -21.0081  -51.2492 H         1 UNK         0.0600 
    212 H212       -6.5484  -20.6775  -53.1037 H         1 UNK         0.0600 
    213 H213       -7.0348  -22.3573  -52.9511 H         1 UNK         0.0600 
    214 H214       -5.4614  -21.8436  -52.3572 H         1 UNK         0.0600 
    215 H215       -5.0936  -21.2217  -49.6410 H         1 UNK         0.3000 
    216 H216       -3.9686  -20.0240  -48.2309 H         1 UNK         0.0600 
    217 H217       -6.5259  -18.4073  -47.8160 H         1 UNK         0.0600 
    218 H218       -5.1851  -18.5664  -46.6858 H         1 UNK         0.0600 
    219 H219       -6.1680  -19.9673  -47.0738 H         1 UNK         0.0600 
    220 H220       -5.5313  -17.8211  -50.5310 H         1 UNK         0.3000 
    221 H221       -3.0567  -16.1882  -50.6561 H         1 UNK         0.0600 
    222 H222       -5.8249  -14.9980  -50.0673 H         1 UNK         0.0600 
    223 H223       -4.4933  -15.0979  -48.9156 H         1 UNK         0.0600 
    224 H224       -4.3408  -14.0865  -50.3390 H         1 UNK         0.0600 
    225 H225       -4.3292  -18.1848  -52.4338 H         1 UNK         0.3000 
    226 H226       -4.3037  -16.6531  -54.8857 H         1 UNK         0.0600 
    227 H227       -6.7289  -16.4465  -54.2928 H         1 UNK         0.0600 
    228 H228       -6.5381  -17.5401  -55.6538 H         1 UNK         0.0600 
    229 H229       -6.8377  -18.1880  -54.0446 H         1 UNK         0.0600 
    230 H230       -3.8476  -17.9719  -56.6397 H         1 UNK         0.3000 
    231 H231       -2.8750  -19.6005  -57.7742 H         1 UNK         0.0600 
    232 H232       -5.1602  -20.5730  -57.6371 H         1 UNK         0.0600 
    233 H233       -4.7353  -21.4512  -56.1755 H         1 UNK         0.0600 
    234 H234       -3.9530  -21.8391  -57.7097 H         1 UNK         0.0600 
    235 H235       -2.8075  -22.3835  -56.0218 H         1 UNK         0.3000 
    236 H236        0.0232  -22.1632  -55.3345 H         1 UNK         0.0600 
    237 H237       -0.9174  -24.2195  -56.3888 H         1 UNK         0.0600 
    238 H238       -0.2483  -24.5809  -54.8066 H         1 UNK         0.0600 
    239 H239       -1.9912  -24.4544  -55.0085 H         1 UNK         0.0600 
    240 H240       -2.8311  -21.3447  -53.7017 H         1 UNK         0.3000 
    241 H241       -3.4695  -20.8654  -51.6860 H         1 UNK         0.0600 
    242 H242       -1.0211  -23.4724  -51.3404 H         1 UNK         0.3800 
    243 H243       -1.9442  -24.4474  -50.2258 H         1 UNK         0.3800 
    244 H244       -1.8696  -20.1890  -49.9125 H         1 UNK         0.0800 
    245 H245       -0.5480  -20.8617  -50.8183 H         1 UNK         0.0800 
    246 H246        0.3788  -19.8486  -53.0739 H         1 UNK         0.0800 
    247 H247        0.3746  -18.1200  -53.2676 H         1 UNK         0.0800 
@<TRIPOS>BOND
     1    1    2 1    
     2    1  127 1    
     3    1  128 1    
     4    1  129 1    
     5    2    3 2    
     6    2    4 am   BACKBONE|DICT|INTERRES
     7    4    5 1    
     8    4  130 1    
     9    5    6 1    
    10    5   65 1    
    11    5  131 1    
    12    6    7 1    
    13    6  132 1    
    14    6  133 1    
    15    7    8 1    
    16    8    9 1    
    17    8  134 1    
    18    8  135 1    
    19    9   10 ar   
    20    9   14 ar   
    21   10   11 ar   
    22   10  136 1    
    23   11   12 ar   
    24   11  126 1    
    25   12   13 ar   
    26   12  137 1    
    27   13   14 ar   
    28   13   15 1    
    29   14  138 1    
    30   15   16 1    
    31   15  139 1    
    32   15  140 1    
    33   16   17 1    
    34   17   18 1    
    35   17  141 1    
    36   17  142 1    
    37   18   19 1    
    38   18   67 1    
    39   18  143 1    
    40   19   20 am   BACKBONE|DICT|INTERRES
    41   19  144 1    
    42   20   21 2    
    43   20   22 1    
    44   22   23 1    
    45   22   24 1    
    46   22  145 1    
    47   23  146 1    
    48   23  147 1    
    49   23  148 1    
    50   24   25 am   BACKBONE|DICT|INTERRES
    51   24  149 1    
    52   25   26 2    
    53   25   27 1    
    54   27   28 1    
    55   27   29 1    
    56   27  150 1    
    57   28  151 1    
    58   28  152 1    
    59   28  153 1    
    60   29   30 am   BACKBONE|DICT|INTERRES
    61   29  154 1    
    62   30   31 2    
    63   30   32 1    
    64   32   33 1    
    65   32   34 1    
    66   32  155 1    
    67   33  156 1    
    68   33  157 1    
    69   33  158 1    
    70   34   35 am   BACKBONE|DICT|INTERRES
    71   34  159 1    
    72   35   36 2    
    73   35   37 1    
    74   37   38 1    
    75   37   39 1    
    76   37  160 1    
    77   38  161 1    
    78   38  162 1    
    79   38  163 1    
    80   39   40 am   BACKBONE|DICT|INTERRES
    81   39  164 1    
    82   40   41 2    
    83   40   42 1    
    84   42   43 1    
    85   42   44 1    
    86   42  165 1    
    87   43  166 1    
    88   43  167 1    
    89   43  168 1    
    90   44   45 am   BACKBONE|DICT|INTERRES
    91   44  169 1    
    92   45   46 2    
    93   45   47 1    
    94   47   48 1    
    95   47   49 1    
    96   47  170 1    
    97   48  171 1    
    98   48  172 1    
    99   48  173 1    
   100   49   50 am   BACKBONE|DICT|INTERRES
   101   49  174 1    
   102   50   51 2    
   103   50   52 1    
   104   52   53 1    
   105   52   54 1    
   106   52  175 1    
   107   53  176 1    
   108   53  177 1    
   109   53  178 1    
   110   54   55 am   BACKBONE|DICT|INTERRES
   111   54  179 1    
   112   55   56 2    
   113   55   57 1    
   114   57   58 1    
   115   57   59 1    
   116   57  180 1    
   117   58  181 1    
   118   58  182 1    
   119   58  183 1    
   120   59   60 am   BACKBONE|DICT|INTERRES
   121   59  184 1    
   122   60   61 2    
   123   60   62 1    
   124   62   63 1    
   125   62   64 1    
   126   62  185 1    
   127   63  186 1    
   128   63  187 1    
   129   63  188 1    
   130   64   65 am   BACKBONE|DICT|INTERRES
   131   64  189 1    
   132   65   66 2    
   133   67   68 2    
   134   67   69 am   BACKBONE|DICT|INTERRES
   135   69   70 1    
   136   69  190 1    
   137   70   71 1    
   138   70   72 1    
   139   70  191 1    
   140   71  192 1    
   141   71  193 1    
   142   71  194 1    
   143   72   73 2    
   144   72   74 am   BACKBONE|DICT|INTERRES
   145   74   75 1    
   146   74  195 1    
   147   75   76 1    
   148   75   77 1    
   149   75  196 1    
   150   76  197 1    
   151   76  198 1    
   152   76  199 1    
   153   77   78 2    
   154   77   79 am   BACKBONE|DICT|INTERRES
   155   79   80 1    
   156   79  200 1    
   157   80   81 1    
   158   80   82 1    
   159   80  201 1    
   160   81  202 1    
   161   81  203 1    
   162   81  204 1    
   163   82   83 2    
   164   82   84 am   BACKBONE|DICT|INTERRES
   165   84   85 1    
   166   84  205 1    
   167   85   86 1    
   168   85   87 1    
   169   85  206 1    
   170   86  207 1    
   171   86  208 1    
   172   86  209 1    
   173   87   88 2    
   174   87   89 am   BACKBONE|DICT|INTERRES
   175   89   90 1    
   176   89  210 1    
   177   90   91 1    
   178   90   92 1    
   179   90  211 1    
   180   91  212 1    
   181   91  213 1    
   182   91  214 1    
   183   92   93 2    
   184   92   94 am   BACKBONE|DICT|INTERRES
   185   94   95 1    
   186   94  215 1    
   187   95   96 1    
   188   95   97 1    
   189   95  216 1    
   190   96  217 1    
   191   96  218 1    
   192   96  219 1    
   193   97   98 2    
   194   97   99 am   BACKBONE|DICT|INTERRES
   195   99  100 1    
   196   99  220 1    
   197  100  101 1    
   198  100  102 1    
   199  100  221 1    
   200  101  222 1    
   201  101  223 1    
   202  101  224 1    
   203  102  103 2    
   204  102  104 am   BACKBONE|DICT|INTERRES
   205  104  105 1    
   206  104  225 1    
   207  105  106 1    
   208  105  107 1    
   209  105  226 1    
   210  106  227 1    
   211  106  228 1    
   212  106  229 1    
   213  107  108 2    
   214  107  109 am   BACKBONE|DICT|INTERRES
   215  109  110 1    
   216  109  230 1    
   217  110  111 1    
   218  110  112 1    
   219  110  231 1    
   220  111  232 1    
   221  111  233 1    
   222  111  234 1    
   223  112  113 2    
   224  112  114 am   BACKBONE|DICT|INTERRES
   225  114  115 1    
   226  114  235 1    
   227  115  116 1    
   228  115  117 1    
   229  115  236 1    
   230  116  237 1    
   231  116  238 1    
   232  116  239 1    
   233  117  118 2    
   234  117  119 am   BACKBONE|DICT|INTERRES
   235  119  120 1    
   236  119  240 1    
   237  120  121 1    
   238  120  124 1    
   239  120  241 1    
   240  121  122 am   BACKBONE|DICT|INTERRES
   241  121  123 2    
   242  122  242 1    
   243  122  243 1    
   244  124  125 1    
   245  124  244 1    
   246  124  245 1    
   247  125  126 1    
   248  126  246 1    
   249  126  247 1    
@<TRIPOS>SUBSTRUCTURE
     1 UNK         1 GROUP             0       ****    0 ROOT    
