@<TRIPOS>MOLECULE
3R540
247   249    1
SMALL
USER_CHARGES


@<TRIPOS>ATOM
      1 CA         -4.1879  -10.0262  -48.1494 C.3       0 UNK        -0.1800 
      2 C          -3.4403  -11.2914  -47.7568 C.2       0 UNK         0.5000 
      3 O          -2.2735  -11.2202  -47.3719 O.2       0 UNK        -0.5000 
      4 N          -4.1066  -12.4518  -47.8297 N.am      1 UNK        -0.5000 
      5 CA         -3.5359  -13.7677  -47.5117 C.3       1 UNK         0.1400 
      6 C6         -4.4901  -14.9122  -47.9372 C.3       23 UNK        -0.0398 
      7 S7         -3.6881  -16.5485  -47.9854 S.3       23 UNK        -0.2404 
      8 C8         -2.8084  -16.4768  -49.5766 C.3       23 UNK        -0.0205 
      9 C9         -1.6562  -17.4696  -49.6311 C.ar      23 UNK        -0.0193 
     10 C10        -1.6121  -18.4498  -50.6263 C.ar      23 UNK        -0.1150 
     11 C11        -0.5204  -19.3187  -50.7204 C.ar      23 UNK        -0.0193 
     12 C12         0.5147  -19.2261  -49.7853 C.ar      23 UNK        -0.1150 
     13 C13         0.4758  -18.2602  -48.7756 C.ar      23 UNK        -0.0193 
     14 C14        -0.6066  -17.3784  -48.7112 C.ar      23 UNK        -0.1150 
     15 C15         1.6207  -18.1461  -47.7793 C.3       23 UNK        -0.0205 
     16 S16         1.5540  -19.4317  -46.4899 S.3       23 UNK        -0.2404 
     17 C17         0.0591  -18.9623  -45.5544 C.3       23 UNK        -0.0398 
     18 CA         -1.0539  -20.0284  -45.6256 C.3       11 UNK         0.1400 
     19 N          -0.5907  -21.3159  -45.1027 N.am      11 UNK        -0.5000 
     20 C          -1.2903  -22.4536  -45.0116 C.2       10 UNK         0.5000 
     21 O          -2.4396  -22.5859  -45.4353 O.2       10 UNK        -0.5000 
     22 CA         -0.6094  -23.6122  -44.2583 C.3       10 UNK         0.1400 
     23 CB          0.0630  -24.5722  -45.2502 C.3       10 UNK        -0.1800 
     24 N           0.3863  -23.1733  -43.2723 N.am      10 UNK        -0.5000 
     25 C           0.1696  -22.3609  -42.2289 C.2       9 UNK         0.5000 
     26 O          -0.9244  -21.8505  -41.9871 O.2       9 UNK        -0.5000 
     27 CA          1.3709  -22.0175  -41.3264 C.3       9 UNK         0.1400 
     28 CB          1.5416  -23.0680  -40.2137 C.3       9 UNK        -0.1800 
     29 N           2.6415  -21.7729  -42.0249 N.am      9 UNK        -0.5000 
     30 C           3.4155  -22.6285  -42.7141 C.2       8 UNK         0.5000 
     31 O           3.1004  -23.7924  -42.9637 O.2       8 UNK        -0.5000 
     32 CA          4.7778  -22.0985  -43.2111 C.3       8 UNK         0.1400 
     33 CB          4.6641  -21.6342  -44.6715 C.3       8 UNK        -0.1800 
     34 N           5.3044  -20.9958  -42.4034 N.am      8 UNK        -0.5000 
     35 C           5.6262  -21.0687  -41.1037 C.2       7 UNK         0.5000 
     36 O           5.6614  -22.1261  -40.4729 O.2       7 UNK        -0.5000 
     37 CA          5.9317  -19.7450  -40.3677 C.3       7 UNK         0.1400 
     38 CB          7.4204  -19.6725  -39.9916 C.3       7 UNK        -0.1800 
     39 N           5.5717  -18.5115  -41.0810 N.am      7 UNK        -0.5000 
     40 C           4.3577  -18.1544  -41.5240 C.2       6 UNK         0.5000 
     41 O           3.3625  -18.8831  -41.4565 O.2       6 UNK        -0.5000 
     42 CA          4.2493  -16.7637  -42.1768 C.3       6 UNK         0.1400 
     43 CB          5.4647  -16.4189  -43.0648 C.3       6 UNK        -0.1800 
     44 N           3.0288  -16.7046  -42.9733 N.am      6 UNK        -0.5000 
     45 C           2.3657  -15.5939  -43.3081 C.2       5 UNK         0.5000 
     46 O           2.6753  -14.4633  -42.9249 O.2       5 UNK        -0.5000 
     47 CA          1.1354  -15.8050  -44.2101 C.3       5 UNK         0.1400 
     48 CB         -0.1164  -16.1016  -43.3680 C.3       5 UNK        -0.1800 
     49 N           0.8564  -14.6790  -45.0985 N.am      5 UNK        -0.5000 
     50 C           1.6766  -14.2123  -46.0502 C.2       4 UNK         0.5000 
     51 O           2.7666  -14.7161  -46.3246 O.2       4 UNK        -0.5000 
     52 CA          1.1914  -12.9865  -46.8491 C.3       4 UNK         0.1400 
     53 CB          0.5124  -13.4377  -48.1517 C.3       4 UNK        -0.1800 
     54 N           0.2691  -12.1334  -46.0959 N.am      4 UNK        -0.5000 
     55 C           0.6154  -11.3620  -45.0548 C.2       3 UNK         0.5000 
     56 O           1.7717  -11.2384  -44.6504 O.2       3 UNK        -0.5000 
     57 CA         -0.5192  -10.6076  -44.3384 C.3       3 UNK         0.1400 
     58 CB         -0.7426   -9.2256  -44.9724 C.3       3 UNK        -0.1800 
     59 N          -1.7720  -11.3643  -44.3633 N.am      3 UNK        -0.5000 
     60 C          -2.1008  -12.3087  -43.4699 C.2       2 UNK         0.5000 
     61 O          -1.4126  -12.5868  -42.4880 O.2       2 UNK        -0.5000 
     62 CA         -3.4118  -13.0858  -43.7122 C.3       2 UNK         0.1400 
     63 CB         -4.5727  -12.4333  -42.9467 C.3       2 UNK        -0.1800 
     64 N          -3.7752  -13.1959  -45.1267 N.am      2 UNK        -0.5000 
     65 C          -3.0722  -13.8814  -46.0399 C.2       1 UNK         0.5000 
     66 O          -2.0522  -14.5145  -45.7693 O.2       1 UNK        -0.5000 
     67 C          -2.3257  -19.5007  -44.9230 C.2       11 UNK         0.5000 
     68 O          -3.0760  -18.7539  -45.5452 O.2       11 UNK        -0.5000 
     69 N          -2.5991  -19.9335  -43.6808 N.am      12 UNK        -0.5000 
     70 CA         -3.8493  -19.6525  -42.9642 C.3       12 UNK         0.1400 
     71 CB         -3.7368  -20.1823  -41.5274 C.3       12 UNK        -0.1800 
     72 C          -5.1046  -20.2312  -43.6560 C.2       12 UNK         0.5000 
     73 O          -6.1993  -19.7032  -43.4593 O.2       12 UNK        -0.5000 
     74 N          -4.9178  -21.2783  -44.4707 N.am      13 UNK        -0.5000 
     75 CA         -5.9245  -21.8798  -45.3448 C.3       13 UNK         0.1400 
     76 CB         -6.0516  -23.3706  -44.9833 C.3       13 UNK        -0.1800 
     77 C          -5.5475  -21.6853  -46.8295 C.2       13 UNK         0.5000 
     78 O          -5.9894  -22.4659  -47.6746 O.2       13 UNK        -0.5000 
     79 N          -4.6950  -20.6868  -47.1205 N.am      14 UNK        -0.5000 
     80 CA         -4.1172  -20.3455  -48.4290 C.3       14 UNK         0.1400 
     81 CB         -5.1981  -19.7467  -49.3506 C.3       14 UNK        -0.1800 
     82 C          -3.3436  -21.5059  -49.0944 C.2       14 UNK         0.5000 
     83 O          -3.2311  -21.5477  -50.3188 O.2       14 UNK        -0.5000 
     84 N          -2.8506  -22.4436  -48.2703 N.am      15 UNK        -0.5000 
     85 CA         -2.2195  -23.7113  -48.6388 C.3       15 UNK         0.1400 
     86 CB         -0.8033  -23.4682  -49.1925 C.3       15 UNK        -0.1800 
     87 C          -3.1145  -24.6168  -49.5168 C.2       15 UNK         0.5000 
     88 O          -2.6078  -25.3730  -50.3485 O.2       15 UNK        -0.5000 
     89 N          -4.4357  -24.5390  -49.2866 N.am      16 UNK        -0.5000 
     90 CA         -5.5009  -25.3131  -49.9251 C.3       16 UNK         0.1400 
     91 CB         -5.4578  -26.7800  -49.4406 C.3       16 UNK        -0.1800 
     92 C          -5.4929  -25.1507  -51.4590 C.2       16 UNK         0.5000 
     93 O          -5.7306  -24.0462  -51.9482 O.2       16 UNK        -0.5000 
     94 N          -5.2105  -26.2364  -52.1922 N.am      17 UNK        -0.5000 
     95 CA         -5.1707  -26.2896  -53.6561 C.3       17 UNK         0.1400 
     96 CB         -4.9556  -27.7460  -54.0948 C.3       17 UNK        -0.1800 
     97 C          -4.1112  -25.3723  -54.2989 C.2       17 UNK         0.5000 
     98 O          -4.2761  -24.9835  -55.4562 O.2       17 UNK        -0.5000 
     99 N          -3.0627  -25.0139  -53.5427 N.am      18 UNK        -0.5000 
    100 CA        -2.0113  -24.0918  -53.9749 C.3       18 UNK         0.1400 
    101 CB        -0.8355  -24.1583  -52.9940 C.3       18 UNK        -0.1800 
    102 C         -2.4917  -22.6379  -54.1455 C.2       18 UNK         0.5000 
    103 O         -1.8098  -21.8667  -54.8193 O.2       18 UNK        -0.5000 
    104 N         -3.6614  -22.2838  -53.5893 N.am      19 UNK        -0.5000 
    105 CA        -4.2926  -20.9671  -53.7265 C.3       19 UNK         0.1400 
    106 CB        -5.6135  -20.9510  -52.9455 C.3       19 UNK        -0.1800 
    107 C         -4.5399  -20.5535  -55.1907 C.2       19 UNK         0.5000 
    108 O         -4.4463  -19.3687  -55.5111 O.2       19 UNK        -0.5000 
    109 N         -4.7985  -21.5415  -56.0597 N.am      20 UNK        -0.5000 
    110 CA        -4.9529  -21.3670  -57.5038 C.3       20 UNK         0.1400 
    111 CB        -5.5121  -22.6661  -58.1032 C.3       20 UNK        -0.1800 
    112 C         -3.6467  -20.9620  -58.2174 C.2       20 UNK         0.5000 
    113 O         -3.7123  -20.3139  -59.2627 O.2       20 UNK        -0.5000 
    114 N         -2.4933  -21.3411  -57.6495 N.am      21 UNK        -0.5000 
    115 CA        -1.1690  -20.9556  -58.1334 C.3       21 UNK         0.1400 
    116 CB        -0.1611  -22.0757  -57.8283 C.3       21 UNK        -0.1800 
    117 C         -0.7195  -19.6248  -57.5075 C.2       21 UNK         0.5000 
    118 O         -0.1675  -18.7817  -58.2161 O.2       21 UNK        -0.5000 
    119 N         -0.9662  -19.4578  -56.2008 N.am      22 UNK        -0.5000 
    120 CA        -0.6491  -18.2368  -55.4425 C.3       22 UNK         0.1400 
    121 C         -1.4933  -16.9976  -55.8552 C.2       22 UNK         0.5000 
    122 N         -2.7655  -17.1511  -56.2008 N.am      22 UNK        -0.7600 
    123 O         -0.9837  -15.8805  -55.8649 O.2       22 UNK        -0.5000 
    124 C124       -0.7414  -18.4568  -53.9132 C.3       23 UNK        -0.0398 
    125 S125        0.4322  -19.7115  -53.2981 S.3       23 UNK        -0.2404 
    126 C126       -0.4511  -20.3487  -51.8387 C.3       23 UNK        -0.0205 
    127 H127       -5.2145  -10.2380  -48.4492 H         1 UNK         0.0600 
    128 H128       -3.6830   -9.5375  -48.9825 H         1 UNK         0.0600 
    129 H129       -4.2137   -9.3313  -47.3101 H         1 UNK         0.0600 
    130 H130       -5.0667  -12.4484  -48.1444 H         1 UNK         0.3000 
    131 H131       -2.6353  -13.8480  -48.1209 H         1 UNK         0.0600 
    132 H132       -4.8974  -14.7140  -48.9298 H         1 UNK         0.0800 
    133 H133       -5.3492  -14.9660  -47.2664 H         1 UNK         0.0800 
    134 H134       -2.4042  -15.4780  -49.7413 H         1 UNK         0.0800 
    135 H135       -3.5222  -16.6589  -50.3814 H         1 UNK         0.0800 
    136 H136       -2.4179  -18.5247  -51.3423 H         1 UNK         0.1150 
    137 H137        1.3587  -19.8984  -49.8502 H         1 UNK         0.1150 
    138 H138       -0.6364  -16.6160  -47.9450 H         1 UNK         0.1150 
    139 H139        2.5686  -18.2348  -48.3118 H         1 UNK         0.0800 
    140 H140        1.6304  -17.1602  -47.3127 H         1 UNK         0.0800 
    141 H141       -0.3101  -18.0031  -45.9212 H         1 UNK         0.0800 
    142 H142        0.3532  -18.8032  -44.5160 H         1 UNK         0.0800 
    143 H143       -1.3115  -20.1825  -46.6756 H         1 UNK         0.0600 
    144 H144        0.3506  -21.3235  -44.7387 H         1 UNK         0.3000 
    145 H145       -1.3886  -24.1561  -43.7212 H         1 UNK         0.0600 
    146 H146        0.5177  -25.4178  -44.7338 H         1 UNK         0.0600 
    147 H147       -0.6616  -24.9784  -45.9558 H         1 UNK         0.0600 
    148 H148        0.8431  -24.0734  -45.8270 H         1 UNK         0.0600 
    149 H149        1.3264  -23.5509  -43.3673 H         1 UNK         0.3000 
    150 H150        1.1269  -21.0709  -40.8413 H         1 UNK         0.0600 
    151 H151        0.6280  -23.1634  -39.6255 H         1 UNK         0.0600 
    152 H152        2.3420  -22.7882  -39.5285 H         1 UNK         0.0600 
    153 H153        1.7740  -24.0546  -40.6155 H         1 UNK         0.0600 
    154 H154        2.9950  -20.8274  -41.9110 H         1 UNK         0.3000 
    155 H155        5.4912  -22.9236  -43.1629 H         1 UNK         0.0600 
    156 H156        3.9793  -20.7913  -44.7742 H         1 UNK         0.0600 
    157 H157        4.2930  -22.4371  -45.3101 H         1 UNK         0.0600 
    158 H158        5.6336  -21.3295  -45.0659 H         1 UNK         0.0600 
    159 H159        5.3148  -20.0851  -42.8369 H         1 UNK         0.3000 
    160 H160        5.3491  -19.7623  -39.4446 H         1 UNK         0.0600 
    161 H161        8.0551  -19.6197  -40.8770 H         1 UNK         0.0600 
    162 H162        7.7261  -20.5506  -39.4208 H         1 UNK         0.0600 
    163 H163        7.6305  -18.7993  -39.3736 H         1 UNK         0.0600 
    164 H164        6.3267  -17.8531  -41.2079 H         1 UNK         0.3000 
    165 H165        4.1801  -16.0363  -41.3655 H         1 UNK         0.0600 
    166 H166        5.3335  -15.4560  -43.5591 H         1 UNK         0.0600 
    167 H167        6.3831  -16.3468  -42.4817 H         1 UNK         0.0600 
    168 H168        5.6193  -17.1692  -43.8413 H         1 UNK         0.0600 
    169 H169        2.6643  -17.6099  -43.2377 H         1 UNK         0.3000 
    170 H170        1.3472  -16.6604  -44.8498 H         1 UNK         0.0600 
    171 H171       -0.3908  -15.2471  -42.7484 H         1 UNK         0.0600 
    172 H172       -0.9717  -16.3440  -43.9993 H         1 UNK         0.0600 
    173 H173        0.0457  -16.9503  -42.7023 H         1 UNK         0.0600 
    174 H174       -0.0515  -14.2422  -45.0006 H         1 UNK         0.3000 
    175 H175        2.0680  -12.3899  -47.1097 H         1 UNK         0.0600 
    176 H176       -0.3324  -14.0966  -47.9543 H         1 UNK         0.0600 
    177 H177        0.1499  -12.5863  -48.7281 H         1 UNK         0.0600 
    178 H178        1.2108  -13.9876  -48.7839 H         1 UNK         0.0600 
    179 H179       -0.6943  -12.1135  -46.4104 H         1 UNK         0.3000 
    180 H180       -0.2130  -10.4514  -43.3017 H         1 UNK         0.0600 
    181 H181       -1.5254   -8.6747  -44.4509 H         1 UNK         0.0600 
    182 H182       -1.0271   -9.2996  -46.0222 H         1 UNK         0.0600 
    183 H183        0.1661   -8.6246  -44.9226 H         1 UNK         0.0600 
    184 H184       -2.3628  -11.2262  -45.1726 H         1 UNK         0.3000 
    185 H185       -3.2700  -14.0962  -43.3225 H         1 UNK         0.0600 
    186 H186       -5.4875  -13.0185  -43.0427 H         1 UNK         0.0600 
    187 H187       -4.3460  -12.3597  -41.8822 H         1 UNK         0.0600 
    188 H188       -4.7779  -11.4252  -43.3091 H         1 UNK         0.0600 
    189 H189       -4.5872  -12.6789  -45.4308 H         1 UNK         0.3000 
    190 H190       -1.9520  -20.5645  -43.2184 H         1 UNK         0.3000 
    191 H191       -3.9703  -18.5682  -42.9204 H         1 UNK         0.0600 
    192 H192       -4.6301  -19.9408  -40.9500 H         1 UNK         0.0600 
    193 H193       -2.8851  -19.7415  -41.0090 H         1 UNK         0.0600 
    194 H194       -3.6163  -21.2662  -41.5085 H         1 UNK         0.0600 
    195 H195       -3.9784  -21.6473  -44.5819 H         1 UNK         0.3000 
    196 H196       -6.8966  -21.4053  -45.1993 H         1 UNK         0.0600 
    197 H197       -5.1210  -23.9084  -45.1702 H         1 UNK         0.0600 
    198 H198       -6.3072  -23.4995  -43.9314 H         1 UNK         0.0600 
    199 H199       -6.8359  -23.8541  -45.5670 H         1 UNK         0.0600 
    200 H200       -4.3875  -20.0886  -46.3611 H         1 UNK         0.3000 
    201 H201       -3.3763  -19.5682  -48.2410 H         1 UNK         0.0600 
    202 H202       -4.7600  -19.3689  -50.2749 H         1 UNK         0.0600 
    203 H203       -5.7037  -18.9094  -48.8700 H         1 UNK         0.0600 
    204 H204       -5.9530  -20.4860  -49.6192 H         1 UNK         0.0600 
    205 H205       -2.9812  -22.3180  -47.2713 H         1 UNK         0.3000 
    206 H206       -2.1042  -24.2648  -47.7072 H         1 UNK         0.0600 
    207 H207       -0.1682  -23.0043  -48.4377 H         1 UNK         0.0600 
    208 H208       -0.3217  -24.3993  -49.4925 H         1 UNK         0.0600 
    209 H209       -0.8203  -22.8053  -50.0541 H         1 UNK         0.0600 
    210 H210       -4.7620  -23.8287  -48.6392 H         1 UNK         0.3000 
    211 H211       -6.4412  -24.8802  -49.5806 H         1 UNK         0.0600 
    212 H212       -6.2809  -27.3590  -49.8613 H         1 UNK         0.0600 
    213 H213       -5.5557  -26.8309  -48.3561 H         1 UNK         0.0600 
    214 H214       -4.5254  -27.2784  -49.7079 H         1 UNK         0.0600 
    215 H215       -4.9982  -27.0955  -51.7062 H         1 UNK         0.3000 
    216 H216       -6.1452  -25.9621  -54.0238 H         1 UNK         0.0600 
    217 H217       -4.0059  -28.1392  -53.7299 H         1 UNK         0.0600 
    218 H218       -4.9497  -27.8303  -55.1825 H         1 UNK         0.0600 
    219 H219       -5.7522  -28.3921  -53.7254 H         1 UNK         0.0600 
    220 H220       -3.0112  -25.3461  -52.5866 H         1 UNK         0.3000 
    221 H221       -1.6525  -24.4262  -54.9506 H         1 UNK         0.0600 
    222 H222       -0.4446  -25.1721  -52.9077 H         1 UNK         0.0600 
    223 H223       -1.1390  -23.8286  -52.0037 H         1 UNK         0.0600 
    224 H224       -0.0156  -23.5156  -53.3177 H         1 UNK         0.0600 
    225 H225       -4.1658  -22.9645  -53.0329 H         1 UNK         0.3000 
    226 H226       -3.6217  -20.2333  -53.2778 H         1 UNK         0.0600 
    227 H227       -6.3392  -21.6465  -53.3687 H         1 UNK         0.0600 
    228 H228       -5.4578  -21.2300  -51.9041 H         1 UNK         0.0600 
    229 H229       -6.0623  -19.9571  -52.9543 H         1 UNK         0.0600 
    230 H230       -4.8325  -22.4906  -55.7125 H         1 UNK         0.3000 
    231 H231       -5.6807  -20.5706  -57.6722 H         1 UNK         0.0600 
    232 H232       -4.8341  -23.5059  -57.9444 H         1 UNK         0.0600 
    233 H233       -5.6665  -22.5666  -59.1784 H         1 UNK         0.0600 
    234 H234       -6.4741  -22.9236  -57.6597 H         1 UNK         0.0600 
    235 H235       -2.5202  -21.8147  -56.7549 H         1 UNK         0.3000 
    236 H236       -1.2000  -20.8254  -59.2173 H         1 UNK         0.0600 
    237 H237       -0.0491  -22.2459  -56.7574 H         1 UNK         0.0600 
    238 H238       -0.4673  -23.0161  -58.2865 H         1 UNK         0.0600 
    239 H239        0.8248  -21.8272  -58.2231 H         1 UNK         0.0600 
    240 H240       -1.3621  -20.2304  -55.6729 H         1 UNK         0.3000 
    241 H241        0.3894  -17.9863  -55.6686 H         1 UNK         0.0600 
    242 H242       -3.3008  -16.3427  -56.4734 H         1 UNK         0.3800 
    243 H243       -3.2342  -18.0488  -56.1119 H         1 UNK         0.3800 
    244 H244       -1.7572  -18.7494  -53.6466 H         1 UNK         0.0800 
    245 H245       -0.5359  -17.5288  -53.3761 H         1 UNK         0.0800 
    246 H246       -1.4522  -20.6728  -52.1226 H         1 UNK         0.0800 
    247 H247        0.0686  -21.2399  -51.4874 H         1 UNK         0.0800 
@<TRIPOS>BOND
     1    1    2 1    
     2    1  127 1    
     3    1  128 1    
     4    1  129 1    
     5    2    3 2    
     6    2    4 am   BACKBONE|DICT|INTERRES
     7    4    5 1    
     8    4  130 1    
     9    5    6 1    
    10    5   65 1    
    11    5  131 1    
    12    6    7 1    
    13    6  132 1    
    14    6  133 1    
    15    7    8 1    
    16    8    9 1    
    17    8  134 1    
    18    8  135 1    
    19    9   10 ar   
    20    9   14 ar   
    21   10   11 ar   
    22   10  136 1    
    23   11   12 ar   
    24   11  126 1    
    25   12   13 ar   
    26   12  137 1    
    27   13   14 ar   
    28   13   15 1    
    29   14  138 1    
    30   15   16 1    
    31   15  139 1    
    32   15  140 1    
    33   16   17 1    
    34   17   18 1    
    35   17  141 1    
    36   17  142 1    
    37   18   19 1    
    38   18   67 1    
    39   18  143 1    
    40   19   20 am   BACKBONE|DICT|INTERRES
    41   19  144 1    
    42   20   21 2    
    43   20   22 1    
    44   22   23 1    
    45   22   24 1    
    46   22  145 1    
    47   23  146 1    
    48   23  147 1    
    49   23  148 1    
    50   24   25 am   BACKBONE|DICT|INTERRES
    51   24  149 1    
    52   25   26 2    
    53   25   27 1    
    54   27   28 1    
    55   27   29 1    
    56   27  150 1    
    57   28  151 1    
    58   28  152 1    
    59   28  153 1    
    60   29   30 am   BACKBONE|DICT|INTERRES
    61   29  154 1    
    62   30   31 2    
    63   30   32 1    
    64   32   33 1    
    65   32   34 1    
    66   32  155 1    
    67   33  156 1    
    68   33  157 1    
    69   33  158 1    
    70   34   35 am   BACKBONE|DICT|INTERRES
    71   34  159 1    
    72   35   36 2    
    73   35   37 1    
    74   37   38 1    
    75   37   39 1    
    76   37  160 1    
    77   38  161 1    
    78   38  162 1    
    79   38  163 1    
    80   39   40 am   BACKBONE|DICT|INTERRES
    81   39  164 1    
    82   40   41 2    
    83   40   42 1    
    84   42   43 1    
    85   42   44 1    
    86   42  165 1    
    87   43  166 1    
    88   43  167 1    
    89   43  168 1    
    90   44   45 am   BACKBONE|DICT|INTERRES
    91   44  169 1    
    92   45   46 2    
    93   45   47 1    
    94   47   48 1    
    95   47   49 1    
    96   47  170 1    
    97   48  171 1    
    98   48  172 1    
    99   48  173 1    
   100   49   50 am   BACKBONE|DICT|INTERRES
   101   49  174 1    
   102   50   51 2    
   103   50   52 1    
   104   52   53 1    
   105   52   54 1    
   106   52  175 1    
   107   53  176 1    
   108   53  177 1    
   109   53  178 1    
   110   54   55 am   BACKBONE|DICT|INTERRES
   111   54  179 1    
   112   55   56 2    
   113   55   57 1    
   114   57   58 1    
   115   57   59 1    
   116   57  180 1    
   117   58  181 1    
   118   58  182 1    
   119   58  183 1    
   120   59   60 am   BACKBONE|DICT|INTERRES
   121   59  184 1    
   122   60   61 2    
   123   60   62 1    
   124   62   63 1    
   125   62   64 1    
   126   62  185 1    
   127   63  186 1    
   128   63  187 1    
   129   63  188 1    
   130   64   65 am   BACKBONE|DICT|INTERRES
   131   64  189 1    
   132   65   66 2    
   133   67   68 2    
   134   67   69 am   BACKBONE|DICT|INTERRES
   135   69   70 1    
   136   69  190 1    
   137   70   71 1    
   138   70   72 1    
   139   70  191 1    
   140   71  192 1    
   141   71  193 1    
   142   71  194 1    
   143   72   73 2    
   144   72   74 am   BACKBONE|DICT|INTERRES
   145   74   75 1    
   146   74  195 1    
   147   75   76 1    
   148   75   77 1    
   149   75  196 1    
   150   76  197 1    
   151   76  198 1    
   152   76  199 1    
   153   77   78 2    
   154   77   79 am   BACKBONE|DICT|INTERRES
   155   79   80 1    
   156   79  200 1    
   157   80   81 1    
   158   80   82 1    
   159   80  201 1    
   160   81  202 1    
   161   81  203 1    
   162   81  204 1    
   163   82   83 2    
   164   82   84 am   BACKBONE|DICT|INTERRES
   165   84   85 1    
   166   84  205 1    
   167   85   86 1    
   168   85   87 1    
   169   85  206 1    
   170   86  207 1    
   171   86  208 1    
   172   86  209 1    
   173   87   88 2    
   174   87   89 am   BACKBONE|DICT|INTERRES
   175   89   90 1    
   176   89  210 1    
   177   90   91 1    
   178   90   92 1    
   179   90  211 1    
   180   91  212 1    
   181   91  213 1    
   182   91  214 1    
   183   92   93 2    
   184   92   94 am   BACKBONE|DICT|INTERRES
   185   94   95 1    
   186   94  215 1    
   187   95   96 1    
   188   95   97 1    
   189   95  216 1    
   190   96  217 1    
   191   96  218 1    
   192   96  219 1    
   193   97   98 2    
   194   97   99 am   BACKBONE|DICT|INTERRES
   195   99  100 1    
   196   99  220 1    
   197  100  101 1    
   198  100  102 1    
   199  100  221 1    
   200  101  222 1    
   201  101  223 1    
   202  101  224 1    
   203  102  103 2    
   204  102  104 am   BACKBONE|DICT|INTERRES
   205  104  105 1    
   206  104  225 1    
   207  105  106 1    
   208  105  107 1    
   209  105  226 1    
   210  106  227 1    
   211  106  228 1    
   212  106  229 1    
   213  107  108 2    
   214  107  109 am   BACKBONE|DICT|INTERRES
   215  109  110 1    
   216  109  230 1    
   217  110  111 1    
   218  110  112 1    
   219  110  231 1    
   220  111  232 1    
   221  111  233 1    
   222  111  234 1    
   223  112  113 2    
   224  112  114 am   BACKBONE|DICT|INTERRES
   225  114  115 1    
   226  114  235 1    
   227  115  116 1    
   228  115  117 1    
   229  115  236 1    
   230  116  237 1    
   231  116  238 1    
   232  116  239 1    
   233  117  118 2    
   234  117  119 am   BACKBONE|DICT|INTERRES
   235  119  120 1    
   236  119  240 1    
   237  120  121 1    
   238  120  124 1    
   239  120  241 1    
   240  121  122 am   BACKBONE|DICT|INTERRES
   241  121  123 2    
   242  122  242 1    
   243  122  243 1    
   244  124  125 1    
   245  124  244 1    
   246  124  245 1    
   247  125  126 1    
   248  126  246 1    
   249  126  247 1    
@<TRIPOS>SUBSTRUCTURE
     1 UNK         1 GROUP             0       ****    0 ROOT    
