@<TRIPOS>MOLECULE
3R540
247   249    1
SMALL
USER_CHARGES


@<TRIPOS>ATOM
      1 CA          3.6476  -12.8372  -47.9185 C.3       0 UNK        -0.1800 
      2 C           2.7613  -12.7763  -49.1613 C.2       0 UNK         0.5000 
      3 O           3.2760  -12.5687  -50.2583 O.2       0 UNK        -0.5000 
      4 N           1.4391  -12.9603  -49.0552 N.am      1 UNK        -0.5000 
      5 CA          0.6617  -13.1125  -47.8231 C.3       1 UNK         0.1400 
      6 C6         -0.6664  -13.8770  -48.0717 C.3       23 UNK        -0.0398 
      7 S7         -1.8074  -13.1143  -49.2885 S.3       23 UNK        -0.2404 
      8 C8         -1.3834  -13.9429  -50.8580 C.3       23 UNK        -0.0205 
      9 C9         -1.8254  -15.3973  -50.8879 C.ar      23 UNK        -0.0193 
     10 C10        -3.1459  -15.7306  -51.2078 C.ar      23 UNK        -0.1150 
     11 C11        -3.5524  -17.0684  -51.2290 C.ar      23 UNK        -0.0193 
     12 C12        -2.6319  -18.0718  -50.9203 C.ar      23 UNK        -0.1150 
     13 C13        -1.3103  -17.7503  -50.6038 C.ar      23 UNK        -0.0193 
     14 C14        -0.9086  -16.4131  -50.6053 C.ar      23 UNK        -0.1150 
     15 C15        -0.3230  -18.8430  -50.2288 C.3       23 UNK        -0.0205 
     16 S16         0.0896  -18.7807  -48.4573 S.3       23 UNK        -0.2404 
     17 C17        -1.5179  -19.1727  -47.6851 C.3       23 UNK        -0.0398 
     18 CA         -1.5677  -20.6201  -47.1610 C.3       11 UNK         0.1400 
     19 N          -0.5792  -20.8692  -46.1076 N.am      11 UNK        -0.5000 
     20 C          -0.2802  -22.0758  -45.6078 C.2       10 UNK         0.5000 
     21 O          -0.8181  -23.1186  -45.9777 O.2       10 UNK        -0.5000 
     22 CA          0.7590  -22.1129  -44.4769 C.3       10 UNK         0.1400 
     23 CB          2.1868  -22.0376  -45.0398 C.3       10 UNK        -0.1800 
     24 N           0.5368  -21.0161  -43.5350 N.am      10 UNK        -0.5000 
     25 C          -0.3728  -21.0470  -42.5507 C.2       9 UNK         0.5000 
     26 O          -1.0465  -22.0405  -42.2775 O.2       9 UNK        -0.5000 
     27 CA         -0.5846  -19.7511  -41.7431 C.3       9 UNK         0.1400 
     28 CB          0.2809  -19.7656  -40.4754 C.3       9 UNK        -0.1800 
     29 N          -0.3169  -18.5335  -42.5157 N.am      9 UNK        -0.5000 
     30 C          -1.0876  -18.1179  -43.5326 C.2       8 UNK         0.5000 
     31 O          -2.1091  -18.7034  -43.8900 O.2       8 UNK        -0.5000 
     32 CA         -0.6264  -16.8816  -44.3289 C.3       8 UNK         0.1400 
     33 CB         -1.3156  -15.6113  -43.8162 C.3       8 UNK        -0.1800 
     34 N           0.8292  -16.7014  -44.4036 N.am      8 UNK        -0.5000 
     35 C           1.6475  -17.5955  -44.9796 C.2       7 UNK         0.5000 
     36 O           1.2753  -18.7249  -45.3008 O.2       7 UNK        -0.5000 
     37 CA          3.1121  -17.2158  -45.2681 C.3       7 UNK         0.1400 
     38 CB          3.2984  -16.9137  -46.7681 C.3       7 UNK        -0.1800 
     39 N           3.6924  -16.1539  -44.4411 N.am      7 UNK        -0.5000 
     40 C           3.4321  -14.8412  -44.4331 C.2       6 UNK         0.5000 
     41 O           2.5334  -14.3047  -45.0836 O.2       6 UNK        -0.5000 
     42 CA          4.3205  -14.0086  -43.4916 C.3       6 UNK         0.1400 
     43 CB          4.0781  -12.4947  -43.6155 C.3       6 UNK        -0.1800 
     44 N           4.0940  -14.4204  -42.1085 N.am      6 UNK        -0.5000 
     45 C           4.7539  -15.3927  -41.4670 C.2       5 UNK         0.5000 
     46 O           5.6813  -16.0288  -41.9690 O.2       5 UNK        -0.5000 
     47 CA          4.2834  -15.7312  -40.0389 C.3       5 UNK         0.1400 
     48 CB          5.1187  -14.9631  -39.0034 C.3       5 UNK        -0.1800 
     49 N           2.8648  -15.4423  -39.8161 N.am      5 UNK        -0.5000 
     50 C           1.8554  -16.1548  -40.3350 C.2       4 UNK         0.5000 
     51 O           2.0039  -17.1408  -41.0579 O.2       4 UNK        -0.5000 
     52 CA          0.4352  -15.6321  -40.0430 C.3       4 UNK         0.1400 
     53 CB          0.0312  -15.9258  -38.5899 C.3       4 UNK        -0.1800 
     54 N           0.2580  -14.2001  -40.3195 N.am      4 UNK        -0.5000 
     55 C           0.5592  -13.5985  -41.4779 C.2       3 UNK         0.5000 
     56 O           1.0835  -14.1793  -42.4297 O.2       3 UNK        -0.5000 
     57 CA          0.2435  -12.1037  -41.6048 C.3       3 UNK         0.1400 
     58 CB          1.1689  -11.2669  -40.7005 C.3       3 UNK        -0.1800 
     59 N           0.4441  -11.7347  -43.0032 N.am      3 UNK        -0.5000 
     60 C          -0.0149  -10.6357  -43.6073 C.2       2 UNK         0.5000 
     61 O          -0.7285   -9.8014  -43.0490 O.2       2 UNK        -0.5000 
     62 CA          0.3931  -10.4161  -45.0729 C.3       2 UNK         0.1400 
     63 CB          1.6903   -9.5879  -45.1488 C.3       2 UNK        -0.1800 
     64 N           0.5456  -11.6656  -45.8295 N.am      2 UNK        -0.5000 
     65 C           0.4431  -11.7325  -47.1634 C.2       1 UNK         0.5000 
     66 O           0.2020  -10.7531  -47.8746 O.2       1 UNK        -0.5000 
     67 C          -3.0029  -21.0016  -46.7483 C.2       11 UNK         0.5000 
     68 O          -3.7794  -21.4169  -47.6087 O.2       11 UNK        -0.5000 
     69 N          -3.3162  -20.9090  -45.4479 N.am      12 UNK        -0.5000 
     70 CA         -4.5840  -21.3297  -44.8460 C.3       12 UNK         0.1400 
     71 CB         -4.5625  -21.0002  -43.3458 C.3       12 UNK        -0.1800 
     72 C          -4.9264  -22.8185  -45.0624 C.2       12 UNK         0.5000 
     73 O          -6.1075  -23.1698  -45.0576 O.2       12 UNK        -0.5000 
     74 N          -3.9102  -23.6643  -45.2872 N.am      13 UNK        -0.5000 
     75 CA         -4.0594  -25.0690  -45.6595 C.3       13 UNK         0.1400 
     76 CB         -2.7804  -25.8331  -45.2733 C.3       13 UNK        -0.1800 
     77 C          -4.4017  -25.2031  -47.1574 C.2       13 UNK         0.5000 
     78 O          -3.5717  -25.6632  -47.9418 O.2       13 UNK        -0.5000 
     79 N          -5.6193  -24.7790  -47.5237 N.am      14 UNK        -0.5000 
     80 CA         -6.2472  -24.9023  -48.8445 C.3       14 UNK         0.1400 
     81 CB         -6.5972  -26.3793  -49.1237 C.3       14 UNK        -0.1800 
     82 C          -5.4231  -24.2647  -49.9827 C.2       14 UNK         0.5000 
     83 O          -5.1142  -24.9334  -50.9698 O.2       14 UNK        -0.5000 
     84 N          -5.0593  -22.9854  -49.8118 N.am      15 UNK        -0.5000 
     85 CA         -4.2577  -22.1754  -50.7393 C.3       15 UNK         0.1400 
     86 CB         -5.0152  -21.9403  -52.0631 C.3       15 UNK        -0.1800 
     87 C          -2.8418  -22.7552  -50.9390 C.2       15 UNK         0.5000 
     88 O          -2.3582  -22.8469  -52.0708 O.2       15 UNK        -0.5000 
     89 N          -2.2312  -23.1590  -49.8146 N.am      16 UNK        -0.5000 
     90 CA         -0.9352  -23.8337  -49.6909 C.3       16 UNK         0.1400 
     91 CB          0.2186  -22.8913  -50.0999 C.3       16 UNK        -0.1800 
     92 C          -0.9174  -25.1759  -50.4494 C.2       16 UNK         0.5000 
     93 O          -0.0597  -25.3925  -51.3045 O.2       16 UNK        -0.5000 
     94 N          -1.9020  -26.0350  -50.1490 N.am      17 UNK        -0.5000 
     95 CA         -2.1779  -27.3251  -50.7918 C.3       17 UNK         0.1400 
     96 CB         -1.0824  -28.3531  -50.4417 C.3       17 UNK        -0.1800 
     97 C          -2.4194  -27.1830  -52.3102 C.2       17 UNK         0.5000 
     98 O          -1.8734  -27.9487  -53.1067 O.2       17 UNK        -0.5000 
     99 N          -3.2233  -26.1728  -52.6694 N.am      18 UNK        -0.5000 
    100 CA        -3.5962  -25.7489  -54.0196 C.3       18 UNK         0.1400 
    101 CB        -4.4402  -26.8328  -54.7211 C.3       18 UNK        -0.1800 
    102 C         -2.4179  -25.2534  -54.8866 C.2       18 UNK         0.5000 
    103 O         -2.5439  -25.2297  -56.1115 O.2       18 UNK        -0.5000 
    104 N         -1.3078  -24.8346  -54.2604 N.am      19 UNK        -0.5000 
    105 CA        -0.1584  -24.2449  -54.9505 C.3       19 UNK         0.1400 
    106 CB         1.0764  -24.2637  -54.0393 C.3       19 UNK        -0.1800 
    107 C         -0.4499  -22.8154  -55.4369 C.2       19 UNK         0.5000 
    108 O         -0.0636  -22.4673  -56.5536 O.2       19 UNK        -0.5000 
    109 N         -1.1426  -22.0226  -54.6060 N.am      20 UNK        -0.5000 
    110 CA        -1.6149  -20.6844  -54.9689 C.3       20 UNK         0.1400 
    111 CB        -1.7455  -19.8291  -53.7020 C.3       20 UNK        -0.1800 
    112 C         -2.9434  -20.7391  -55.7477 C.2       20 UNK         0.5000 
    113 O         -3.2010  -19.8535  -56.5631 O.2       20 UNK        -0.5000 
    114 N         -3.7371  -21.7945  -55.5002 N.am      21 UNK        -0.5000 
    115 CA        -4.9825  -22.1619  -56.1886 C.3       21 UNK         0.1400 
    116 CB        -4.6796  -22.6106  -57.6333 C.3       21 UNK        -0.1800 
    117 C         -6.0860  -21.0823  -56.1169 C.2       21 UNK         0.5000 
    118 O         -6.8305  -20.8911  -57.0806 O.2       21 UNK        -0.5000 
    119 N         -6.1619  -20.3909  -54.9741 N.am      22 UNK        -0.5000 
    120 CA        -7.1381  -19.3317  -54.6775 C.3       22 UNK         0.1400 
    121 C         -8.6052  -19.8458  -54.6513 C.2       22 UNK         0.5000 
    122 N         -9.5551  -19.0561  -55.1335 N.am      22 UNK        -0.7600 
    123 O         -8.8943  -20.9332  -54.1564 O.2       22 UNK        -0.5000 
    124 C124       -6.8050  -18.6098  -53.3477 C.3       23 UNK        -0.0398 
    125 S125       -5.1173  -17.9207  -53.3242 S.3       23 UNK        -0.2404 
    126 C126       -4.9826  -17.4429  -51.5766 C.3       23 UNK        -0.0205 
    127 H127        4.6673  -12.5379  -48.1615 H         1 UNK         0.0600 
    128 H128        3.6846  -13.8534  -47.5281 H         1 UNK         0.0600 
    129 H129        3.2892  -12.1718  -47.1339 H         1 UNK         0.0600 
    130 H130        0.8770  -12.8556  -49.8859 H         1 UNK         0.3000 
    131 H131        1.2420  -13.7276  -47.1375 H         1 UNK         0.0600 
    132 H132       -0.4417  -14.8979  -48.3770 H         1 UNK         0.0800 
    133 H133       -1.2100  -13.9823  -47.1313 H         1 UNK         0.0800 
    134 H134       -0.3123  -13.8671  -51.0459 H         1 UNK         0.0800 
    135 H135       -1.8676  -13.4055  -51.6748 H         1 UNK         0.0800 
    136 H136       -3.8558  -14.9483  -51.4374 H         1 UNK         0.1150 
    137 H137       -2.9488  -19.1044  -50.9235 H         1 UNK         0.1150 
    138 H138        0.1145  -16.1650  -50.3593 H         1 UNK         0.1150 
    139 H139       -0.7169  -19.8301  -50.4763 H         1 UNK         0.0800 
    140 H140        0.5903  -18.7203  -50.8123 H         1 UNK         0.0800 
    141 H141       -2.3208  -19.0006  -48.4007 H         1 UNK         0.0800 
    142 H142       -1.6961  -18.4696  -46.8734 H         1 UNK         0.0800 
    143 H143       -1.3128  -21.2765  -47.9917 H         1 UNK         0.0600 
    144 H144       -0.0448  -20.0654  -45.7894 H         1 UNK         0.3000 
    145 H145        0.6553  -23.0654  -43.9526 H         1 UNK         0.0600 
    146 H146        2.3831  -22.8754  -45.7099 H         1 UNK         0.0600 
    147 H147        2.3564  -21.1216  -45.6061 H         1 UNK         0.0600 
    148 H148        2.9273  -22.0795  -44.2410 H         1 UNK         0.0600 
    149 H149        0.9993  -20.1403  -43.7463 H         1 UNK         0.3000 
    150 H150       -1.6316  -19.7289  -41.4330 H         1 UNK         0.0600 
    151 H151        0.0765  -20.6511  -39.8723 H         1 UNK         0.0600 
    152 H152        0.0785  -18.8965  -39.8509 H         1 UNK         0.0600 
    153 H153        1.3449  -19.7705  -40.7148 H         1 UNK         0.0600 
    154 H154        0.5251  -18.0167  -42.2845 H         1 UNK         0.3000 
    155 H155       -0.9606  -17.0194  -45.3569 H         1 UNK         0.0600 
    156 H156       -2.3891  -15.6562  -44.0029 H         1 UNK         0.0600 
    157 H157       -0.9362  -14.7182  -44.3130 H         1 UNK         0.0600 
    158 H158       -1.1864  -15.4902  -42.7429 H         1 UNK         0.0600 
    159 H159        1.2007  -15.7957  -44.1374 H         1 UNK         0.3000 
    160 H160        3.7006  -18.1062  -45.0417 H         1 UNK         0.0600 
    161 H161        4.3368  -16.6788  -47.0014 H         1 UNK         0.0600 
    162 H162        2.6802  -16.0766  -47.0936 H         1 UNK         0.0600 
    163 H163        3.0159  -17.7750  -47.3749 H         1 UNK         0.0600 
    164 H164        4.4113  -16.4665  -43.7998 H         1 UNK         0.3000 
    165 H165        5.3592  -14.1968  -43.7713 H         1 UNK         0.0600 
    166 H166        3.0699  -12.2216  -43.3125 H         1 UNK         0.0600 
    167 H167        4.7748  -11.9340  -42.9924 H         1 UNK         0.0600 
    168 H168        4.2179  -12.1583  -44.6435 H         1 UNK         0.0600 
    169 H169        3.2684  -14.0404  -41.6685 H         1 UNK         0.3000 
    170 H170        4.4446  -16.8001  -39.8832 H         1 UNK         0.0600 
    171 H171        4.9867  -13.8846  -39.0990 H         1 UNK         0.0600 
    172 H172        4.8452  -15.2469  -37.9870 H         1 UNK         0.0600 
    173 H173        6.1818  -15.1758  -39.1239 H         1 UNK         0.0600 
    174 H174        2.6466  -14.6377  -39.2468 H         1 UNK         0.3000 
    175 H175       -0.2492  -16.1782  -40.6938 H         1 UNK         0.0600 
    176 H176        0.6245  -15.3479  -37.8803 H         1 UNK         0.0600 
    177 H177       -1.0191  -15.6894  -38.4184 H         1 UNK         0.0600 
    178 H178        0.1682  -16.9802  -38.3476 H         1 UNK         0.0600 
    179 H179       -0.1627  -13.6526  -39.5826 H         1 UNK         0.3000 
    180 H180       -0.8009  -11.9440  -41.3299 H         1 UNK         0.0600 
    181 H181        2.2196  -11.4178  -40.9517 H         1 UNK         0.0600 
    182 H182        1.0404  -11.5297  -39.6501 H         1 UNK         0.0600 
    183 H183        0.9557  -10.2018  -40.7908 H         1 UNK         0.0600 
    184 H184        0.9918  -12.4196  -43.5081 H         1 UNK         0.3000 
    185 H185       -0.4122   -9.8325  -45.5249 H         1 UNK         0.0600 
    186 H186        1.9214   -9.3006  -46.1745 H         1 UNK         0.0600 
    187 H187        1.6028   -8.6677  -44.5697 H         1 UNK         0.0600 
    188 H188        2.5433  -10.1424  -44.7574 H         1 UNK         0.0600 
    189 H189        0.7527  -12.5051  -45.3060 H         1 UNK         0.3000 
    190 H190       -2.6460  -20.4763  -44.8218 H         1 UNK         0.3000 
    191 H191       -5.3780  -20.7447  -45.3140 H         1 UNK         0.0600 
    192 H192       -3.7490  -21.5153  -42.8339 H         1 UNK         0.0600 
    193 H193       -4.4411  -19.9302  -43.1779 H         1 UNK         0.0600 
    194 H194       -5.4951  -21.2980  -42.8647 H         1 UNK         0.0600 
    195 H195       -2.9684  -23.2938  -45.3243 H         1 UNK         0.3000 
    196 H196       -4.8839  -25.5041  -45.0907 H         1 UNK         0.0600 
    197 H197       -2.5603  -25.7246  -44.2112 H         1 UNK         0.0600 
    198 H198       -1.9121  -25.4846  -45.8325 H         1 UNK         0.0600 
    199 H199       -2.8902  -26.8991  -45.4760 H         1 UNK         0.0600 
    200 H200       -6.1875  -24.3467  -46.8030 H         1 UNK         0.3000 
    201 H201       -7.1840  -24.3454  -48.7967 H         1 UNK         0.0600 
    202 H202       -7.1492  -26.4808  -50.0589 H         1 UNK         0.0600 
    203 H203       -7.2228  -26.7927  -48.3327 H         1 UNK         0.0600 
    204 H204       -5.7036  -26.9997  -49.2026 H         1 UNK         0.0600 
    205 H205       -5.2780  -22.5357  -48.9314 H         1 UNK         0.3000 
    206 H206       -4.1264  -21.2024  -50.2650 H         1 UNK         0.0600 
    207 H207       -5.0961  -22.8509  -52.6567 H         1 UNK         0.0600 
    208 H208       -4.5069  -21.1945  -52.6713 H         1 UNK         0.0600 
    209 H209       -6.0244  -21.5727  -51.8784 H         1 UNK         0.0600 
    210 H210       -2.7572  -23.0659  -48.9555 H         1 UNK         0.3000 
    211 H211       -0.8069  -24.0757  -48.6347 H         1 UNK         0.0600 
    212 H212        0.2482  -21.9989  -49.4771 H         1 UNK         0.0600 
    213 H213        1.1837  -23.3867  -49.9889 H         1 UNK         0.0600 
    214 H214        0.1357  -22.5691  -51.1376 H         1 UNK         0.0600 
    215 H215       -2.5557  -25.7784  -49.4095 H         1 UNK         0.3000 
    216 H216       -3.1161  -27.6829  -50.3649 H         1 UNK         0.0600 
    217 H217       -1.3411  -29.3428  -50.8197 H         1 UNK         0.0600 
    218 H218       -0.1178  -28.0809  -50.8713 H         1 UNK         0.0600 
    219 H219       -0.9564  -28.4410  -49.3626 H         1 UNK         0.0600 
    220 H220       -3.6670  -25.6357  -51.9269 H         1 UNK         0.3000 
    221 H221       -4.2400  -24.8799  -53.8802 H         1 UNK         0.0600 
    222 H222       -3.8476  -27.7166  -54.9587 H         1 UNK         0.0600 
    223 H223       -4.8602  -26.4601  -55.6560 H         1 UNK         0.0600 
    224 H224       -5.2762  -27.1464  -54.0957 H         1 UNK         0.0600 
    225 H225       -1.2646  -24.8761  -53.2494 H         1 UNK         0.3000 
    226 H226        0.0666  -24.8574  -55.8264 H         1 UNK         0.0600 
    227 H227        1.3158  -25.2784  -53.7207 H         1 UNK         0.0600 
    228 H228        1.9509  -23.8713  -54.5597 H         1 UNK         0.0600 
    229 H229        0.9276  -23.6565  -53.1465 H         1 UNK         0.0600 
    230 H230       -1.4301  -22.3820  -53.6987 H         1 UNK         0.3000 
    231 H231       -0.8759  -20.2043  -55.6141 H         1 UNK         0.0600 
    232 H232       -2.0979  -18.8248  -53.9408 H         1 UNK         0.0600 
    233 H233       -0.7844  -19.7245  -53.1989 H         1 UNK         0.0600 
    234 H234       -2.4466  -20.2626  -52.9922 H         1 UNK         0.0600 
    235 H235       -3.4109  -22.4500  -54.8061 H         1 UNK         0.3000 
    236 H236       -5.3781  -23.0277  -55.6557 H         1 UNK         0.0600 
    237 H237       -3.9154  -23.3874  -57.6536 H         1 UNK         0.0600 
    238 H238       -5.5691  -23.0215  -58.1122 H         1 UNK         0.0600 
    239 H239       -4.3291  -21.7812  -58.2483 H         1 UNK         0.0600 
    240 H240       -5.4990  -20.5963  -54.2438 H         1 UNK         0.3000 
    241 H241       -7.0574  -18.5995  -55.4835 H         1 UNK         0.0600 
    242 H242      -10.5128  -19.3711  -55.1083 H         1 UNK         0.3800 
    243 H243       -9.3429  -18.1569  -55.5383 H         1 UNK         0.3800 
    244 H244       -6.9174  -19.2954  -52.5060 H         1 UNK         0.0800 
    245 H245       -7.5047  -17.7903  -53.1733 H         1 UNK         0.0800 
    246 H246       -5.6579  -16.6103  -51.3738 H         1 UNK         0.0800 
    247 H247       -5.3070  -18.2689  -50.9416 H         1 UNK         0.0800 
@<TRIPOS>BOND
     1    1    2 1    
     2    1  127 1    
     3    1  128 1    
     4    1  129 1    
     5    2    3 2    
     6    2    4 am   BACKBONE|DICT|INTERRES
     7    4    5 1    
     8    4  130 1    
     9    5    6 1    
    10    5   65 1    
    11    5  131 1    
    12    6    7 1    
    13    6  132 1    
    14    6  133 1    
    15    7    8 1    
    16    8    9 1    
    17    8  134 1    
    18    8  135 1    
    19    9   10 ar   
    20    9   14 ar   
    21   10   11 ar   
    22   10  136 1    
    23   11   12 ar   
    24   11  126 1    
    25   12   13 ar   
    26   12  137 1    
    27   13   14 ar   
    28   13   15 1    
    29   14  138 1    
    30   15   16 1    
    31   15  139 1    
    32   15  140 1    
    33   16   17 1    
    34   17   18 1    
    35   17  141 1    
    36   17  142 1    
    37   18   19 1    
    38   18   67 1    
    39   18  143 1    
    40   19   20 am   BACKBONE|DICT|INTERRES
    41   19  144 1    
    42   20   21 2    
    43   20   22 1    
    44   22   23 1    
    45   22   24 1    
    46   22  145 1    
    47   23  146 1    
    48   23  147 1    
    49   23  148 1    
    50   24   25 am   BACKBONE|DICT|INTERRES
    51   24  149 1    
    52   25   26 2    
    53   25   27 1    
    54   27   28 1    
    55   27   29 1    
    56   27  150 1    
    57   28  151 1    
    58   28  152 1    
    59   28  153 1    
    60   29   30 am   BACKBONE|DICT|INTERRES
    61   29  154 1    
    62   30   31 2    
    63   30   32 1    
    64   32   33 1    
    65   32   34 1    
    66   32  155 1    
    67   33  156 1    
    68   33  157 1    
    69   33  158 1    
    70   34   35 am   BACKBONE|DICT|INTERRES
    71   34  159 1    
    72   35   36 2    
    73   35   37 1    
    74   37   38 1    
    75   37   39 1    
    76   37  160 1    
    77   38  161 1    
    78   38  162 1    
    79   38  163 1    
    80   39   40 am   BACKBONE|DICT|INTERRES
    81   39  164 1    
    82   40   41 2    
    83   40   42 1    
    84   42   43 1    
    85   42   44 1    
    86   42  165 1    
    87   43  166 1    
    88   43  167 1    
    89   43  168 1    
    90   44   45 am   BACKBONE|DICT|INTERRES
    91   44  169 1    
    92   45   46 2    
    93   45   47 1    
    94   47   48 1    
    95   47   49 1    
    96   47  170 1    
    97   48  171 1    
    98   48  172 1    
    99   48  173 1    
   100   49   50 am   BACKBONE|DICT|INTERRES
   101   49  174 1    
   102   50   51 2    
   103   50   52 1    
   104   52   53 1    
   105   52   54 1    
   106   52  175 1    
   107   53  176 1    
   108   53  177 1    
   109   53  178 1    
   110   54   55 am   BACKBONE|DICT|INTERRES
   111   54  179 1    
   112   55   56 2    
   113   55   57 1    
   114   57   58 1    
   115   57   59 1    
   116   57  180 1    
   117   58  181 1    
   118   58  182 1    
   119   58  183 1    
   120   59   60 am   BACKBONE|DICT|INTERRES
   121   59  184 1    
   122   60   61 2    
   123   60   62 1    
   124   62   63 1    
   125   62   64 1    
   126   62  185 1    
   127   63  186 1    
   128   63  187 1    
   129   63  188 1    
   130   64   65 am   BACKBONE|DICT|INTERRES
   131   64  189 1    
   132   65   66 2    
   133   67   68 2    
   134   67   69 am   BACKBONE|DICT|INTERRES
   135   69   70 1    
   136   69  190 1    
   137   70   71 1    
   138   70   72 1    
   139   70  191 1    
   140   71  192 1    
   141   71  193 1    
   142   71  194 1    
   143   72   73 2    
   144   72   74 am   BACKBONE|DICT|INTERRES
   145   74   75 1    
   146   74  195 1    
   147   75   76 1    
   148   75   77 1    
   149   75  196 1    
   150   76  197 1    
   151   76  198 1    
   152   76  199 1    
   153   77   78 2    
   154   77   79 am   BACKBONE|DICT|INTERRES
   155   79   80 1    
   156   79  200 1    
   157   80   81 1    
   158   80   82 1    
   159   80  201 1    
   160   81  202 1    
   161   81  203 1    
   162   81  204 1    
   163   82   83 2    
   164   82   84 am   BACKBONE|DICT|INTERRES
   165   84   85 1    
   166   84  205 1    
   167   85   86 1    
   168   85   87 1    
   169   85  206 1    
   170   86  207 1    
   171   86  208 1    
   172   86  209 1    
   173   87   88 2    
   174   87   89 am   BACKBONE|DICT|INTERRES
   175   89   90 1    
   176   89  210 1    
   177   90   91 1    
   178   90   92 1    
   179   90  211 1    
   180   91  212 1    
   181   91  213 1    
   182   91  214 1    
   183   92   93 2    
   184   92   94 am   BACKBONE|DICT|INTERRES
   185   94   95 1    
   186   94  215 1    
   187   95   96 1    
   188   95   97 1    
   189   95  216 1    
   190   96  217 1    
   191   96  218 1    
   192   96  219 1    
   193   97   98 2    
   194   97   99 am   BACKBONE|DICT|INTERRES
   195   99  100 1    
   196   99  220 1    
   197  100  101 1    
   198  100  102 1    
   199  100  221 1    
   200  101  222 1    
   201  101  223 1    
   202  101  224 1    
   203  102  103 2    
   204  102  104 am   BACKBONE|DICT|INTERRES
   205  104  105 1    
   206  104  225 1    
   207  105  106 1    
   208  105  107 1    
   209  105  226 1    
   210  106  227 1    
   211  106  228 1    
   212  106  229 1    
   213  107  108 2    
   214  107  109 am   BACKBONE|DICT|INTERRES
   215  109  110 1    
   216  109  230 1    
   217  110  111 1    
   218  110  112 1    
   219  110  231 1    
   220  111  232 1    
   221  111  233 1    
   222  111  234 1    
   223  112  113 2    
   224  112  114 am   BACKBONE|DICT|INTERRES
   225  114  115 1    
   226  114  235 1    
   227  115  116 1    
   228  115  117 1    
   229  115  236 1    
   230  116  237 1    
   231  116  238 1    
   232  116  239 1    
   233  117  118 2    
   234  117  119 am   BACKBONE|DICT|INTERRES
   235  119  120 1    
   236  119  240 1    
   237  120  121 1    
   238  120  124 1    
   239  120  241 1    
   240  121  122 am   BACKBONE|DICT|INTERRES
   241  121  123 2    
   242  122  242 1    
   243  122  243 1    
   244  124  125 1    
   245  124  244 1    
   246  124  245 1    
   247  125  126 1    
   248  126  246 1    
   249  126  247 1    
@<TRIPOS>SUBSTRUCTURE
     1 UNK         1 GROUP             0       ****    0 ROOT    
