@<TRIPOS>MOLECULE
3R540
247   249    1
SMALL
USER_CHARGES


@<TRIPOS>ATOM
      1 CA         -3.2033   -9.4859  -48.6530 C.3       0 UNK        -0.1800 
      2 C          -1.9945  -10.2772  -49.1328 C.2       0 UNK         0.5000 
      3 O          -1.4871  -10.0185  -50.2245 O.2       0 UNK        -0.5000 
      4 N          -1.5377  -11.2435  -48.3266 N.am      1 UNK        -0.5000 
      5 CA         -0.3493  -12.0591  -48.5872 C.3       1 UNK         0.1400 
      6 C6         -0.3226  -13.3042  -47.6688 C.3       23 UNK        -0.0398 
      7 S7          0.9990  -14.4922  -48.0862 S.3       23 UNK        -0.2404 
      8 C8          0.0963  -15.6755  -49.1245 C.3       23 UNK        -0.0205 
      9 C9          1.0319  -16.7276  -49.6944 C.ar      23 UNK        -0.0193 
     10 C10         1.5132  -16.6078  -51.0003 C.ar      23 UNK        -0.1150 
     11 C11         2.3640  -17.5803  -51.5453 C.ar      23 UNK        -0.0193 
     12 C12         2.7332  -18.6711  -50.7505 C.ar      23 UNK        -0.1150 
     13 C13         2.2557  -18.8040  -49.4429 C.ar      23 UNK        -0.0193 
     14 C14         1.4061  -17.8276  -48.9212 C.ar      23 UNK        -0.1150 
     15 C15         2.6749  -19.9909  -48.5889 C.3       23 UNK        -0.0205 
     16 S16         1.8095  -21.5189  -49.0642 S.3       23 UNK        -0.2404 
     17 C17         0.0965  -21.2343  -48.4964 C.3       23 UNK        -0.0398 
     18 CA         -0.3823  -22.3835  -47.5707 C.3       11 UNK         0.1400 
     19 N          -0.1709  -22.1048  -46.1488 N.am      11 UNK        -0.5000 
     20 C          -0.2507  -23.0299  -45.1824 C.2       10 UNK         0.5000 
     21 O          -0.4865  -24.2189  -45.3964 O.2       10 UNK        -0.5000 
     22 CA         -0.0913  -22.5428  -43.7316 C.3       10 UNK         0.1400 
     23 CB          1.3848  -22.2839  -43.3956 C.3       10 UNK        -0.1800 
     24 N          -0.8867  -21.3472  -43.4491 N.am      10 UNK        -0.5000 
     25 C          -2.2264  -21.3043  -43.4919 C.2       9 UNK         0.5000 
     26 O          -2.9329  -22.2806  -43.7444 O.2       9 UNK        -0.5000 
     27 CA         -2.8891  -19.9344  -43.2548 C.3       9 UNK         0.1400 
     28 CB         -2.9524  -19.6071  -41.7556 C.3       9 UNK        -0.1800 
     29 N          -2.2175  -18.8467  -43.9661 N.am      9 UNK        -0.5000 
     30 C          -2.1078  -18.7651  -45.2995 C.2       8 UNK         0.5000 
     31 O          -2.5912  -19.5823  -46.0809 O.2       8 UNK        -0.5000 
     32 CA         -1.2564  -17.6121  -45.8543 C.3       8 UNK         0.1400 
     33 CB         -2.0244  -16.2845  -45.7944 C.3       8 UNK        -0.1800 
     34 N           0.0238  -17.4761  -45.1584 N.am      8 UNK        -0.5000 
     35 C           0.9497  -18.4416  -45.0647 C.2       7 UNK         0.5000 
     36 O           0.8485  -19.5392  -45.6080 O.2       7 UNK        -0.5000 
     37 CA          2.1653  -18.1582  -44.1698 C.3       7 UNK         0.1400 
     38 CB          3.2098  -17.3094  -44.9088 C.3       7 UNK        -0.1800 
     39 N           1.7711  -17.5030  -42.9237 N.am      7 UNK        -0.5000 
     40 C           1.0586  -18.0966  -41.9543 C.2       6 UNK         0.5000 
     41 O           0.7126  -19.2775  -41.9839 O.2       6 UNK        -0.5000 
     42 CA          0.6204  -17.2045  -40.7787 C.3       6 UNK         0.1400 
     43 CB          1.7449  -17.0853  -39.7394 C.3       6 UNK        -0.1800 
     44 N           0.2213  -15.8666  -41.2184 N.am      6 UNK        -0.5000 
     45 C          -0.8587  -15.6073  -41.9701 C.2       5 UNK         0.5000 
     46 O          -1.6714  -16.4659  -42.3120 O.2       5 UNK        -0.5000 
     47 CA         -1.0262  -14.1556  -42.4625 C.3       5 UNK         0.1400 
     48 CB         -1.8207  -13.3271  -41.4426 C.3       5 UNK        -0.1800 
     49 N           0.2567  -13.4975  -42.7332 N.am      5 UNK        -0.5000 
     50 C           1.1036  -13.8744  -43.6993 C.2       4 UNK         0.5000 
     51 O           0.8631  -14.7804  -44.5003 O.2       4 UNK        -0.5000 
     52 CA          2.4713  -13.1814  -43.7234 C.3       4 UNK         0.1400 
     53 CB          3.3608  -13.7522  -42.5981 C.3       4 UNK        -0.1800 
     54 N           3.0928  -13.4023  -45.0270 N.am      4 UNK        -0.5000 
     55 C           4.2126  -12.8176  -45.4694 C.2       3 UNK         0.5000 
     56 O           4.8415  -11.9733  -44.8300 O.2       3 UNK        -0.5000 
     57 CA          4.7122  -13.2344  -46.8640 C.3       3 UNK         0.1400 
     58 CB          4.6768  -14.7581  -47.0851 C.3       3 UNK        -0.1800 
     59 N           3.9390  -12.5651  -47.9063 N.am      3 UNK        -0.5000 
     60 C           4.1422  -11.3040  -48.3146 C.2       2 UNK         0.5000 
     61 O           5.0484  -10.5844  -47.8932 O.2       2 UNK        -0.5000 
     62 CA          3.1825  -10.7488  -49.3855 C.3       2 UNK         0.1400 
     63 CB          3.8012  -10.8902  -50.7850 C.3       2 UNK        -0.1800 
     64 N           1.8730  -11.4015  -49.3798 N.am      2 UNK        -0.5000 
     65 C           0.9327  -11.2109  -48.4457 C.2       1 UNK         0.5000 
     66 O           1.0531  -10.4335  -47.4955 O.2       1 UNK        -0.5000 
     67 C          -1.8357  -22.8024  -47.8687 C.2       11 UNK         0.5000 
     68 O          -2.0300  -23.7236  -48.6578 O.2       11 UNK        -0.5000 
     69 N          -2.8274  -22.1798  -47.2136 N.am      12 UNK        -0.5000 
     70 CA         -4.2357  -22.5755  -47.3048 C.3       12 UNK         0.1400 
     71 CB         -5.1222  -21.5487  -46.5828 C.3       12 UNK        -0.1800 
     72 C          -4.5021  -23.9938  -46.7705 C.2       12 UNK         0.5000 
     73 O          -5.2798  -24.7283  -47.3768 O.2       12 UNK        -0.5000 
     74 N          -3.8358  -24.3681  -45.6707 N.am      13 UNK        -0.5000 
     75 CA         -3.8882  -25.7170  -45.1093 C.3       13 UNK         0.1400 
     76 CB         -3.2692  -25.7155  -43.7030 C.3       13 UNK        -0.1800 
     77 C          -3.2025  -26.7568  -46.0163 C.2       13 UNK         0.5000 
     78 O          -3.7561  -27.8365  -46.2263 O.2       13 UNK        -0.5000 
     79 N          -2.0179  -26.4123  -46.5387 N.am      14 UNK        -0.5000 
     80 CA         -1.1970  -27.2836  -47.3783 C.3       14 UNK         0.1400 
     81 CB          0.2291  -26.7169  -47.4591 C.3       14 UNK        -0.1800 
     82 C          -1.7727  -27.4986  -48.7894 C.2       14 UNK         0.5000 
     83 O          -1.8365  -28.6396  -49.2487 O.2       14 UNK        -0.5000 
     84 N          -2.1598  -26.4051  -49.4588 N.am      15 UNK        -0.5000 
     85 CA         -2.5939  -26.3988  -50.8585 C.3       15 UNK         0.1400 
     86 CB         -2.0566  -25.1288  -51.5353 C.3       15 UNK        -0.1800 
     87 C          -4.1216  -26.5295  -51.0242 C.2       15 UNK         0.5000 
     88 O          -4.5957  -26.5963  -52.1601 O.2       15 UNK        -0.5000 
     89 N          -4.8569  -26.5908  -49.9037 N.am      16 UNK        -0.5000 
     90 CA         -6.2919  -26.8590  -49.7775 C.3       16 UNK         0.1400 
     91 CB         -6.5844  -28.3397  -50.1071 C.3       16 UNK        -0.1800 
     92 C          -7.1642  -25.8663  -50.5730 C.2       16 UNK         0.5000 
     93 O          -7.4068  -24.7568  -50.0969 O.2       16 UNK        -0.5000 
     94 N          -7.6259  -26.2831  -51.7612 N.am      17 UNK        -0.5000 
     95 CA         -8.4707  -25.5049  -52.6696 C.3       17 UNK         0.1400 
     96 CB         -8.9154  -26.4023  -53.8341 C.3       17 UNK        -0.1800 
     97 C          -7.7949  -24.2265  -53.1998 C.2       17 UNK         0.5000 
     98 O          -8.4850  -23.2365  -53.4482 O.2       17 UNK        -0.5000 
     99 N          -6.4608  -24.2461  -53.3242 N.am      18 UNK        -0.5000 
    100 CA        -5.6399  -23.0750  -53.6265 C.3       18 UNK         0.1400 
    101 CB        -4.3598  -23.5288  -54.3457 C.3       18 UNK        -0.1800 
    102 C         -5.3606  -22.2927  -52.3290 C.2       18 UNK         0.5000 
    103 O         -4.2303  -22.2774  -51.8377 O.2       18 UNK        -0.5000 
    104 N         -6.4230  -21.6956  -51.7730 N.am      19 UNK        -0.5000 
    105 CA        -6.4308  -20.9484  -50.5173 C.3       19 UNK         0.1400 
    106 CB        -7.8540  -20.4413  -50.2389 C.3       19 UNK        -0.1800 
    107 C         -5.4161  -19.7906  -50.5288 C.2       19 UNK         0.5000 
    108 O         -5.5528  -18.8696  -51.3359 O.2       19 UNK        -0.5000 
    109 N         -4.4076  -19.8941  -49.6529 N.am      20 UNK        -0.5000 
    110 CA        -3.2646  -18.9896  -49.5030 C.3       20 UNK         0.1400 
    111 CB        -3.7213  -17.5869  -49.0521 C.3       20 UNK        -0.1800 
    112 C         -2.3272  -18.9583  -50.7286 C.2       20 UNK         0.5000 
    113 O         -1.6225  -17.9677  -50.9192 O.2       20 UNK        -0.5000 
    114 N         -2.3128  -20.0475  -51.5151 N.am      21 UNK        -0.5000 
    115 CA        -1.4617  -20.2955  -52.6820 C.3       21 UNK         0.1400 
    116 CB        -0.0379  -20.6800  -52.2307 C.3       21 UNK        -0.1800 
    117 C         -1.5000  -19.1440  -53.7077 C.2       21 UNK         0.5000 
    118 O         -2.4923  -19.0201  -54.4274 O.2       21 UNK        -0.5000 
    119 N         -0.4326  -18.3354  -53.7605 N.am      22 UNK        -0.5000 
    120 CA        -0.3185  -17.1600  -54.6352 C.3       22 UNK         0.1400 
    121 C         -0.9838  -15.8657  -54.0774 C.2       22 UNK         0.5000 
    122 N         -1.4898  -15.8448  -52.8495 N.am      22 UNK        -0.7600 
    123 O         -1.0633  -14.8651  -54.7852 O.2       22 UNK        -0.5000 
    124 C124        1.1395  -16.9581  -55.1337 C.3       23 UNK        -0.0398 
    125 S125        2.3010  -16.1217  -53.9938 S.3       23 UNK        -0.2404 
    126 C126        2.9376  -17.4907  -52.9627 C.3       23 UNK        -0.0205 
    127 H127       -3.5496   -9.8259  -47.6767 H         1 UNK         0.0600 
    128 H128       -4.0257   -9.5907  -49.3607 H         1 UNK         0.0600 
    129 H129       -2.9520   -8.4281  -48.5749 H         1 UNK         0.0600 
    130 H130       -1.9789  -11.3827  -47.4291 H         1 UNK         0.3000 
    131 H131       -0.4195  -12.4096  -49.6196 H         1 UNK         0.0600 
    132 H132       -0.2026  -13.0120  -46.6239 H         1 UNK         0.0800 
    133 H133       -1.2830  -13.8171  -47.7282 H         1 UNK         0.0800 
    134 H134       -0.4121  -15.1452  -49.9312 H         1 UNK         0.0800 
    135 H135       -0.6817  -16.1575  -48.5351 H         1 UNK         0.0800 
    136 H136        1.2137  -15.7473  -51.5789 H         1 UNK         0.1150 
    137 H137        3.3948  -19.4264  -51.1513 H         1 UNK         0.1150 
    138 H138        1.0416  -17.9176  -47.9103 H         1 UNK         0.1150 
    139 H139        3.7479  -20.1492  -48.7047 H         1 UNK         0.0800 
    140 H140        2.5158  -19.7909  -47.5302 H         1 UNK         0.0800 
    141 H141       -0.5153  -21.1638  -49.3961 H         1 UNK         0.0800 
    142 H142        0.0037  -20.2654  -48.0058 H         1 UNK         0.0800 
    143 H143        0.2121  -23.2707  -47.8001 H         1 UNK         0.0600 
    144 H144        0.0688  -21.1470  -45.8981 H         1 UNK         0.3000 
    145 H145       -0.4494  -23.3392  -43.0759 H         1 UNK         0.0600 
    146 H146        1.8052  -21.4843  -44.0050 H         1 UNK         0.0600 
    147 H147        1.5075  -22.0058  -42.3488 H         1 UNK         0.0600 
    148 H148        1.9858  -23.1775  -43.5678 H         1 UNK         0.0600 
    149 H149       -0.3750  -20.5077  -43.1984 H         1 UNK         0.3000 
    150 H150       -3.9120  -19.9930  -43.6319 H         1 UNK         0.0600 
    151 H151       -3.4702  -20.3938  -41.2054 H         1 UNK         0.0600 
    152 H152       -3.4916  -18.6763  -41.5786 H         1 UNK         0.0600 
    153 H153       -1.9573  -19.5028  -41.3226 H         1 UNK         0.0600 
    154 H154       -1.8207  -18.1047  -43.3972 H         1 UNK         0.3000 
    155 H155       -1.0418  -17.8369  -46.8996 H         1 UNK         0.0600 
    156 H156       -2.3791  -16.0632  -44.7891 H         1 UNK         0.0600 
    157 H157       -1.3964  -15.4545  -46.1106 H         1 UNK         0.0600 
    158 H158       -2.8979  -16.3072  -46.4454 H         1 UNK         0.0600 
    159 H159        0.2191  -16.5733  -44.7354 H         1 UNK         0.3000 
    160 H160        2.6270  -19.1153  -43.9186 H         1 UNK         0.0600 
    161 H161        3.5443  -17.8101  -45.8184 H         1 UNK         0.0600 
    162 H162        2.8092  -16.3409  -45.2017 H         1 UNK         0.0600 
    163 H163        4.0899  -17.1357  -44.2897 H         1 UNK         0.0600 
    164 H164        1.9725  -16.5188  -42.8439 H         1 UNK         0.3000 
    165 H165       -0.2398  -17.6789  -40.3014 H         1 UNK         0.0600 
    166 H166        1.4185  -16.5146  -38.8697 H         1 UNK         0.0600 
    167 H167        2.0526  -18.0696  -39.3839 H         1 UNK         0.0600 
    168 H168        2.6272  -16.5942  -40.1518 H         1 UNK         0.0600 
    169 H169        0.8289  -15.1017  -40.9669 H         1 UNK         0.3000 
    170 H170       -1.5942  -14.1846  -43.3945 H         1 UNK         0.0600 
    171 H171       -2.7900  -13.7846  -41.2393 H         1 UNK         0.0600 
    172 H172       -1.2923  -13.2409  -40.4923 H         1 UNK         0.0600 
    173 H173       -2.0101  -12.3200  -41.8147 H         1 UNK         0.0600 
    174 H174        0.5190  -12.7463  -42.1109 H         1 UNK         0.3000 
    175 H175        2.3223  -12.1098  -43.5774 H         1 UNK         0.0600 
    176 H176        3.5748  -14.8102  -42.7537 H         1 UNK         0.0600 
    177 H177        4.3141  -13.2285  -42.5337 H         1 UNK         0.0600 
    178 H178        2.8832  -13.6525  -41.6228 H         1 UNK         0.0600 
    179 H179        2.5920  -14.0582  -45.6143 H         1 UNK         0.3000 
    180 H180        5.7565  -12.9236  -46.9418 H         1 UNK         0.0600 
    181 H181        3.6622  -15.1514  -47.1240 H         1 UNK         0.0600 
    182 H182        5.2027  -15.2809  -46.2852 H         1 UNK         0.0600 
    183 H183        5.1659  -15.0260  -48.0217 H         1 UNK         0.0600 
    184 H184        3.1548  -13.0751  -48.2876 H         1 UNK         0.3000 
    185 H185        3.0392   -9.6854  -49.1818 H         1 UNK         0.0600 
    186 H186        3.1641  -10.4389  -51.5458 H         1 UNK         0.0600 
    187 H187        4.7696  -10.3906  -50.8362 H         1 UNK         0.0600 
    188 H188        3.9570  -11.9360  -51.0531 H         1 UNK         0.0600 
    189 H189        1.6969  -12.0574  -50.1273 H         1 UNK         0.3000 
    190 H190       -2.6113  -21.3976  -46.5999 H         1 UNK         0.3000 
    191 H191       -4.5050  -22.5811  -48.3621 H         1 UNK         0.0600 
    192 H192       -4.8990  -21.5074  -45.5165 H         1 UNK         0.0600 
    193 H193       -6.1776  -21.8039  -46.6863 H         1 UNK         0.0600 
    194 H194       -4.9904  -20.5449  -46.9848 H         1 UNK         0.0600 
    195 H195       -3.2563  -23.6891  -45.1877 H         1 UNK         0.3000 
    196 H196       -4.9380  -26.0020  -45.0118 H         1 UNK         0.0600 
    197 H197       -3.3195  -26.7079  -43.2534 H         1 UNK         0.0600 
    198 H198       -3.7994  -25.0304  -43.0412 H         1 UNK         0.0600 
    199 H199       -2.2213  -25.4158  -43.7209 H         1 UNK         0.0600 
    200 H200       -1.6085  -25.5207  -46.2723 H         1 UNK         0.3000 
    201 H201       -1.1392  -28.2602  -46.8928 H         1 UNK         0.0600 
    202 H202        0.6800  -26.6425  -46.4693 H         1 UNK         0.0600 
    203 H203        0.2427  -25.7229  -47.9072 H         1 UNK         0.0600 
    204 H204        0.8723  -27.3587  -48.0624 H         1 UNK         0.0600 
    205 H205       -2.0868  -25.4895  -49.0167 H         1 UNK         0.3000 
    206 H206       -2.1467  -27.2513  -51.3737 H         1 UNK         0.0600 
    207 H207       -1.0019  -24.9721  -51.3087 H         1 UNK         0.0600 
    208 H208       -2.1403  -25.2043  -52.6183 H         1 UNK         0.0600 
    209 H209       -2.6012  -24.2404  -51.2167 H         1 UNK         0.0600 
    210 H210       -4.3717  -26.4504  -49.0283 H         1 UNK         0.3000 
    211 H211       -6.5422  -26.7083  -48.7266 H         1 UNK         0.0600 
    212 H212       -6.2766  -28.6106  -51.1175 H         1 UNK         0.0600 
    213 H213       -7.6482  -28.5611  -50.0116 H         1 UNK         0.0600 
    214 H214       -6.0570  -28.9993  -49.4177 H         1 UNK         0.0600 
    215 H215       -7.3417  -27.1968  -52.0836 H         1 UNK         0.3000 
    216 H216       -9.3595  -25.1984  -52.1143 H         1 UNK         0.0600 
    217 H217       -9.5682  -25.8591  -54.5188 H         1 UNK         0.0600 
    218 H218       -9.4719  -27.2684  -53.4753 H         1 UNK         0.0600 
    219 H219       -8.0632  -26.7646  -54.4105 H         1 UNK         0.0600 
    220 H220       -5.9635  -25.0841  -53.0439 H         1 UNK         0.3000 
    221 H221       -6.1772  -22.4088  -54.3049 H         1 UNK         0.0600 
    222 H222       -3.8112  -24.2608  -53.7571 H         1 UNK         0.0600 
    223 H223       -4.5920  -23.9843  -55.3083 H         1 UNK         0.0600 
    224 H224       -3.6941  -22.6858  -54.5352 H         1 UNK         0.0600 
    225 H225       -7.3143  -21.7959  -52.2423 H         1 UNK         0.3000 
    226 H226       -6.1687  -21.6497  -49.7238 H         1 UNK         0.0600 
    227 H227       -8.5586  -21.2697  -50.1600 H         1 UNK         0.0600 
    228 H228       -7.8942  -19.8897  -49.2987 H         1 UNK         0.0600 
    229 H229       -8.2061  -19.7747  -51.0272 H         1 UNK         0.0600 
    230 H230       -4.3765  -20.7106  -49.0620 H         1 UNK         0.3000 
    231 H231       -2.6608  -19.4063  -48.6972 H         1 UNK         0.0600 
    232 H232       -2.8675  -16.9556  -48.8104 H         1 UNK         0.0600 
    233 H233       -4.3433  -17.6451  -48.1590 H         1 UNK         0.0600 
    234 H234       -4.2900  -17.0747  -49.8281 H         1 UNK         0.0600 
    235 H235       -2.9897  -20.7816  -51.3301 H         1 UNK         0.3000 
    236 H236       -1.8847  -21.1635  -53.1901 H         1 UNK         0.0600 
    237 H237        0.6329  -20.8048  -53.0816 H         1 UNK         0.0600 
    238 H238       -0.0466  -21.6290  -51.6951 H         1 UNK         0.0600 
    239 H239        0.3936  -19.9305  -51.5685 H         1 UNK         0.0600 
    240 H240        0.3023  -18.4566  -53.0789 H         1 UNK         0.3000 
    241 H241       -0.8954  -17.3857  -55.5343 H         1 UNK         0.0600 
    242 H242       -1.9316  -15.0045  -52.5161 H         1 UNK         0.3800 
    243 H243       -1.4473  -16.6638  -52.2457 H         1 UNK         0.3800 
    244 H244        1.5659  -17.9110  -55.4500 H         1 UNK         0.0800 
    245 H245        1.1133  -16.3508  -56.0398 H         1 UNK         0.0800 
    246 H246        2.7848  -18.4405  -53.4768 H         1 UNK         0.0800 
    247 H247        4.0175  -17.3636  -52.8776 H         1 UNK         0.0800 
@<TRIPOS>BOND
     1    1    2 1    
     2    1  127 1    
     3    1  128 1    
     4    1  129 1    
     5    2    3 2    
     6    2    4 am   BACKBONE|DICT|INTERRES
     7    4    5 1    
     8    4  130 1    
     9    5    6 1    
    10    5   65 1    
    11    5  131 1    
    12    6    7 1    
    13    6  132 1    
    14    6  133 1    
    15    7    8 1    
    16    8    9 1    
    17    8  134 1    
    18    8  135 1    
    19    9   10 ar   
    20    9   14 ar   
    21   10   11 ar   
    22   10  136 1    
    23   11   12 ar   
    24   11  126 1    
    25   12   13 ar   
    26   12  137 1    
    27   13   14 ar   
    28   13   15 1    
    29   14  138 1    
    30   15   16 1    
    31   15  139 1    
    32   15  140 1    
    33   16   17 1    
    34   17   18 1    
    35   17  141 1    
    36   17  142 1    
    37   18   19 1    
    38   18   67 1    
    39   18  143 1    
    40   19   20 am   BACKBONE|DICT|INTERRES
    41   19  144 1    
    42   20   21 2    
    43   20   22 1    
    44   22   23 1    
    45   22   24 1    
    46   22  145 1    
    47   23  146 1    
    48   23  147 1    
    49   23  148 1    
    50   24   25 am   BACKBONE|DICT|INTERRES
    51   24  149 1    
    52   25   26 2    
    53   25   27 1    
    54   27   28 1    
    55   27   29 1    
    56   27  150 1    
    57   28  151 1    
    58   28  152 1    
    59   28  153 1    
    60   29   30 am   BACKBONE|DICT|INTERRES
    61   29  154 1    
    62   30   31 2    
    63   30   32 1    
    64   32   33 1    
    65   32   34 1    
    66   32  155 1    
    67   33  156 1    
    68   33  157 1    
    69   33  158 1    
    70   34   35 am   BACKBONE|DICT|INTERRES
    71   34  159 1    
    72   35   36 2    
    73   35   37 1    
    74   37   38 1    
    75   37   39 1    
    76   37  160 1    
    77   38  161 1    
    78   38  162 1    
    79   38  163 1    
    80   39   40 am   BACKBONE|DICT|INTERRES
    81   39  164 1    
    82   40   41 2    
    83   40   42 1    
    84   42   43 1    
    85   42   44 1    
    86   42  165 1    
    87   43  166 1    
    88   43  167 1    
    89   43  168 1    
    90   44   45 am   BACKBONE|DICT|INTERRES
    91   44  169 1    
    92   45   46 2    
    93   45   47 1    
    94   47   48 1    
    95   47   49 1    
    96   47  170 1    
    97   48  171 1    
    98   48  172 1    
    99   48  173 1    
   100   49   50 am   BACKBONE|DICT|INTERRES
   101   49  174 1    
   102   50   51 2    
   103   50   52 1    
   104   52   53 1    
   105   52   54 1    
   106   52  175 1    
   107   53  176 1    
   108   53  177 1    
   109   53  178 1    
   110   54   55 am   BACKBONE|DICT|INTERRES
   111   54  179 1    
   112   55   56 2    
   113   55   57 1    
   114   57   58 1    
   115   57   59 1    
   116   57  180 1    
   117   58  181 1    
   118   58  182 1    
   119   58  183 1    
   120   59   60 am   BACKBONE|DICT|INTERRES
   121   59  184 1    
   122   60   61 2    
   123   60   62 1    
   124   62   63 1    
   125   62   64 1    
   126   62  185 1    
   127   63  186 1    
   128   63  187 1    
   129   63  188 1    
   130   64   65 am   BACKBONE|DICT|INTERRES
   131   64  189 1    
   132   65   66 2    
   133   67   68 2    
   134   67   69 am   BACKBONE|DICT|INTERRES
   135   69   70 1    
   136   69  190 1    
   137   70   71 1    
   138   70   72 1    
   139   70  191 1    
   140   71  192 1    
   141   71  193 1    
   142   71  194 1    
   143   72   73 2    
   144   72   74 am   BACKBONE|DICT|INTERRES
   145   74   75 1    
   146   74  195 1    
   147   75   76 1    
   148   75   77 1    
   149   75  196 1    
   150   76  197 1    
   151   76  198 1    
   152   76  199 1    
   153   77   78 2    
   154   77   79 am   BACKBONE|DICT|INTERRES
   155   79   80 1    
   156   79  200 1    
   157   80   81 1    
   158   80   82 1    
   159   80  201 1    
   160   81  202 1    
   161   81  203 1    
   162   81  204 1    
   163   82   83 2    
   164   82   84 am   BACKBONE|DICT|INTERRES
   165   84   85 1    
   166   84  205 1    
   167   85   86 1    
   168   85   87 1    
   169   85  206 1    
   170   86  207 1    
   171   86  208 1    
   172   86  209 1    
   173   87   88 2    
   174   87   89 am   BACKBONE|DICT|INTERRES
   175   89   90 1    
   176   89  210 1    
   177   90   91 1    
   178   90   92 1    
   179   90  211 1    
   180   91  212 1    
   181   91  213 1    
   182   91  214 1    
   183   92   93 2    
   184   92   94 am   BACKBONE|DICT|INTERRES
   185   94   95 1    
   186   94  215 1    
   187   95   96 1    
   188   95   97 1    
   189   95  216 1    
   190   96  217 1    
   191   96  218 1    
   192   96  219 1    
   193   97   98 2    
   194   97   99 am   BACKBONE|DICT|INTERRES
   195   99  100 1    
   196   99  220 1    
   197  100  101 1    
   198  100  102 1    
   199  100  221 1    
   200  101  222 1    
   201  101  223 1    
   202  101  224 1    
   203  102  103 2    
   204  102  104 am   BACKBONE|DICT|INTERRES
   205  104  105 1    
   206  104  225 1    
   207  105  106 1    
   208  105  107 1    
   209  105  226 1    
   210  106  227 1    
   211  106  228 1    
   212  106  229 1    
   213  107  108 2    
   214  107  109 am   BACKBONE|DICT|INTERRES
   215  109  110 1    
   216  109  230 1    
   217  110  111 1    
   218  110  112 1    
   219  110  231 1    
   220  111  232 1    
   221  111  233 1    
   222  111  234 1    
   223  112  113 2    
   224  112  114 am   BACKBONE|DICT|INTERRES
   225  114  115 1    
   226  114  235 1    
   227  115  116 1    
   228  115  117 1    
   229  115  236 1    
   230  116  237 1    
   231  116  238 1    
   232  116  239 1    
   233  117  118 2    
   234  117  119 am   BACKBONE|DICT|INTERRES
   235  119  120 1    
   236  119  240 1    
   237  120  121 1    
   238  120  124 1    
   239  120  241 1    
   240  121  122 am   BACKBONE|DICT|INTERRES
   241  121  123 2    
   242  122  242 1    
   243  122  243 1    
   244  124  125 1    
   245  124  244 1    
   246  124  245 1    
   247  125  126 1    
   248  126  246 1    
   249  126  247 1    
@<TRIPOS>SUBSTRUCTURE
     1 UNK         1 GROUP             0       ****    0 ROOT    
