@<TRIPOS>MOLECULE
3R540
247   249    1
SMALL
USER_CHARGES


@<TRIPOS>ATOM
      1 CA         -0.9975   -9.7491  -48.5088 C.3       0 UNK        -0.1800 
      2 C          -0.5675  -11.1626  -48.1457 C.2       0 UNK         0.5000 
      3 O          -1.2063  -11.8020  -47.3094 O.2       0 UNK        -0.5000 
      4 N           0.5010  -11.6627  -48.7829 N.am      1 UNK        -0.5000 
      5 CA          1.0742  -12.9993  -48.5624 C.3       1 UNK         0.1400 
      6 C6          2.4317  -13.1748  -49.2874 C.3       23 UNK        -0.0398 
      7 S7          2.3521  -13.0272  -51.1118 S.3       23 UNK        -0.2404 
      8 C8          3.2136  -14.5371  -51.6627 C.3       23 UNK        -0.0205 
      9 C9          2.2908  -15.7466  -51.7362 C.ar      23 UNK        -0.0193 
     10 C10         1.7359  -16.1379  -52.9600 C.ar      23 UNK        -0.1150 
     11 C11         0.9231  -17.2731  -53.0403 C.ar      23 UNK        -0.0193 
     12 C12         0.6454  -18.0002  -51.8813 C.ar      23 UNK        -0.1150 
     13 C13         1.1743  -17.6102  -50.6494 C.ar      23 UNK        -0.0193 
     14 C14         2.0138  -16.4956  -50.5888 C.ar      23 UNK        -0.1150 
     15 C15         0.8475  -18.3956  -49.3883 C.3       23 UNK        -0.0205 
     16 S16        -0.9382  -18.3764  -49.0318 S.3       23 UNK        -0.2404 
     17 C17        -0.9978  -19.0044  -47.3247 C.3       23 UNK        -0.0398 
     18 CA         -1.0694  -20.5476  -47.2738 C.3       11 UNK         0.1400 
     19 N           0.2198  -21.1595  -47.5997 N.am      11 UNK        -0.5000 
     20 C           0.4208  -22.4522  -47.8862 C.2       10 UNK         0.5000 
     21 O          -0.4847  -23.2813  -47.9557 O.2       10 UNK        -0.5000 
     22 CA          1.8906  -22.9037  -48.0284 C.3       10 UNK         0.1400 
     23 CB          2.3321  -22.8532  -49.4964 C.3       10 UNK        -0.1800 
     24 N           2.8232  -22.1113  -47.2140 N.am      10 UNK        -0.5000 
     25 C           2.7449  -21.9980  -45.8813 C.2       9 UNK         0.5000 
     26 O           1.9010  -22.5966  -45.2101 O.2       9 UNK        -0.5000 
     27 CA          3.6920  -20.9851  -45.2106 C.3       9 UNK         0.1400 
     28 CB          3.3456  -19.5515  -45.6541 C.3       9 UNK        -0.1800 
     29 N           3.5632  -21.0457  -43.7573 N.am      9 UNK        -0.5000 
     30 C           4.1370  -21.9499  -42.9542 C.2       8 UNK         0.5000 
     31 O           4.9696  -22.7715  -43.3418 O.2       8 UNK        -0.5000 
     32 CA          3.6718  -21.9603  -41.4793 C.3       8 UNK         0.1400 
     33 CB          4.8297  -22.2133  -40.4914 C.3       8 UNK        -0.1800 
     34 N           2.8787  -20.7801  -41.0985 N.am      8 UNK        -0.5000 
     35 C           3.2952  -19.5098  -40.9724 C.2       7 UNK         0.5000 
     36 O           4.4696  -19.1594  -41.0881 O.2       7 UNK        -0.5000 
     37 CA          2.2137  -18.4354  -40.7323 C.3       7 UNK         0.1400 
     38 CB          2.2235  -17.4069  -41.8752 C.3       7 UNK        -0.1800 
     39 N           0.8583  -18.9843  -40.6259 N.am      7 UNK        -0.5000 
     40 C           0.2973  -19.4438  -39.4986 C.2       6 UNK         0.5000 
     41 O           0.9010  -19.5056  -38.4270 O.2       6 UNK        -0.5000 
     42 CA         -1.1628  -19.9522  -39.5779 C.3       6 UNK         0.1400 
     43 CB         -2.0060  -19.4817  -38.3745 C.3       6 UNK        -0.1800 
     44 N          -1.8551  -19.6668  -40.8456 N.am      6 UNK        -0.5000 
     45 C          -2.1707  -18.4655  -41.3501 C.2       5 UNK         0.5000 
     46 O          -1.9282  -17.3943  -40.7899 O.2       5 UNK        -0.5000 
     47 CA         -2.8688  -18.4660  -42.7231 C.3       5 UNK         0.1400 
     48 CB         -4.3933  -18.3872  -42.5606 C.3       5 UNK        -0.1800 
     49 N          -2.4039  -17.3491  -43.5402 N.am      5 UNK        -0.5000 
     50 C          -1.1734  -17.2416  -44.0529 C.2       4 UNK         0.5000 
     51 O          -0.3578  -18.1665  -44.0371 O.2       4 UNK        -0.5000 
     52 CA         -0.7982  -15.8737  -44.6685 C.3       4 UNK         0.1400 
     53 CB          0.6474  -15.8432  -45.1959 C.3       4 UNK        -0.1800 
     54 N          -1.7117  -15.4274  -45.7290 N.am      4 UNK        -0.5000 
     55 C          -2.9549  -14.9559  -45.5366 C.2       3 UNK         0.5000 
     56 O          -3.4811  -14.8974  -44.4237 O.2       3 UNK        -0.5000 
     57 CA         -3.7534  -14.4616  -46.7598 C.3       3 UNK         0.1400 
     58 CB         -4.4418  -13.1156  -46.4734 C.3       3 UNK        -0.1800 
     59 N          -2.9178  -14.3061  -47.9470 N.am      3 UNK        -0.5000 
     60 C          -2.9284  -15.1141  -49.0156 C.2       2 UNK         0.5000 
     61 O          -3.6656  -16.0956  -49.1213 O.2       2 UNK        -0.5000 
     62 CA         -1.9650  -14.7639  -50.1725 C.3       2 UNK         0.1400 
     63 CB         -2.7291  -14.0601  -51.3070 C.3       2 UNK        -0.1800 
     64 N          -0.8482  -13.8964  -49.7967 N.am      2 UNK        -0.5000 
     65 C           0.0874  -14.1472  -48.8715 C.2       1 UNK         0.5000 
     66 O           0.1465  -15.1902  -48.2245 O.2       1 UNK        -0.5000 
     67 C          -1.6350  -21.0226  -45.9184 C.2       11 UNK         0.5000 
     68 O          -2.8487  -20.9460  -45.7373 O.2       11 UNK        -0.5000 
     69 N          -0.7942  -21.5274  -45.0030 N.am      12 UNK        -0.5000 
     70 CA         -1.2422  -22.1319  -43.7473 C.3       12 UNK         0.1400 
     71 CB         -0.1160  -22.0773  -42.7038 C.3       12 UNK        -0.1800 
     72 C          -1.7422  -23.5693  -43.9604 C.2       12 UNK         0.5000 
     73 O          -2.7133  -23.9695  -43.3194 O.2       12 UNK        -0.5000 
     74 N          -1.1013  -24.3013  -44.8819 N.am      13 UNK        -0.5000 
     75 CA         -1.5147  -25.6403  -45.3021 C.3       13 UNK         0.1400 
     76 CB         -0.3604  -26.3201  -46.0551 C.3       13 UNK        -0.1800 
     77 C          -2.7911  -25.6026  -46.1629 C.2       13 UNK         0.5000 
     78 O          -3.6947  -26.4117  -45.9516 O.2       13 UNK        -0.5000 
     79 N          -2.8471  -24.6493  -47.1029 N.am      14 UNK        -0.5000 
     80 CA         -3.9721  -24.4393  -48.0161 C.3       14 UNK         0.1400 
     81 CB         -3.4644  -23.6677  -49.2420 C.3       14 UNK        -0.1800 
     82 C          -5.1661  -23.7016  -47.3756 C.2       14 UNK         0.5000 
     83 O          -6.2507  -23.7126  -47.9571 O.2       14 UNK        -0.5000 
     84 N          -4.9459  -23.0715  -46.2119 N.am      15 UNK        -0.5000 
     85 CA         -5.8941  -22.2650  -45.4351 C.3       15 UNK         0.1400 
     86 CB         -7.0580  -23.1309  -44.9090 C.3       15 UNK        -0.1800 
     87 C          -6.3588  -21.0078  -46.2011 C.2       15 UNK         0.5000 
     88 O          -7.5590  -20.7902  -46.3765 O.2       15 UNK        -0.5000 
     89 N          -5.3739  -20.2080  -46.6367 N.am      16 UNK        -0.5000 
     90 CA         -5.4984  -18.9367  -47.3593 C.3       16 UNK         0.1400 
     91 CB         -6.0543  -17.8339  -46.4349 C.3       16 UNK        -0.1800 
     92 C          -6.2754  -19.0657  -48.6859 C.2       16 UNK         0.5000 
     93 O          -7.2005  -18.2955  -48.9491 O.2       16 UNK        -0.5000 
     94 N          -5.8695  -20.0407  -49.5116 N.am      17 UNK        -0.5000 
     95 CA         -6.4422  -20.3022  -50.8384 C.3       17 UNK         0.1400 
     96 CB         -6.1562  -21.7595  -51.2329 C.3       17 UNK        -0.1800 
     97 C          -5.9557  -19.3242  -51.9323 C.2       17 UNK         0.5000 
     98 O          -6.3428  -19.4780  -53.0921 O.2       17 UNK        -0.5000 
     99 N          -5.1191  -18.3462  -51.5551 N.am      18 UNK        -0.5000 
    100 CA        -4.5474  -17.2901  -52.3881 C.3       18 UNK         0.1400 
    101 CB        -5.6388  -16.2886  -52.8276 C.3       18 UNK        -0.1800 
    102 C         -3.7046  -17.8662  -53.5375 C.2       18 UNK         0.5000 
    103 O         -2.7619  -18.6047  -53.2613 O.2       18 UNK        -0.5000 
    104 N         -4.0508  -17.5511  -54.7928 N.am      19 UNK        -0.5000 
    105 CA        -3.3451  -17.9841  -56.0034 C.3       19 UNK         0.1400 
    106 CB        -4.0408  -17.3748  -57.2298 C.3       19 UNK        -0.1800 
    107 C         -3.2156  -19.5131  -56.1616 C.2       19 UNK         0.5000 
    108 O         -2.2610  -19.9732  -56.7858 O.2       19 UNK        -0.5000 
    109 N         -4.1514  -20.2723  -55.5748 N.am      20 UNK        -0.5000 
    110 CA        -4.1298  -21.7350  -55.5460 C.3       20 UNK         0.1400 
    111 CB        -5.5491  -22.2462  -55.2579 C.3       20 UNK        -0.1800 
    112 C         -3.1218  -22.3178  -54.5327 C.2       20 UNK         0.5000 
    113 O         -2.8150  -23.5072  -54.6186 O.2       20 UNK        -0.5000 
    114 N         -2.6214  -21.4954  -53.5983 N.am      21 UNK        -0.5000 
    115 CA        -1.6455  -21.8872  -52.5793 C.3       21 UNK         0.1400 
    116 CB        -1.9331  -21.1186  -51.2781 C.3       21 UNK        -0.1800 
    117 C         -0.1829  -21.7022  -53.0369 C.2       21 UNK         0.5000 
    118 O          0.7217  -21.9184  -52.2312 O.2       21 UNK        -0.5000 
    119 N          0.0470  -21.3279  -54.3018 N.am      22 UNK        -0.5000 
    120 CA         1.3781  -21.2494  -54.9197 C.3       22 UNK         0.1400 
    121 C          1.3508  -21.6414  -56.4251 C.2       22 UNK         0.5000 
    122 N          2.4750  -21.5561  -57.1246 N.am      22 UNK        -0.7600 
    123 O          0.3296  -22.0604  -56.9657 O.2       22 UNK        -0.5000 
    124 C124        2.1226  -19.9233  -54.5869 C.3       23 UNK        -0.0398 
    125 S125        1.5606  -18.4375  -55.4971 S.3       23 UNK        -0.2404 
    126 C126        0.3293  -17.7141  -54.3704 C.3       23 UNK        -0.0205 
    127 H127       -0.3508   -9.3112  -49.2695 H         1 UNK         0.0600 
    128 H128       -0.9666   -9.1101  -47.6264 H         1 UNK         0.0600 
    129 H129       -2.0181   -9.7549  -48.8914 H         1 UNK         0.0600 
    130 H130        0.9751  -11.0976  -49.4737 H         1 UNK         0.3000 
    131 H131        1.2793  -13.0665  -47.4918 H         1 UNK         0.0600 
    132 H132        2.8870  -14.1225  -49.0021 H         1 UNK         0.0800 
    133 H133        3.1269  -12.4139  -48.9305 H         1 UNK         0.0800 
    134 H134        4.0597  -14.7474  -51.0069 H         1 UNK         0.0800 
    135 H135        3.6436  -14.3449  -52.6469 H         1 UNK         0.0800 
    136 H136        1.9487  -15.5705  -53.8551 H         1 UNK         0.1150 
    137 H137        0.0104  -18.8708  -51.9361 H         1 UNK         0.1150 
    138 H138        2.4415  -16.2081  -49.6404 H         1 UNK         0.1150 
    139 H139        1.1838  -19.4239  -49.5204 H         1 UNK         0.0800 
    140 H140        1.3886  -17.9860  -48.5339 H         1 UNK         0.0800 
    141 H141       -1.8828  -18.5559  -46.8686 H         1 UNK         0.0800 
    142 H142       -0.1458  -18.6302  -46.7563 H         1 UNK         0.0800 
    143 H143       -1.7882  -20.8771  -48.0265 H         1 UNK         0.0600 
    144 H144        1.0266  -20.5582  -47.5475 H         1 UNK         0.3000 
    145 H145        1.9475  -23.9399  -47.6884 H         1 UNK         0.0600 
    146 H146        3.3427  -23.2425  -49.6204 H         1 UNK         0.0600 
    147 H147        1.6737  -23.4586  -50.1209 H         1 UNK         0.0600 
    148 H148        2.3118  -21.8360  -49.8897 H         1 UNK         0.0600 
    149 H149        3.5377  -21.6010  -47.7131 H         1 UNK         0.3000 
    150 H150        4.7192  -21.2173  -45.4989 H         1 UNK         0.0600 
    151 H151        3.4842  -19.4197  -46.7277 H         1 UNK         0.0600 
    152 H152        3.9874  -18.8225  -45.1586 H         1 UNK         0.0600 
    153 H153        2.3110  -19.2934  -45.4206 H         1 UNK         0.0600 
    154 H154        2.8714  -20.4375  -43.3490 H         1 UNK         0.3000 
    155 H155        2.9900  -22.8079  -41.3971 H         1 UNK         0.0600 
    156 H156        5.6168  -21.4649  -40.5839 H         1 UNK         0.0600 
    157 H157        5.2880  -23.1867  -40.6698 H         1 UNK         0.0600 
    158 H158        4.4775  -22.2065  -39.4599 H         1 UNK         0.0600 
    159 H159        1.8928  -20.9479  -40.9651 H         1 UNK         0.3000 
    160 H160        2.4659  -17.9164  -39.8053 H         1 UNK         0.0600 
    161 H161        2.0588  -17.8827  -42.8425 H         1 UNK         0.0600 
    162 H162        3.1799  -16.8851  -41.9270 H         1 UNK         0.0600 
    163 H163        1.4500  -16.6512  -41.7359 H         1 UNK         0.0600 
    164 H164        0.2922  -18.9429  -41.4615 H         1 UNK         0.3000 
    165 H165       -1.0955  -21.0393  -39.5173 H         1 UNK         0.0600 
    166 H166       -2.0590  -18.3944  -38.3150 H         1 UNK         0.0600 
    167 H167       -3.0247  -19.8649  -38.4324 H         1 UNK         0.0600 
    168 H168       -1.5816  -19.8373  -37.4348 H         1 UNK         0.0600 
    169 H169       -2.1235  -20.4851  -41.3714 H         1 UNK         0.3000 
    170 H170       -2.6273  -19.3887  -43.2500 H         1 UNK         0.0600 
    171 H171       -4.7033  -17.4384  -42.1209 H         1 UNK         0.0600 
    172 H172       -4.8969  -18.4961  -43.5199 H         1 UNK         0.0600 
    173 H173       -4.7606  -19.1854  -41.9142 H         1 UNK         0.0600 
    174 H174       -3.0030  -16.5300  -43.5911 H         1 UNK         0.3000 
    175 H175       -0.8528  -15.1478  -43.8546 H         1 UNK         0.0600 
    176 H176        0.7964  -16.5519  -46.0104 H         1 UNK         0.0600 
    177 H177        0.9121  -14.8511  -45.5611 H         1 UNK         0.0600 
    178 H178        1.3592  -16.0941  -44.4096 H         1 UNK         0.0600 
    179 H179       -1.3399  -15.4505  -46.6722 H         1 UNK         0.3000 
    180 H180       -4.5341  -15.2005  -46.9422 H         1 UNK         0.0600 
    181 H181       -5.0111  -12.7730  -47.3376 H         1 UNK         0.0600 
    182 H182       -3.7180  -12.3401  -46.2203 H         1 UNK         0.0600 
    183 H183       -5.1408  -13.1982  -45.6403 H         1 UNK         0.0600 
    184 H184       -2.2680  -13.5273  -47.9265 H         1 UNK         0.3000 
    185 H185       -1.5540  -15.7025  -50.5502 H         1 UNK         0.0600 
    186 H186       -2.1349  -14.0308  -52.2207 H         1 UNK         0.0600 
    187 H187       -3.6657  -14.5614  -51.5422 H         1 UNK         0.0600 
    188 H188       -2.9841  -13.0340  -51.0392 H         1 UNK         0.0600 
    189 H189       -0.8041  -13.0029  -50.2637 H         1 UNK         0.3000 
    190 H190        0.1928  -21.6202  -45.2160 H         1 UNK         0.3000 
    191 H191       -2.0820  -21.5568  -43.3577 H         1 UNK         0.0600 
    192 H192       -0.4819  -22.3803  -41.7224 H         1 UNK         0.0600 
    193 H193        0.2826  -21.0676  -42.6136 H         1 UNK         0.0600 
    194 H194        0.7082  -22.7437  -42.9566 H         1 UNK         0.0600 
    195 H195       -0.3096  -23.8942  -45.3602 H         1 UNK         0.3000 
    196 H196       -1.7292  -26.2315  -44.4092 H         1 UNK         0.0600 
    197 H197       -0.0881  -25.7762  -46.9600 H         1 UNK         0.0600 
    198 H198        0.5289  -26.3934  -45.4289 H         1 UNK         0.0600 
    199 H199       -0.6335  -27.3334  -46.3521 H         1 UNK         0.0600 
    200 H200       -2.0231  -24.0744  -47.2643 H         1 UNK         0.3000 
    201 H201       -4.3306  -25.4139  -48.3539 H         1 UNK         0.0600 
    202 H202       -4.2405  -23.5911  -50.0024 H         1 UNK         0.0600 
    203 H203       -3.1551  -22.6578  -48.9744 H         1 UNK         0.0600 
    204 H204       -2.6122  -24.1680  -49.7027 H         1 UNK         0.0600 
    205 H205       -4.0047  -23.0965  -45.8462 H         1 UNK         0.3000 
    206 H206       -5.3425  -21.9044  -44.5653 H         1 UNK         0.0600 
    207 H207       -6.6868  -23.9897  -44.3497 H         1 UNK         0.0600 
    208 H208       -7.6960  -22.5564  -44.2366 H         1 UNK         0.0600 
    209 H209       -7.6889  -23.5037  -45.7162 H         1 UNK         0.0600 
    210 H210       -4.4229  -20.4865  -46.3973 H         1 UNK         0.3000 
    211 H211       -4.4857  -18.6399  -47.6376 H         1 UNK         0.0600 
    212 H212       -6.1687  -16.8920  -46.9717 H         1 UNK         0.0600 
    213 H213       -5.3789  -17.6442  -45.6022 H         1 UNK         0.0600 
    214 H214       -7.0313  -18.0959  -46.0284 H         1 UNK         0.0600 
    215 H215       -5.1203  -20.6470  -49.2142 H         1 UNK         0.3000 
    216 H216       -7.5259  -20.1874  -50.7689 H         1 UNK         0.0600 
    217 H217       -5.1074  -21.9156  -51.4827 H         1 UNK         0.0600 
    218 H218       -6.7445  -22.0448  -52.1049 H         1 UNK         0.0600 
    219 H219       -6.4248  -22.4483  -50.4321 H         1 UNK         0.0600 
    220 H220       -4.8353  -18.3243  -50.5868 H         1 UNK         0.3000 
    221 H221       -3.8400  -16.7667  -51.7483 H         1 UNK         0.0600 
    222 H222       -6.1463  -15.8677  -51.9593 H         1 UNK         0.0600 
    223 H223       -6.3980  -16.7540  -53.4570 H         1 UNK         0.0600 
    224 H224       -5.2104  -15.4523  -53.3813 H         1 UNK         0.0600 
    225 H225       -4.8590  -16.9625  -54.9318 H         1 UNK         0.3000 
    226 H226       -2.3325  -17.5801  -55.9517 H         1 UNK         0.0600 
    227 H227       -5.0737  -17.7148  -57.3155 H         1 UNK         0.0600 
    228 H228       -4.0473  -16.2858  -57.1807 H         1 UNK         0.0600 
    229 H229       -3.5260  -17.6534  -58.1504 H         1 UNK         0.0600 
    230 H230       -4.8908  -19.8186  -55.0537 H         1 UNK         0.3000 
    231 H231       -3.8382  -22.0968  -56.5343 H         1 UNK         0.0600 
    232 H232       -5.9084  -21.9021  -54.2892 H         1 UNK         0.0600 
    233 H233       -5.5814  -23.3364  -55.2525 H         1 UNK         0.0600 
    234 H234       -6.2532  -21.9044  -56.0167 H         1 UNK         0.0600 
    235 H235       -2.8723  -20.5107  -53.6093 H         1 UNK         0.3000 
    236 H236       -1.7681  -22.9488  -52.3553 H         1 UNK         0.0600 
    237 H237       -2.9554  -21.2760  -50.9415 H         1 UNK         0.0600 
    238 H238       -1.2724  -21.4450  -50.4741 H         1 UNK         0.0600 
    239 H239       -1.7939  -20.0470  -51.3980 H         1 UNK         0.0600 
    240 H240       -0.7296  -21.2029  -54.9380 H         1 UNK         0.3000 
    241 H241        1.9665  -22.0533  -54.4729 H         1 UNK         0.0600 
    242 H242        2.4632  -21.8206  -58.0974 H         1 UNK         0.3800 
    243 H243        3.3342  -21.2248  -56.7151 H         1 UNK         0.3800 
    244 H244        3.1840  -20.0437  -54.8056 H         1 UNK         0.0800 
    245 H245        2.0866  -19.7369  -53.5142 H         1 UNK         0.0800 
    246 H246       -0.4575  -18.4506  -54.2170 H         1 UNK         0.0800 
    247 H247       -0.1400  -16.8575  -54.8555 H         1 UNK         0.0800 
@<TRIPOS>BOND
     1    1    2 1    
     2    1  127 1    
     3    1  128 1    
     4    1  129 1    
     5    2    3 2    
     6    2    4 am   BACKBONE|DICT|INTERRES
     7    4    5 1    
     8    4  130 1    
     9    5    6 1    
    10    5   65 1    
    11    5  131 1    
    12    6    7 1    
    13    6  132 1    
    14    6  133 1    
    15    7    8 1    
    16    8    9 1    
    17    8  134 1    
    18    8  135 1    
    19    9   10 ar   
    20    9   14 ar   
    21   10   11 ar   
    22   10  136 1    
    23   11   12 ar   
    24   11  126 1    
    25   12   13 ar   
    26   12  137 1    
    27   13   14 ar   
    28   13   15 1    
    29   14  138 1    
    30   15   16 1    
    31   15  139 1    
    32   15  140 1    
    33   16   17 1    
    34   17   18 1    
    35   17  141 1    
    36   17  142 1    
    37   18   19 1    
    38   18   67 1    
    39   18  143 1    
    40   19   20 am   BACKBONE|DICT|INTERRES
    41   19  144 1    
    42   20   21 2    
    43   20   22 1    
    44   22   23 1    
    45   22   24 1    
    46   22  145 1    
    47   23  146 1    
    48   23  147 1    
    49   23  148 1    
    50   24   25 am   BACKBONE|DICT|INTERRES
    51   24  149 1    
    52   25   26 2    
    53   25   27 1    
    54   27   28 1    
    55   27   29 1    
    56   27  150 1    
    57   28  151 1    
    58   28  152 1    
    59   28  153 1    
    60   29   30 am   BACKBONE|DICT|INTERRES
    61   29  154 1    
    62   30   31 2    
    63   30   32 1    
    64   32   33 1    
    65   32   34 1    
    66   32  155 1    
    67   33  156 1    
    68   33  157 1    
    69   33  158 1    
    70   34   35 am   BACKBONE|DICT|INTERRES
    71   34  159 1    
    72   35   36 2    
    73   35   37 1    
    74   37   38 1    
    75   37   39 1    
    76   37  160 1    
    77   38  161 1    
    78   38  162 1    
    79   38  163 1    
    80   39   40 am   BACKBONE|DICT|INTERRES
    81   39  164 1    
    82   40   41 2    
    83   40   42 1    
    84   42   43 1    
    85   42   44 1    
    86   42  165 1    
    87   43  166 1    
    88   43  167 1    
    89   43  168 1    
    90   44   45 am   BACKBONE|DICT|INTERRES
    91   44  169 1    
    92   45   46 2    
    93   45   47 1    
    94   47   48 1    
    95   47   49 1    
    96   47  170 1    
    97   48  171 1    
    98   48  172 1    
    99   48  173 1    
   100   49   50 am   BACKBONE|DICT|INTERRES
   101   49  174 1    
   102   50   51 2    
   103   50   52 1    
   104   52   53 1    
   105   52   54 1    
   106   52  175 1    
   107   53  176 1    
   108   53  177 1    
   109   53  178 1    
   110   54   55 am   BACKBONE|DICT|INTERRES
   111   54  179 1    
   112   55   56 2    
   113   55   57 1    
   114   57   58 1    
   115   57   59 1    
   116   57  180 1    
   117   58  181 1    
   118   58  182 1    
   119   58  183 1    
   120   59   60 am   BACKBONE|DICT|INTERRES
   121   59  184 1    
   122   60   61 2    
   123   60   62 1    
   124   62   63 1    
   125   62   64 1    
   126   62  185 1    
   127   63  186 1    
   128   63  187 1    
   129   63  188 1    
   130   64   65 am   BACKBONE|DICT|INTERRES
   131   64  189 1    
   132   65   66 2    
   133   67   68 2    
   134   67   69 am   BACKBONE|DICT|INTERRES
   135   69   70 1    
   136   69  190 1    
   137   70   71 1    
   138   70   72 1    
   139   70  191 1    
   140   71  192 1    
   141   71  193 1    
   142   71  194 1    
   143   72   73 2    
   144   72   74 am   BACKBONE|DICT|INTERRES
   145   74   75 1    
   146   74  195 1    
   147   75   76 1    
   148   75   77 1    
   149   75  196 1    
   150   76  197 1    
   151   76  198 1    
   152   76  199 1    
   153   77   78 2    
   154   77   79 am   BACKBONE|DICT|INTERRES
   155   79   80 1    
   156   79  200 1    
   157   80   81 1    
   158   80   82 1    
   159   80  201 1    
   160   81  202 1    
   161   81  203 1    
   162   81  204 1    
   163   82   83 2    
   164   82   84 am   BACKBONE|DICT|INTERRES
   165   84   85 1    
   166   84  205 1    
   167   85   86 1    
   168   85   87 1    
   169   85  206 1    
   170   86  207 1    
   171   86  208 1    
   172   86  209 1    
   173   87   88 2    
   174   87   89 am   BACKBONE|DICT|INTERRES
   175   89   90 1    
   176   89  210 1    
   177   90   91 1    
   178   90   92 1    
   179   90  211 1    
   180   91  212 1    
   181   91  213 1    
   182   91  214 1    
   183   92   93 2    
   184   92   94 am   BACKBONE|DICT|INTERRES
   185   94   95 1    
   186   94  215 1    
   187   95   96 1    
   188   95   97 1    
   189   95  216 1    
   190   96  217 1    
   191   96  218 1    
   192   96  219 1    
   193   97   98 2    
   194   97   99 am   BACKBONE|DICT|INTERRES
   195   99  100 1    
   196   99  220 1    
   197  100  101 1    
   198  100  102 1    
   199  100  221 1    
   200  101  222 1    
   201  101  223 1    
   202  101  224 1    
   203  102  103 2    
   204  102  104 am   BACKBONE|DICT|INTERRES
   205  104  105 1    
   206  104  225 1    
   207  105  106 1    
   208  105  107 1    
   209  105  226 1    
   210  106  227 1    
   211  106  228 1    
   212  106  229 1    
   213  107  108 2    
   214  107  109 am   BACKBONE|DICT|INTERRES
   215  109  110 1    
   216  109  230 1    
   217  110  111 1    
   218  110  112 1    
   219  110  231 1    
   220  111  232 1    
   221  111  233 1    
   222  111  234 1    
   223  112  113 2    
   224  112  114 am   BACKBONE|DICT|INTERRES
   225  114  115 1    
   226  114  235 1    
   227  115  116 1    
   228  115  117 1    
   229  115  236 1    
   230  116  237 1    
   231  116  238 1    
   232  116  239 1    
   233  117  118 2    
   234  117  119 am   BACKBONE|DICT|INTERRES
   235  119  120 1    
   236  119  240 1    
   237  120  121 1    
   238  120  124 1    
   239  120  241 1    
   240  121  122 am   BACKBONE|DICT|INTERRES
   241  121  123 2    
   242  122  242 1    
   243  122  243 1    
   244  124  125 1    
   245  124  244 1    
   246  124  245 1    
   247  125  126 1    
   248  126  246 1    
   249  126  247 1    
@<TRIPOS>SUBSTRUCTURE
     1 UNK         1 GROUP             0       ****    0 ROOT    
