@<TRIPOS>MOLECULE
3R540
247   249    1
SMALL
USER_CHARGES


@<TRIPOS>ATOM
      1 CA          2.3401  -14.2931  -47.7314 C.3       0 UNK        -0.1800 
      2 C           1.0054  -14.9283  -47.3746 C.2       0 UNK         0.5000 
      3 O           0.6409  -14.9792  -46.2024 O.2       0 UNK        -0.5000 
      4 N           0.2568  -15.4047  -48.3759 N.am      1 UNK        -0.5000 
      5 CA         -1.0458  -16.0680  -48.2100 C.3       1 UNK         0.1400 
      6 C6         -1.5062  -16.7539  -49.5167 C.3       23 UNK        -0.0398 
      7 S7         -0.5093  -18.2286  -49.8961 S.3       23 UNK        -0.2404 
      8 C8          0.7650  -17.5754  -51.0111 C.3       23 UNK        -0.0205 
      9 C9          1.5633  -18.7092  -51.6321 C.ar      23 UNK        -0.0193 
     10 C10         1.4241  -19.0057  -52.9891 C.ar      23 UNK        -0.1150 
     11 C11         2.1506  -20.0512  -53.5641 C.ar      23 UNK        -0.0193 
     12 C12         3.0239  -20.8034  -52.7717 C.ar      23 UNK        -0.1150 
     13 C13         3.1669  -20.5213  -51.4093 C.ar      23 UNK        -0.0193 
     14 C14         2.4386  -19.4676  -50.8491 C.ar      23 UNK        -0.1150 
     15 C15         4.1108  -21.3463  -50.5414 C.3       23 UNK        -0.0205 
     16 S16         3.5784  -23.0826  -50.3794 S.3       23 UNK        -0.2404 
     17 C17         1.9464  -22.8970  -49.5878 C.3       23 UNK        -0.0398 
     18 CA          1.7468  -23.8261  -48.3641 C.3       11 UNK         0.1400 
     19 N           2.6423  -23.4906  -47.2622 N.am      11 UNK        -0.5000 
     20 C           3.4983  -24.3274  -46.6632 C.2       10 UNK         0.5000 
     21 O           3.7216  -25.4745  -47.0514 O.2       10 UNK        -0.5000 
     22 CA          4.1949  -23.8111  -45.3854 C.3       10 UNK         0.1400 
     23 CB          5.5530  -23.1827  -45.7326 C.3       10 UNK        -0.1800 
     24 N           3.3904  -22.8312  -44.6507 N.am      10 UNK        -0.5000 
     25 C           2.1953  -23.0772  -44.0943 C.2       9 UNK         0.5000 
     26 O           1.7137  -24.2059  -43.9969 O.2       9 UNK        -0.5000 
     27 CA          1.3787  -21.8672  -43.5923 C.3       9 UNK         0.1400 
     28 CB          1.3505  -21.8337  -42.0565 C.3       9 UNK        -0.1800 
     29 N           1.8172  -20.5542  -44.0799 N.am      9 UNK        -0.5000 
     30 C           1.9048  -20.1537  -45.3552 C.2       8 UNK         0.5000 
     31 O           1.7214  -20.9014  -46.3165 O.2       8 UNK        -0.5000 
     32 CA          2.2500  -18.6663  -45.5781 C.3       8 UNK         0.1400 
     33 CB          2.4537  -18.3299  -47.0653 C.3       8 UNK        -0.1800 
     34 N           1.2201  -17.7825  -45.0271 N.am      8 UNK        -0.5000 
     35 C           1.0340  -17.5091  -43.7296 C.2       7 UNK         0.5000 
     36 O           1.7873  -17.9307  -42.8475 O.2       7 UNK        -0.5000 
     37 CA         -0.1768  -16.6103  -43.3828 C.3       7 UNK         0.1400 
     38 CB         -1.4791  -17.0736  -44.0701 C.3       7 UNK        -0.1800 
     39 N          -0.3996  -16.4409  -41.9434 N.am      7 UNK        -0.5000 
     40 C          -0.6743  -17.3827  -41.0283 C.2       6 UNK         0.5000 
     41 O          -0.8458  -18.5729  -41.2984 O.2       6 UNK        -0.5000 
     42 CA         -0.8244  -16.9185  -39.5611 C.3       6 UNK         0.1400 
     43 CB         -0.1036  -17.8646  -38.5779 C.3       6 UNK        -0.1800 
     44 N          -0.4514  -15.5180  -39.3112 N.am      6 UNK        -0.5000 
     45 C           0.7588  -14.9467  -39.3916 C.2       5 UNK         0.5000 
     46 O           1.7807  -15.5502  -39.7196 O.2       5 UNK        -0.5000 
     47 CA          0.8153  -13.4333  -39.0843 C.3       5 UNK         0.1400 
     48 CB          2.2332  -12.8504  -39.2269 C.3       5 UNK        -0.1800 
     49 N          -0.0928  -12.6568  -39.9329 N.am      5 UNK        -0.5000 
     50 C          -1.4213  -12.5586  -39.7858 C.2       4 UNK         0.5000 
     51 O          -2.0494  -13.1441  -38.9024 O.2       4 UNK        -0.5000 
     52 CA         -2.1798  -11.6740  -40.7943 C.3       4 UNK         0.1400 
     53 CB         -2.4858  -10.3012  -40.1760 C.3       4 UNK        -0.1800 
     54 N          -1.4674  -11.4765  -42.0600 N.am      4 UNK        -0.5000 
     55 C          -1.3168  -12.4163  -43.0016 C.2       3 UNK         0.5000 
     56 O          -1.7182  -13.5757  -42.8840 O.2       3 UNK        -0.5000 
     57 CA         -0.5589  -11.9909  -44.2716 C.3       3 UNK         0.1400 
     58 CB          0.9165  -12.4121  -44.1870 C.3       3 UNK        -0.1800 
     59 N          -1.1666  -12.5502  -45.4814 N.am      3 UNK        -0.5000 
     60 C          -2.3340  -12.1266  -45.9932 C.2       2 UNK         0.5000 
     61 O          -3.0014  -11.2260  -45.4811 O.2       2 UNK        -0.5000 
     62 CA         -2.8426  -12.7677  -47.3023 C.3       2 UNK         0.1400 
     63 CB         -3.0046  -11.7028  -48.4009 C.3       2 UNK        -0.1800 
     64 N          -1.9521  -13.8115  -47.8086 N.am      2 UNK        -0.5000 
     65 C          -2.1458  -15.1285  -47.6640 C.2       1 UNK         0.5000 
     66 O          -3.1333  -15.6170  -47.1167 O.2       1 UNK        -0.5000 
     67 C           0.3184  -23.7245  -47.8007 C.2       11 UNK         0.5000 
     68 O          -0.4194  -22.8083  -48.1595 O.2       11 UNK        -0.5000 
     69 N          -0.0385  -24.6414  -46.8895 N.am      12 UNK        -0.5000 
     70 CA         -1.2838  -24.6266  -46.1107 C.3       12 UNK         0.1400 
     71 CB         -1.3257  -25.8616  -45.1988 C.3       12 UNK        -0.1800 
     72 C          -2.5749  -24.5338  -46.9491 C.2       12 UNK         0.5000 
     73 O          -3.5020  -23.8239  -46.5580 O.2       12 UNK        -0.5000 
     74 N          -2.5976  -25.2158  -48.1032 N.am      13 UNK        -0.5000 
     75 CA         -3.6979  -25.1616  -49.0679 C.3       13 UNK         0.1400 
     76 CB         -3.4944  -26.2408  -50.1422 C.3       13 UNK        -0.1800 
     77 C          -3.8412  -23.7741  -49.7177 C.2       13 UNK         0.5000 
     78 O          -4.9570  -23.2724  -49.8439 O.2       13 UNK        -0.5000 
     79 N          -2.7054  -23.1653  -50.0836 N.am      14 UNK        -0.5000 
     80 CA         -2.6314  -21.8181  -50.6456 C.3       14 UNK         0.1400 
     81 CB         -1.2386  -21.5883  -51.2485 C.3       14 UNK        -0.1800 
     82 C          -2.9765  -20.7480  -49.5996 C.2       14 UNK         0.5000 
     83 O          -3.6787  -19.7947  -49.9257 O.2       14 UNK        -0.5000 
     84 N          -2.5235  -20.9371  -48.3544 N.am      15 UNK        -0.5000 
     85 CA         -2.8442  -20.0740  -47.2180 C.3       15 UNK         0.1400 
     86 CB         -2.0286  -20.5172  -45.9958 C.3       15 UNK        -0.1800 
     87 C          -4.3518  -20.0485  -46.9005 C.2       15 UNK         0.5000 
     88 O          -4.8896  -18.9837  -46.5983 O.2       15 UNK        -0.5000 
     89 N          -5.0114  -21.2100  -47.0125 N.am      16 UNK        -0.5000 
     90 CA         -6.4593  -21.3542  -46.8687 C.3       16 UNK         0.1400 
     91 CB         -6.8067  -22.8397  -46.6858 C.3       16 UNK        -0.1800 
     92 C          -7.2383  -20.7516  -48.0544 C.2       16 UNK         0.5000 
     93 O          -8.2439  -20.0746  -47.8377 O.2       16 UNK        -0.5000 
     94 N          -6.7684  -21.0108  -49.2823 N.am      17 UNK        -0.5000 
     95 CA         -7.4104  -20.5815  -50.5283 C.3       17 UNK         0.1400 
     96 CB         -6.9148  -21.4819  -51.6684 C.3       17 UNK        -0.1800 
     97 C          -7.1885  -19.0980  -50.8872 C.2       17 UNK         0.5000 
     98 O          -7.9124  -18.5825  -51.7399 O.2       17 UNK        -0.5000 
     99 N          -6.2014  -18.4535  -50.2486 N.am      18 UNK        -0.5000 
    100 CA        -5.6645  -17.1202  -50.5386 C.3       18 UNK         0.1400 
    101 CB        -6.7358  -16.0174  -50.4029 C.3       18 UNK        -0.1800 
    102 C         -4.9241  -17.1117  -51.8923 C.2       18 UNK         0.5000 
    103 O         -5.3086  -16.3929  -52.8167 O.2       18 UNK        -0.5000 
    104 N         -3.8738  -17.9408  -51.9567 N.am      19 UNK        -0.5000 
    105 CA        -3.0377  -18.2812  -53.1098 C.3       19 UNK         0.1400 
    106 CB        -2.4158  -17.0282  -53.7644 C.3       19 UNK        -0.1800 
    107 C         -3.7748  -19.2104  -54.0978 C.2       19 UNK         0.5000 
    108 O         -4.7640  -19.8439  -53.7240 O.2       19 UNK        -0.5000 
    109 N         -3.2483  -19.3210  -55.3259 N.am      20 UNK        -0.5000 
    110 CA        -3.7401  -20.0892  -56.4812 C.3       20 UNK         0.1400 
    111 CB        -5.1467  -19.6255  -56.9050 C.3       20 UNK        -0.1800 
    112 C         -3.6872  -21.6243  -56.3336 C.2       20 UNK         0.5000 
    113 O         -3.2598  -22.3020  -57.2699 O.2       20 UNK        -0.5000 
    114 N         -4.0865  -22.1558  -55.1703 N.am      21 UNK        -0.5000 
    115 CA        -4.1360  -23.5912  -54.8577 C.3       21 UNK         0.1400 
    116 CB        -4.8928  -23.8006  -53.5390 C.3       21 UNK        -0.1800 
    117 C         -2.7586  -24.2865  -54.8204 C.2       21 UNK         0.5000 
    118 O         -2.6994  -25.5160  -54.8582 O.2       21 UNK        -0.5000 
    119 N         -1.6818  -23.4934  -54.7830 N.am      22 UNK        -0.5000 
    120 CA        -0.2989  -23.9205  -55.0357 C.3       22 UNK         0.1400 
    121 C         -0.0177  -24.3954  -56.4953 C.2       22 UNK         0.5000 
    122 N         -0.8637  -24.0947  -57.4754 N.am      22 UNK        -0.7600 
    123 O          0.9859  -25.0597  -56.7387 O.2       22 UNK        -0.5000 
    124 C124        0.7115  -22.8303  -54.5956 C.3       23 UNK        -0.0398 
    125 S125        0.4005  -21.2001  -55.3659 S.3       23 UNK        -0.2404 
    126 C126        1.9813  -20.3626  -55.0419 C.3       23 UNK        -0.0205 
    127 H127        2.5658  -14.3935  -48.7930 H         1 UNK         0.0600 
    128 H128        3.1425  -14.7666  -47.1664 H         1 UNK         0.0600 
    129 H129        2.3274  -13.2324  -47.4819 H         1 UNK         0.0600 
    130 H130        0.5926  -15.3247  -49.3241 H         1 UNK         0.3000 
    131 H131       -0.9174  -16.8472  -47.4565 H         1 UNK         0.0600 
    132 H132       -2.5345  -17.1055  -49.4214 H         1 UNK         0.0800 
    133 H133       -1.4995  -16.0598  -50.3586 H         1 UNK         0.0800 
    134 H134        0.2970  -16.9660  -51.7855 H         1 UNK         0.0800 
    135 H135        1.4412  -16.9235  -50.4579 H         1 UNK         0.0800 
    136 H136        0.7448  -18.4290  -53.6009 H         1 UNK         0.1150 
    137 H137        3.5851  -21.6169  -53.2095 H         1 UNK         0.1150 
    138 H138        2.5390  -19.2424  -49.7980 H         1 UNK         0.1150 
    139 H139        5.1087  -21.3228  -50.9809 H         1 UNK         0.0800 
    140 H140        4.2045  -20.9112  -49.5449 H         1 UNK         0.0800 
    141 H141        1.2011  -23.1158  -50.3533 H         1 UNK         0.0800 
    142 H142        1.7940  -21.8559  -49.2967 H         1 UNK         0.0800 
    143 H143        1.8947  -24.8576  -48.6903 H         1 UNK         0.0600 
    144 H144        2.4750  -22.5765  -46.8480 H         1 UNK         0.3000 
    145 H145        4.3663  -24.6674  -44.7301 H         1 UNK         0.0600 
    146 H146        6.0871  -22.8738  -44.8338 H         1 UNK         0.0600 
    147 H147        6.1892  -23.8954  -46.2591 H         1 UNK         0.0600 
    148 H148        5.4389  -22.3083  -46.3748 H         1 UNK         0.0600 
    149 H149        3.7065  -21.8736  -44.6791 H         1 UNK         0.3000 
    150 H150        0.3564  -22.0125  -43.9478 H         1 UNK         0.0600 
    151 H151        2.3437  -21.6563  -41.6417 H         1 UNK         0.0600 
    152 H152        0.9862  -22.7774  -41.6482 H         1 UNK         0.0600 
    153 H153        0.6891  -21.0470  -41.6915 H         1 UNK         0.0600 
    154 H154        1.9543  -19.8395  -43.3711 H         1 UNK         0.3000 
    155 H155        3.1933  -18.4717  -45.0636 H         1 UNK         0.0600 
    156 H156        1.5327  -18.4541  -47.6358 H         1 UNK         0.0600 
    157 H157        3.2098  -18.9774  -47.5109 H         1 UNK         0.0600 
    158 H158        2.7968  -17.3046  -47.1949 H         1 UNK         0.0600 
    159 H159        0.6005  -17.3497  -45.6961 H         1 UNK         0.3000 
    160 H160        0.0619  -15.6167  -43.7584 H         1 UNK         0.0600 
    161 H161       -1.7701  -18.0735  -43.7510 H         1 UNK         0.0600 
    162 H162       -1.3833  -17.0887  -45.1545 H         1 UNK         0.0600 
    163 H163       -2.3021  -16.3973  -43.8379 H         1 UNK         0.0600 
    164 H164       -0.2924  -15.4959  -41.6056 H         1 UNK         0.3000 
    165 H165       -1.8917  -16.9784  -39.3440 H         1 UNK         0.0600 
    166 H166       -0.2328  -17.5365  -37.5466 H         1 UNK         0.0600 
    167 H167       -0.5015  -18.8777  -38.6462 H         1 UNK         0.0600 
    168 H168        0.9659  -17.9229  -38.7819 H         1 UNK         0.0600 
    169 H169       -1.2211  -14.9007  -39.0661 H         1 UNK         0.3000 
    170 H170        0.5111  -13.3083  -38.0429 H         1 UNK         0.0600 
    171 H171        2.9382  -13.3701  -38.5767 H         1 UNK         0.0600 
    172 H172        2.6032  -12.9356  -40.2495 H         1 UNK         0.0600 
    173 H173        2.2560  -11.7966  -38.9486 H         1 UNK         0.0600 
    174 H174        0.3316  -12.1577  -40.7002 H         1 UNK         0.3000 
    175 H175       -3.1294  -12.1685  -41.0106 H         1 UNK         0.0600 
    176 H176       -1.5730   -9.7481  -39.9507 H         1 UNK         0.0600 
    177 H177       -3.0917   -9.6922  -40.8472 H         1 UNK         0.0600 
    178 H178       -3.0435  -10.4071  -39.2444 H         1 UNK         0.0600 
    179 H179       -1.1053  -10.5488  -42.2293 H         1 UNK         0.3000 
    180 H180       -0.5913  -10.9022  -44.3533 H         1 UNK         0.0600 
    181 H181        1.4145  -11.9200  -43.3509 H         1 UNK         0.0600 
    182 H182        1.4586  -12.1408  -45.0930 H         1 UNK         0.0600 
    183 H183        1.0252  -13.4863  -44.0414 H         1 UNK         0.0600 
    184 H184       -0.6987  -13.3483  -45.8932 H         1 UNK         0.3000 
    185 H185       -3.8298  -13.1837  -47.0911 H         1 UNK         0.0600 
    186 H186       -3.3970  -12.1411  -49.3188 H         1 UNK         0.0600 
    187 H187       -3.7018  -10.9221  -48.0940 H         1 UNK         0.0600 
    188 H188       -2.0552  -11.2210  -48.6378 H         1 UNK         0.0600 
    189 H189       -1.1077  -13.4990  -48.2657 H         1 UNK         0.3000 
    190 H190        0.6403  -25.3411  -46.6252 H         1 UNK         0.3000 
    191 H191       -1.2476  -23.7409  -45.4739 H         1 UNK         0.0600 
    192 H192       -0.4768  -25.8767  -44.5150 H         1 UNK         0.0600 
    193 H193       -2.2306  -25.8676  -44.5895 H         1 UNK         0.0600 
    194 H194       -1.3102  -26.7878  -45.7743 H         1 UNK         0.0600 
    195 H195       -1.7951  -25.7764  -48.3486 H         1 UNK         0.3000 
    196 H196       -4.6275  -25.3782  -48.5371 H         1 UNK         0.0600 
    197 H197       -4.3098  -26.2276  -50.8668 H         1 UNK         0.0600 
    198 H198       -3.4697  -27.2370  -49.7004 H         1 UNK         0.0600 
    199 H199       -2.5646  -26.0941  -50.6935 H         1 UNK         0.0600 
    200 H200       -1.8263  -23.6035  -49.8513 H         1 UNK         0.3000 
    201 H201       -3.3622  -21.7387  -51.4512 H         1 UNK         0.0600 
    202 H202       -1.2120  -20.6815  -51.8495 H         1 UNK         0.0600 
    203 H203       -0.9503  -22.4144  -51.8965 H         1 UNK         0.0600 
    204 H204       -0.4774  -21.4769  -50.4773 H         1 UNK         0.0600 
    205 H205       -1.8824  -21.7095  -48.1857 H         1 UNK         0.3000 
    206 H206       -2.5428  -19.0571  -47.4776 H         1 UNK         0.0600 
    207 H207       -0.9601  -20.4624  -46.1995 H         1 UNK         0.0600 
    208 H208       -2.2335  -19.8804  -45.1363 H         1 UNK         0.0600 
    209 H209       -2.2621  -21.5407  -45.7054 H         1 UNK         0.0600 
    210 H210       -4.4845  -22.0531  -47.2118 H         1 UNK         0.3000 
    211 H211       -6.7664  -20.8241  -45.9647 H         1 UNK         0.0600 
    212 H212       -6.4974  -23.4362  -47.5446 H         1 UNK         0.0600 
    213 H213       -7.8812  -22.9774  -46.5588 H         1 UNK         0.0600 
    214 H214       -6.3186  -23.2515  -45.8022 H         1 UNK         0.0600 
    215 H215       -5.9658  -21.6254  -49.3809 H         1 UNK         0.3000 
    216 H216       -8.4877  -20.7303  -50.4291 H         1 UNK         0.0600 
    217 H217       -7.3692  -21.2050  -52.6205 H         1 UNK         0.0600 
    218 H218       -7.1601  -22.5274  -51.4815 H         1 UNK         0.0600 
    219 H219       -5.8340  -21.4070  -51.7879 H         1 UNK         0.0600 
    220 H220       -5.6277  -19.0148  -49.6302 H         1 UNK         0.3000 
    221 H221       -4.9147  -16.9276  -49.7702 H         1 UNK         0.0600 
    222 H222       -7.5008  -16.0844  -51.1763 H         1 UNK         0.0600 
    223 H223       -7.2320  -16.0682  -49.4337 H         1 UNK         0.0600 
    224 H224       -6.2815  -15.0294  -50.4845 H         1 UNK         0.0600 
    225 H225       -3.7360  -18.5539  -51.1534 H         1 UNK         0.3000 
    226 H226       -2.2144  -18.8656  -52.7025 H         1 UNK         0.0600 
    227 H227       -1.5986  -17.2955  -54.4347 H         1 UNK         0.0600 
    228 H228       -3.1474  -16.4664  -54.3459 H         1 UNK         0.0600 
    229 H229       -2.0009  -16.3575  -53.0119 H         1 UNK         0.0600 
    230 H230       -2.4064  -18.7939  -55.5107 H         1 UNK         0.3000 
    231 H231       -3.0616  -19.8402  -57.2987 H         1 UNK         0.0600 
    232 H232       -5.8976  -19.8504  -56.1470 H         1 UNK         0.0600 
    233 H233       -5.4578  -20.1201  -57.8260 H         1 UNK         0.0600 
    234 H234       -5.1684  -18.5515  -57.0898 H         1 UNK         0.0600 
    235 H235       -4.4325  -21.5104  -54.4637 H         1 UNK         0.3000 
    236 H236       -4.7085  -24.0767  -55.6505 H         1 UNK         0.0600 
    237 H237       -5.9075  -23.4088  -53.6030 H         1 UNK         0.0600 
    238 H238       -4.9710  -24.8601  -53.2923 H         1 UNK         0.0600 
    239 H239       -4.3921  -23.3093  -52.7077 H         1 UNK         0.0600 
    240 H240       -1.8301  -22.4956  -54.7694 H         1 UNK         0.3000 
    241 H241       -0.1203  -24.7936  -54.4053 H         1 UNK         0.0600 
    242 H242       -1.6846  -23.5226  -57.3061 H         1 UNK         0.3800 
    243 H243       -0.6675  -24.4141  -58.4105 H         1 UNK         0.3800 
    244 H244        0.6716  -22.7063  -53.5138 H         1 UNK         0.0800 
    245 H245        1.7338  -23.1453  -54.8129 H         1 UNK         0.0800 
    246 H246        2.8061  -20.9744  -55.4107 H         1 UNK         0.0800 
    247 H247        2.0121  -19.4331  -55.6120 H         1 UNK         0.0800 
@<TRIPOS>BOND
     1    1    2 1    
     2    1  127 1    
     3    1  128 1    
     4    1  129 1    
     5    2    3 2    
     6    2    4 am   BACKBONE|DICT|INTERRES
     7    4    5 1    
     8    4  130 1    
     9    5    6 1    
    10    5   65 1    
    11    5  131 1    
    12    6    7 1    
    13    6  132 1    
    14    6  133 1    
    15    7    8 1    
    16    8    9 1    
    17    8  134 1    
    18    8  135 1    
    19    9   10 ar   
    20    9   14 ar   
    21   10   11 ar   
    22   10  136 1    
    23   11   12 ar   
    24   11  126 1    
    25   12   13 ar   
    26   12  137 1    
    27   13   14 ar   
    28   13   15 1    
    29   14  138 1    
    30   15   16 1    
    31   15  139 1    
    32   15  140 1    
    33   16   17 1    
    34   17   18 1    
    35   17  141 1    
    36   17  142 1    
    37   18   19 1    
    38   18   67 1    
    39   18  143 1    
    40   19   20 am   BACKBONE|DICT|INTERRES
    41   19  144 1    
    42   20   21 2    
    43   20   22 1    
    44   22   23 1    
    45   22   24 1    
    46   22  145 1    
    47   23  146 1    
    48   23  147 1    
    49   23  148 1    
    50   24   25 am   BACKBONE|DICT|INTERRES
    51   24  149 1    
    52   25   26 2    
    53   25   27 1    
    54   27   28 1    
    55   27   29 1    
    56   27  150 1    
    57   28  151 1    
    58   28  152 1    
    59   28  153 1    
    60   29   30 am   BACKBONE|DICT|INTERRES
    61   29  154 1    
    62   30   31 2    
    63   30   32 1    
    64   32   33 1    
    65   32   34 1    
    66   32  155 1    
    67   33  156 1    
    68   33  157 1    
    69   33  158 1    
    70   34   35 am   BACKBONE|DICT|INTERRES
    71   34  159 1    
    72   35   36 2    
    73   35   37 1    
    74   37   38 1    
    75   37   39 1    
    76   37  160 1    
    77   38  161 1    
    78   38  162 1    
    79   38  163 1    
    80   39   40 am   BACKBONE|DICT|INTERRES
    81   39  164 1    
    82   40   41 2    
    83   40   42 1    
    84   42   43 1    
    85   42   44 1    
    86   42  165 1    
    87   43  166 1    
    88   43  167 1    
    89   43  168 1    
    90   44   45 am   BACKBONE|DICT|INTERRES
    91   44  169 1    
    92   45   46 2    
    93   45   47 1    
    94   47   48 1    
    95   47   49 1    
    96   47  170 1    
    97   48  171 1    
    98   48  172 1    
    99   48  173 1    
   100   49   50 am   BACKBONE|DICT|INTERRES
   101   49  174 1    
   102   50   51 2    
   103   50   52 1    
   104   52   53 1    
   105   52   54 1    
   106   52  175 1    
   107   53  176 1    
   108   53  177 1    
   109   53  178 1    
   110   54   55 am   BACKBONE|DICT|INTERRES
   111   54  179 1    
   112   55   56 2    
   113   55   57 1    
   114   57   58 1    
   115   57   59 1    
   116   57  180 1    
   117   58  181 1    
   118   58  182 1    
   119   58  183 1    
   120   59   60 am   BACKBONE|DICT|INTERRES
   121   59  184 1    
   122   60   61 2    
   123   60   62 1    
   124   62   63 1    
   125   62   64 1    
   126   62  185 1    
   127   63  186 1    
   128   63  187 1    
   129   63  188 1    
   130   64   65 am   BACKBONE|DICT|INTERRES
   131   64  189 1    
   132   65   66 2    
   133   67   68 2    
   134   67   69 am   BACKBONE|DICT|INTERRES
   135   69   70 1    
   136   69  190 1    
   137   70   71 1    
   138   70   72 1    
   139   70  191 1    
   140   71  192 1    
   141   71  193 1    
   142   71  194 1    
   143   72   73 2    
   144   72   74 am   BACKBONE|DICT|INTERRES
   145   74   75 1    
   146   74  195 1    
   147   75   76 1    
   148   75   77 1    
   149   75  196 1    
   150   76  197 1    
   151   76  198 1    
   152   76  199 1    
   153   77   78 2    
   154   77   79 am   BACKBONE|DICT|INTERRES
   155   79   80 1    
   156   79  200 1    
   157   80   81 1    
   158   80   82 1    
   159   80  201 1    
   160   81  202 1    
   161   81  203 1    
   162   81  204 1    
   163   82   83 2    
   164   82   84 am   BACKBONE|DICT|INTERRES
   165   84   85 1    
   166   84  205 1    
   167   85   86 1    
   168   85   87 1    
   169   85  206 1    
   170   86  207 1    
   171   86  208 1    
   172   86  209 1    
   173   87   88 2    
   174   87   89 am   BACKBONE|DICT|INTERRES
   175   89   90 1    
   176   89  210 1    
   177   90   91 1    
   178   90   92 1    
   179   90  211 1    
   180   91  212 1    
   181   91  213 1    
   182   91  214 1    
   183   92   93 2    
   184   92   94 am   BACKBONE|DICT|INTERRES
   185   94   95 1    
   186   94  215 1    
   187   95   96 1    
   188   95   97 1    
   189   95  216 1    
   190   96  217 1    
   191   96  218 1    
   192   96  219 1    
   193   97   98 2    
   194   97   99 am   BACKBONE|DICT|INTERRES
   195   99  100 1    
   196   99  220 1    
   197  100  101 1    
   198  100  102 1    
   199  100  221 1    
   200  101  222 1    
   201  101  223 1    
   202  101  224 1    
   203  102  103 2    
   204  102  104 am   BACKBONE|DICT|INTERRES
   205  104  105 1    
   206  104  225 1    
   207  105  106 1    
   208  105  107 1    
   209  105  226 1    
   210  106  227 1    
   211  106  228 1    
   212  106  229 1    
   213  107  108 2    
   214  107  109 am   BACKBONE|DICT|INTERRES
   215  109  110 1    
   216  109  230 1    
   217  110  111 1    
   218  110  112 1    
   219  110  231 1    
   220  111  232 1    
   221  111  233 1    
   222  111  234 1    
   223  112  113 2    
   224  112  114 am   BACKBONE|DICT|INTERRES
   225  114  115 1    
   226  114  235 1    
   227  115  116 1    
   228  115  117 1    
   229  115  236 1    
   230  116  237 1    
   231  116  238 1    
   232  116  239 1    
   233  117  118 2    
   234  117  119 am   BACKBONE|DICT|INTERRES
   235  119  120 1    
   236  119  240 1    
   237  120  121 1    
   238  120  124 1    
   239  120  241 1    
   240  121  122 am   BACKBONE|DICT|INTERRES
   241  121  123 2    
   242  122  242 1    
   243  122  243 1    
   244  124  125 1    
   245  124  244 1    
   246  124  245 1    
   247  125  126 1    
   248  126  246 1    
   249  126  247 1    
@<TRIPOS>SUBSTRUCTURE
     1 UNK         1 GROUP             0       ****    0 ROOT    
