@<TRIPOS>MOLECULE
3R540
247   249    1
SMALL
USER_CHARGES


@<TRIPOS>ATOM
      1 CA         -1.3299  -10.6705  -46.7347 C.3       0 UNK        -0.1800 
      2 C          -0.2485  -10.5849  -47.8023 C.2       0 UNK         0.5000 
      3 O           0.3732   -9.5356  -47.9681 O.2       0 UNK        -0.5000 
      4 N          -0.0215  -11.6900  -48.5224 N.am      1 UNK        -0.5000 
      5 CA          0.9876  -11.8182  -49.5844 C.3       1 UNK         0.1400 
      6 C6          0.7216  -13.0661  -50.4628 C.3       23 UNK        -0.0398 
      7 S7         -0.8561  -12.9902  -51.3853 S.3       23 UNK        -0.2404 
      8 C8         -1.9814  -14.0678  -50.4191 C.3       23 UNK        -0.0205 
      9 C9         -1.5523  -15.5274  -50.2411 C.ar      23 UNK        -0.0193 
     10 C10        -0.5813  -16.1334  -51.0482 C.ar      23 UNK        -0.1150 
     11 C11        -0.1765  -17.4509  -50.8190 C.ar      23 UNK        -0.0193 
     12 C12        -0.7519  -18.1708  -49.7679 C.ar      23 UNK        -0.1150 
     13 C13        -1.7411  -17.5925  -48.9669 C.ar      23 UNK        -0.0193 
     14 C14        -2.1455  -16.2784  -49.2193 C.ar      23 UNK        -0.1150 
     15 C15        -2.3362  -18.3774  -47.8062 C.3       23 UNK        -0.0205 
     16 S16        -3.4174  -19.7148  -48.3976 S.3       23 UNK        -0.2404 
     17 C17        -3.5228  -20.8138  -46.9442 C.3       23 UNK        -0.0398 
     18 CA         -2.3756  -21.8546  -46.9449 C.3       11 UNK         0.1400 
     19 N          -1.1237  -21.3041  -46.4268 N.am      11 UNK        -0.5000 
     20 C           0.0911  -21.8071  -46.6795 C.2       10 UNK         0.5000 
     21 O           0.2922  -22.7912  -47.3896 O.2       10 UNK        -0.5000 
     22 CA          1.2735  -21.1067  -45.9856 C.3       10 UNK         0.1400 
     23 CB          1.7235  -19.8807  -46.7960 C.3       10 UNK        -0.1800 
     24 N           0.9547  -20.6960  -44.6164 N.am      10 UNK        -0.5000 
     25 C           0.6742  -21.5460  -43.6178 C.2       9 UNK         0.5000 
     26 O           0.6874  -22.7710  -43.7343 O.2       9 UNK        -0.5000 
     27 CA          0.2512  -20.9182  -42.2800 C.3       9 UNK         0.1400 
     28 CB          1.4834  -20.5116  -41.4580 C.3       9 UNK        -0.1800 
     29 N          -0.6109  -19.7519  -42.4569 N.am      9 UNK        -0.5000 
     30 C          -1.8305  -19.7489  -43.0096 C.2       8 UNK         0.5000 
     31 O          -2.3699  -20.7608  -43.4563 O.2       8 UNK        -0.5000 
     32 CA         -2.5468  -18.3896  -43.1447 C.3       8 UNK         0.1400 
     33 CB         -4.0353  -18.4727  -42.7536 C.3       8 UNK        -0.1800 
     34 N          -1.8713  -17.2817  -42.4580 N.am      8 UNK        -0.5000 
     35 C          -1.7019  -17.0898  -41.1402 C.2       7 UNK         0.5000 
     36 O          -2.1539  -17.8382  -40.2739 O.2       7 UNK        -0.5000 
     37 CA         -0.8409  -15.8819  -40.7121 C.3       7 UNK         0.1400 
     38 CB          0.5066  -16.3686  -40.1547 C.3       7 UNK        -0.1800 
     39 N          -0.5800  -14.9364  -41.7999 N.am      7 UNK        -0.5000 
     40 C          -1.4804  -14.0839  -42.3087 C.2       6 UNK         0.5000 
     41 O          -2.6155  -13.9347  -41.8559 O.2       6 UNK        -0.5000 
     42 CA         -1.0520  -13.3066  -43.5669 C.3       6 UNK         0.1400 
     43 CB         -0.2542  -12.0517  -43.1812 C.3       6 UNK        -0.1800 
     44 N          -0.2565  -14.1206  -44.4891 N.am      6 UNK        -0.5000 
     45 C          -0.6922  -15.2108  -45.1361 C.2       5 UNK         0.5000 
     46 O          -1.8400  -15.6436  -45.0525 O.2       5 UNK        -0.5000 
     47 CA          0.3410  -15.9780  -45.9763 C.3       5 UNK         0.1400 
     48 CB          0.5736  -15.3024  -47.3325 C.3       5 UNK        -0.1800 
     49 N           1.6147  -16.1113  -45.2753 N.am      5 UNK        -0.5000 
     50 C           1.8481  -16.9834  -44.2880 C.2       4 UNK         0.5000 
     51 O           1.0374  -17.8358  -43.9268 O.2       4 UNK        -0.5000 
     52 CA          3.2132  -16.8886  -43.5825 C.3       4 UNK         0.1400 
     53 CB          4.1975  -17.8966  -44.1925 C.3       4 UNK        -0.1800 
     54 N           3.7968  -15.5444  -43.6342 N.am      4 UNK        -0.5000 
     55 C           3.3225  -14.4913  -42.9529 C.2       3 UNK         0.5000 
     56 O           2.3401  -14.5450  -42.2129 O.2       3 UNK        -0.5000 
     57 CA          4.0283  -13.1410  -43.1897 C.3       3 UNK         0.1400 
     58 CB          5.3405  -13.0654  -42.3947 C.3       3 UNK        -0.1800 
     59 N           4.2944  -12.8610  -44.6065 N.am      3 UNK        -0.5000 
     60 C           3.3423  -12.7662  -45.5431 C.2       2 UNK         0.5000 
     61 O           2.1432  -12.9340  -45.3031 O.2       2 UNK        -0.5000 
     62 CA          3.7860  -12.4815  -46.9875 C.3       2 UNK         0.1400 
     63 CB          4.5629  -13.6839  -47.5611 C.3       2 UNK        -0.1800 
     64 N           2.5690  -12.2473  -47.7566 N.am      2 UNK        -0.5000 
     65 C           2.4326  -11.8640  -49.0293 C.2       1 UNK         0.5000 
     66 O           3.3781  -11.5697  -49.7615 O.2       1 UNK        -0.5000 
     67 C          -2.7534  -23.1521  -46.2096 C.2       11 UNK         0.5000 
     68 O          -3.1769  -24.1020  -46.8663 O.2       11 UNK        -0.5000 
     69 N          -2.5461  -23.2034  -44.8866 N.am      12 UNK        -0.5000 
     70 CA         -2.7363  -24.4000  -44.0652 C.3       12 UNK         0.1400 
     71 CB         -2.5520  -24.0470  -42.5819 C.3       12 UNK        -0.1800 
     72 C          -1.8026  -25.5523  -44.4793 C.2       12 UNK         0.5000 
     73 O          -2.2697  -26.6798  -44.6429 O.2       12 UNK        -0.5000 
     74 N          -0.5176  -25.2386  -44.7024 N.am      13 UNK        -0.5000 
     75 CA          0.4999  -26.1744  -45.1901 C.3       13 UNK         0.1400 
     76 CB          1.8764  -25.4938  -45.1522 C.3       13 UNK        -0.1800 
     77 C           0.2044  -26.7137  -46.6033 C.2       13 UNK         0.5000 
     78 O           0.4913  -27.8780  -46.8830 O.2       13 UNK        -0.5000 
     79 N          -0.3909  -25.8687  -47.4545 N.am      14 UNK        -0.5000 
     80 CA         -0.8304  -26.2081  -48.8081 C.3       14 UNK         0.1400 
     81 CB         -0.8594  -24.9220  -49.6481 C.3       14 UNK        -0.1800 
     82 C          -2.2038  -26.9089  -48.8560 C.2       14 UNK         0.5000 
     83 O          -2.6646  -27.2276  -49.9516 O.2       14 UNK        -0.5000 
     84 N          -2.8590  -27.1001  -47.6999 N.am      15 UNK        -0.5000 
     85 CA         -4.2078  -27.6575  -47.5350 C.3       15 UNK         0.1400 
     86 CB         -4.2246  -29.1593  -47.8880 C.3       15 UNK        -0.1800 
     87 C          -5.2821  -26.8427  -48.2903 C.2       15 UNK         0.5000 
     88 O          -6.1730  -27.4136  -48.9210 O.2       15 UNK        -0.5000 
     89 N          -5.1431  -25.5112  -48.2247 N.am      16 UNK        -0.5000 
     90 CA         -5.9570  -24.4655  -48.8504 C.3       16 UNK         0.1400 
     91 CB         -7.4352  -24.5645  -48.4224 C.3       16 UNK        -0.1800 
     92 C          -5.7987  -24.3449  -50.3801 C.2       16 UNK         0.5000 
     93 O          -6.4683  -23.5016  -50.9763 O.2       16 UNK        -0.5000 
     94 N          -4.9022  -25.1273  -51.0019 N.am      17 UNK        -0.5000 
     95 CA         -4.6420  -25.0767  -52.4456 C.3       17 UNK         0.1400 
     96 CB         -3.7782  -26.2757  -52.8614 C.3       17 UNK        -0.1800 
     97 C          -3.9816  -23.7585  -52.8913 C.2       17 UNK         0.5000 
     98 O          -4.2628  -23.2767  -53.9884 O.2       17 UNK        -0.5000 
     99 N          -3.1476  -23.1781  -52.0161 N.am      18 UNK        -0.5000 
    100 CA        -2.4575  -21.9057  -52.2389 C.3       18 UNK         0.1400 
    101 CB        -1.4070  -21.6957  -51.1411 C.3       18 UNK        -0.1800 
    102 C         -3.4101  -20.6982  -52.3264 C.2       18 UNK         0.5000 
    103 O         -3.0983  -19.7362  -53.0239 O.2       18 UNK        -0.5000 
    104 N         -4.5824  -20.7854  -51.6802 N.am      19 UNK        -0.5000 
    105 CA        -5.6289  -19.7605  -51.7341 C.3       19 UNK         0.1400 
    106 CB        -6.6823  -20.0525  -50.6544 C.3       19 UNK        -0.1800 
    107 C         -6.2911  -19.6427  -53.1235 C.2       19 UNK         0.5000 
    108 O         -6.8697  -18.6003  -53.4309 O.2       19 UNK        -0.5000 
    109 N         -6.1791  -20.7002  -53.9386 N.am      20 UNK        -0.5000 
    110 CA        -6.6300  -20.7571  -55.3281 C.3       20 UNK         0.1400 
    111 CB        -7.3077  -22.1190  -55.5589 C.3       20 UNK        -0.1800 
    112 C         -5.4712  -20.5353  -56.3247 C.2       20 UNK         0.5000 
    113 O         -5.6795  -20.6963  -57.5287 O.2       20 UNK        -0.5000 
    114 N         -4.2776  -20.1869  -55.8274 N.am      21 UNK        -0.5000 
    115 CA        -3.0598  -19.9740  -56.6034 C.3       21 UNK         0.1400 
    116 CB        -2.1858  -21.2425  -56.5206 C.3       21 UNK        -0.1800 
    117 C         -2.3545  -18.6949  -56.1116 C.2       21 UNK         0.5000 
    118 O         -3.0320  -17.7438  -55.7149 O.2       21 UNK        -0.5000 
    119 N         -1.0154  -18.6820  -56.1720 N.am      22 UNK        -0.5000 
    120 CA        -0.1267  -17.5921  -55.7213 C.3       22 UNK         0.1400 
    121 C         -0.2296  -16.2723  -56.5495 C.2       22 UNK         0.5000 
    122 N         -0.8005  -16.2852  -57.7480 N.am      22 UNK        -0.7600 
    123 O          0.2480  -15.2243  -56.1228 O.2       22 UNK        -0.5000 
    124 C124       -0.1982  -17.3440  -54.1867 C.3       23 UNK        -0.0398 
    125 S125        0.2493  -18.8209  -53.2086 S.3       23 UNK        -0.2404 
    126 C126        0.9113  -18.0778  -51.6818 C.3       23 UNK        -0.0205 
    127 H127       -1.5595  -11.7046  -46.4759 H         1 UNK         0.0600 
    128 H128       -1.0067  -10.1593  -45.8281 H         1 UNK         0.0600 
    129 H129       -2.2435  -10.1924  -47.0876 H         1 UNK         0.0600 
    130 H130       -0.5843  -12.5095  -48.3543 H         1 UNK         0.3000 
    131 H131        0.9212  -10.9339  -50.2219 H         1 UNK         0.0600 
    132 H132        0.7602  -13.9735  -49.8608 H         1 UNK         0.0800 
    133 H133        1.5104  -13.1748  -51.2097 H         1 UNK         0.0800 
    134 H134       -2.9556  -14.0615  -50.9092 H         1 UNK         0.0800 
    135 H135       -2.1325  -13.6123  -49.4399 H         1 UNK         0.0800 
    136 H136       -0.1204  -15.5789  -51.8509 H         1 UNK         0.1150 
    137 H137       -0.4309  -19.1831  -49.5681 H         1 UNK         0.1150 
    138 H138       -2.9008  -15.8250  -48.5926 H         1 UNK         0.1150 
    139 H139       -1.5204  -18.7867  -47.2133 H         1 UNK         0.0800 
    140 H140       -2.9024  -17.7236  -47.1407 H         1 UNK         0.0800 
    141 H141       -4.4951  -21.3068  -47.0031 H         1 UNK         0.0800 
    142 H142       -3.5374  -20.2290  -46.0231 H         1 UNK         0.0800 
    143 H143       -2.2006  -22.1561  -47.9781 H         1 UNK         0.0600 
    144 H144       -1.1982  -20.5407  -45.7730 H         1 UNK         0.3000 
    145 H145        2.1026  -21.8160  -45.9436 H         1 UNK         0.0600 
    146 H146        2.6179  -19.4307  -46.3662 H         1 UNK         0.0600 
    147 H147        1.9625  -20.1574  -47.8237 H         1 UNK         0.0600 
    148 H148        0.9498  -19.1139  -46.8353 H         1 UNK         0.0600 
    149 H149        0.9230  -19.6989  -44.4219 H         1 UNK         0.3000 
    150 H150       -0.3083  -21.6675  -41.7171 H         1 UNK         0.0600 
    151 H151        2.0697  -19.7425  -41.9626 H         1 UNK         0.0600 
    152 H152        2.1390  -21.3668  -41.2884 H         1 UNK         0.0600 
    153 H153        1.1946  -20.1246  -40.4805 H         1 UNK         0.0600 
    154 H154       -0.2100  -18.8567  -42.2168 H         1 UNK         0.3000 
    155 H155       -2.5056  -18.1453  -44.2067 H         1 UNK         0.0600 
    156 H156       -4.1680  -18.7949  -41.7207 H         1 UNK         0.0600 
    157 H157       -4.5661  -19.1855  -43.3858 H         1 UNK         0.0600 
    158 H158       -4.5275  -17.5073  -42.8718 H         1 UNK         0.0600 
    159 H159       -1.4715  -16.5907  -43.0795 H         1 UNK         0.3000 
    160 H160       -1.3759  -15.3599  -39.9162 H         1 UNK         0.0600 
    161 H161        1.0858  -16.8990  -40.9114 H         1 UNK         0.0600 
    162 H162        0.3632  -17.0484  -39.3139 H         1 UNK         0.0600 
    163 H163        1.1096  -15.5338  -39.7967 H         1 UNK         0.0600 
    164 H164        0.3612  -14.9332  -42.1813 H         1 UNK         0.3000 
    165 H165       -1.9561  -12.9922  -44.0921 H         1 UNK         0.0600 
    166 H166        0.0253  -11.4741  -44.0617 H         1 UNK         0.0600 
    167 H167       -0.8409  -11.3986  -42.5342 H         1 UNK         0.0600 
    168 H168        0.6628  -12.3063  -42.6488 H         1 UNK         0.0600 
    169 H169        0.6967  -13.8034  -44.6527 H         1 UNK         0.3000 
    170 H170       -0.0703  -16.9715  -46.1644 H         1 UNK         0.0600 
    171 H171        1.2579  -14.4643  -47.2533 H         1 UNK         0.0600 
    172 H172       -0.3559  -14.9163  -47.7461 H         1 UNK         0.0600 
    173 H173        0.9919  -16.0050  -48.0536 H         1 UNK         0.0600 
    174 H174        2.3240  -15.4257  -45.4843 H         1 UNK         0.3000 
    175 H175        3.0592  -17.1555  -42.5349 H         1 UNK         0.0600 
    176 H176        4.3966  -17.6813  -45.2431 H         1 UNK         0.0600 
    177 H177        5.1493  -17.8889  -43.6612 H         1 UNK         0.0600 
    178 H178        3.8031  -18.9121  -44.1333 H         1 UNK         0.0600 
    179 H179        4.6038  -15.4161  -44.2269 H         1 UNK         0.3000 
    180 H180        3.3637  -12.3579  -42.8185 H         1 UNK         0.0600 
    181 H181        5.7918  -12.0761  -42.4727 H         1 UNK         0.0600 
    182 H182        6.0699  -13.7959  -42.7465 H         1 UNK         0.0600 
    183 H183        5.1667  -13.2586  -41.3352 H         1 UNK         0.0600 
    184 H184        5.2598  -12.7193  -44.8671 H         1 UNK         0.3000 
    185 H185        4.4037  -11.5820  -47.0024 H         1 UNK         0.0600 
    186 H186        4.8908  -13.4978  -48.5835 H         1 UNK         0.0600 
    187 H187        5.4589  -13.8932  -46.9760 H         1 UNK         0.0600 
    188 H188        3.9546  -14.5894  -47.5672 H         1 UNK         0.0600 
    189 H189        1.7333  -12.4029  -47.2055 H         1 UNK         0.3000 
    190 H190       -2.2601  -22.3588  -44.3976 H         1 UNK         0.3000 
    191 H191       -3.7649  -24.7383  -44.2071 H         1 UNK         0.0600 
    192 H192       -2.7344  -24.9161  -41.9487 H         1 UNK         0.0600 
    193 H193       -3.2477  -23.2666  -42.2729 H         1 UNK         0.0600 
    194 H194       -1.5418  -23.6956  -42.3731 H         1 UNK         0.0600 
    195 H195       -0.2016  -24.2928  -44.5033 H         1 UNK         0.3000 
    196 H196        0.5217  -27.0275  -44.5090 H         1 UNK         0.0600 
    197 H197        1.9022  -24.6054  -45.7846 H         1 UNK         0.0600 
    198 H198        2.1374  -25.1896  -44.1384 H         1 UNK         0.0600 
    199 H199        2.6583  -26.1697  -45.5004 H         1 UNK         0.0600 
    200 H200       -0.5522  -24.9150  -47.1562 H         1 UNK         0.3000 
    201 H201       -0.1042  -26.8887  -49.2571 H         1 UNK         0.0600 
    202 H202       -1.5877  -24.2092  -49.2611 H         1 UNK         0.0600 
    203 H203       -1.1184  -25.1325  -50.6863 H         1 UNK         0.0600 
    204 H204        0.1157  -24.4345  -49.6533 H         1 UNK         0.0600 
    205 H205       -2.4169  -26.7815  -46.8464 H         1 UNK         0.3000 
    206 H206       -4.4471  -27.5657  -46.4746 H         1 UNK         0.0600 
    207 H207       -3.4655  -29.7035  -47.3262 H         1 UNK         0.0600 
    208 H208       -5.1893  -29.6064  -47.6460 H         1 UNK         0.0600 
    209 H209       -4.0428  -29.3296  -48.9496 H         1 UNK         0.0600 
    210 H210       -4.3525  -25.1508  -47.6899 H         1 UNK         0.3000 
    211 H211       -5.5713  -23.5278  -48.4477 H         1 UNK         0.0600 
    212 H212       -7.9946  -23.6857  -48.7455 H         1 UNK         0.0600 
    213 H213       -7.5292  -24.6258  -47.3382 H         1 UNK         0.0600 
    214 H214       -7.9270  -25.4364  -48.8537 H         1 UNK         0.0600 
    215 H215       -4.3860  -25.8145  -50.4666 H         1 UNK         0.3000 
    216 H216       -5.6011  -25.1571  -52.9618 H         1 UNK         0.0600 
    217 H217       -2.7802  -26.2245  -52.4254 H         1 UNK         0.0600 
    218 H218       -3.6587  -26.3107  -53.9449 H         1 UNK         0.0600 
    219 H219       -4.2322  -27.2176  -52.5527 H         1 UNK         0.0600 
    220 H220       -2.9836  -23.6402  -51.1352 H         1 UNK         0.3000 
    221 H221       -1.9330  -21.9740  -53.1936 H         1 UNK         0.0600 
    222 H222       -0.6557  -22.4842  -51.1542 H         1 UNK         0.0600 
    223 H223       -1.8593  -21.6693  -50.1521 H         1 UNK         0.0600 
    224 H224       -0.8813  -20.7527  -51.2838 H         1 UNK         0.0600 
    225 H225       -4.7980  -21.6260  -51.1644 H         1 UNK         0.3000 
    226 H226       -5.1663  -18.7979  -51.5054 H         1 UNK         0.0600 
    227 H227       -7.2223  -20.9773  -50.8570 H         1 UNK         0.0600 
    228 H228       -6.2285  -20.1361  -49.6670 H         1 UNK         0.0600 
    229 H229       -7.4194  -19.2501  -50.6055 H         1 UNK         0.0600 
    230 H230       -5.6602  -21.5071  -53.6148 H         1 UNK         0.3000 
    231 H231       -7.3695  -19.9762  -55.5157 H         1 UNK         0.0600 
    232 H232       -6.6044  -22.9437  -55.4376 H         1 UNK         0.0600 
    233 H233       -7.7236  -22.1871  -56.5648 H         1 UNK         0.0600 
    234 H234       -8.1291  -22.2739  -54.8591 H         1 UNK         0.0600 
    235 H235       -4.1883  -19.9971  -54.8352 H         1 UNK         0.3000 
    236 H236       -3.3120  -19.7973  -57.6507 H         1 UNK         0.0600 
    237 H237       -2.7558  -22.1298  -56.7975 H         1 UNK         0.0600 
    238 H238       -1.3349  -21.1884  -57.2001 H         1 UNK         0.0600 
    239 H239       -1.8023  -21.3997  -55.5122 H         1 UNK         0.0600 
    240 H240       -0.5454  -19.5045  -56.5207 H         1 UNK         0.3000 
    241 H241        0.8823  -17.9482  -55.9315 H         1 UNK         0.0600 
    242 H242       -0.8521  -15.4320  -58.2824 H         1 UNK         0.3800 
    243 H243       -1.1876  -17.1361  -58.1231 H         1 UNK         0.3800 
    244 H244       -1.1949  -17.0143  -53.8904 H         1 UNK         0.0800 
    245 H245        0.4861  -16.5418  -53.9086 H         1 UNK         0.0800 
    246 H246        1.4271  -18.8545  -51.1153 H         1 UNK         0.0800 
    247 H247        1.6704  -17.3348  -51.9309 H         1 UNK         0.0800 
@<TRIPOS>BOND
     1    1    2 1    
     2    1  127 1    
     3    1  128 1    
     4    1  129 1    
     5    2    3 2    
     6    2    4 am   BACKBONE|DICT|INTERRES
     7    4    5 1    
     8    4  130 1    
     9    5    6 1    
    10    5   65 1    
    11    5  131 1    
    12    6    7 1    
    13    6  132 1    
    14    6  133 1    
    15    7    8 1    
    16    8    9 1    
    17    8  134 1    
    18    8  135 1    
    19    9   10 ar   
    20    9   14 ar   
    21   10   11 ar   
    22   10  136 1    
    23   11   12 ar   
    24   11  126 1    
    25   12   13 ar   
    26   12  137 1    
    27   13   14 ar   
    28   13   15 1    
    29   14  138 1    
    30   15   16 1    
    31   15  139 1    
    32   15  140 1    
    33   16   17 1    
    34   17   18 1    
    35   17  141 1    
    36   17  142 1    
    37   18   19 1    
    38   18   67 1    
    39   18  143 1    
    40   19   20 am   BACKBONE|DICT|INTERRES
    41   19  144 1    
    42   20   21 2    
    43   20   22 1    
    44   22   23 1    
    45   22   24 1    
    46   22  145 1    
    47   23  146 1    
    48   23  147 1    
    49   23  148 1    
    50   24   25 am   BACKBONE|DICT|INTERRES
    51   24  149 1    
    52   25   26 2    
    53   25   27 1    
    54   27   28 1    
    55   27   29 1    
    56   27  150 1    
    57   28  151 1    
    58   28  152 1    
    59   28  153 1    
    60   29   30 am   BACKBONE|DICT|INTERRES
    61   29  154 1    
    62   30   31 2    
    63   30   32 1    
    64   32   33 1    
    65   32   34 1    
    66   32  155 1    
    67   33  156 1    
    68   33  157 1    
    69   33  158 1    
    70   34   35 am   BACKBONE|DICT|INTERRES
    71   34  159 1    
    72   35   36 2    
    73   35   37 1    
    74   37   38 1    
    75   37   39 1    
    76   37  160 1    
    77   38  161 1    
    78   38  162 1    
    79   38  163 1    
    80   39   40 am   BACKBONE|DICT|INTERRES
    81   39  164 1    
    82   40   41 2    
    83   40   42 1    
    84   42   43 1    
    85   42   44 1    
    86   42  165 1    
    87   43  166 1    
    88   43  167 1    
    89   43  168 1    
    90   44   45 am   BACKBONE|DICT|INTERRES
    91   44  169 1    
    92   45   46 2    
    93   45   47 1    
    94   47   48 1    
    95   47   49 1    
    96   47  170 1    
    97   48  171 1    
    98   48  172 1    
    99   48  173 1    
   100   49   50 am   BACKBONE|DICT|INTERRES
   101   49  174 1    
   102   50   51 2    
   103   50   52 1    
   104   52   53 1    
   105   52   54 1    
   106   52  175 1    
   107   53  176 1    
   108   53  177 1    
   109   53  178 1    
   110   54   55 am   BACKBONE|DICT|INTERRES
   111   54  179 1    
   112   55   56 2    
   113   55   57 1    
   114   57   58 1    
   115   57   59 1    
   116   57  180 1    
   117   58  181 1    
   118   58  182 1    
   119   58  183 1    
   120   59   60 am   BACKBONE|DICT|INTERRES
   121   59  184 1    
   122   60   61 2    
   123   60   62 1    
   124   62   63 1    
   125   62   64 1    
   126   62  185 1    
   127   63  186 1    
   128   63  187 1    
   129   63  188 1    
   130   64   65 am   BACKBONE|DICT|INTERRES
   131   64  189 1    
   132   65   66 2    
   133   67   68 2    
   134   67   69 am   BACKBONE|DICT|INTERRES
   135   69   70 1    
   136   69  190 1    
   137   70   71 1    
   138   70   72 1    
   139   70  191 1    
   140   71  192 1    
   141   71  193 1    
   142   71  194 1    
   143   72   73 2    
   144   72   74 am   BACKBONE|DICT|INTERRES
   145   74   75 1    
   146   74  195 1    
   147   75   76 1    
   148   75   77 1    
   149   75  196 1    
   150   76  197 1    
   151   76  198 1    
   152   76  199 1    
   153   77   78 2    
   154   77   79 am   BACKBONE|DICT|INTERRES
   155   79   80 1    
   156   79  200 1    
   157   80   81 1    
   158   80   82 1    
   159   80  201 1    
   160   81  202 1    
   161   81  203 1    
   162   81  204 1    
   163   82   83 2    
   164   82   84 am   BACKBONE|DICT|INTERRES
   165   84   85 1    
   166   84  205 1    
   167   85   86 1    
   168   85   87 1    
   169   85  206 1    
   170   86  207 1    
   171   86  208 1    
   172   86  209 1    
   173   87   88 2    
   174   87   89 am   BACKBONE|DICT|INTERRES
   175   89   90 1    
   176   89  210 1    
   177   90   91 1    
   178   90   92 1    
   179   90  211 1    
   180   91  212 1    
   181   91  213 1    
   182   91  214 1    
   183   92   93 2    
   184   92   94 am   BACKBONE|DICT|INTERRES
   185   94   95 1    
   186   94  215 1    
   187   95   96 1    
   188   95   97 1    
   189   95  216 1    
   190   96  217 1    
   191   96  218 1    
   192   96  219 1    
   193   97   98 2    
   194   97   99 am   BACKBONE|DICT|INTERRES
   195   99  100 1    
   196   99  220 1    
   197  100  101 1    
   198  100  102 1    
   199  100  221 1    
   200  101  222 1    
   201  101  223 1    
   202  101  224 1    
   203  102  103 2    
   204  102  104 am   BACKBONE|DICT|INTERRES
   205  104  105 1    
   206  104  225 1    
   207  105  106 1    
   208  105  107 1    
   209  105  226 1    
   210  106  227 1    
   211  106  228 1    
   212  106  229 1    
   213  107  108 2    
   214  107  109 am   BACKBONE|DICT|INTERRES
   215  109  110 1    
   216  109  230 1    
   217  110  111 1    
   218  110  112 1    
   219  110  231 1    
   220  111  232 1    
   221  111  233 1    
   222  111  234 1    
   223  112  113 2    
   224  112  114 am   BACKBONE|DICT|INTERRES
   225  114  115 1    
   226  114  235 1    
   227  115  116 1    
   228  115  117 1    
   229  115  236 1    
   230  116  237 1    
   231  116  238 1    
   232  116  239 1    
   233  117  118 2    
   234  117  119 am   BACKBONE|DICT|INTERRES
   235  119  120 1    
   236  119  240 1    
   237  120  121 1    
   238  120  124 1    
   239  120  241 1    
   240  121  122 am   BACKBONE|DICT|INTERRES
   241  121  123 2    
   242  122  242 1    
   243  122  243 1    
   244  124  125 1    
   245  124  244 1    
   246  124  245 1    
   247  125  126 1    
   248  126  246 1    
   249  126  247 1    
@<TRIPOS>SUBSTRUCTURE
     1 UNK         1 GROUP             0       ****    0 ROOT    
