@<TRIPOS>MOLECULE
3R540
247   249    1
SMALL
USER_CHARGES


@<TRIPOS>ATOM
      1 CA          4.7888  -18.5240  -46.9386 C.3       0 UNK        -0.1800 
      2 C           4.9796  -17.0210  -46.7927 C.2       0 UNK         0.5000 
      3 O           6.0130  -16.4913  -47.2013 O.2       0 UNK        -0.5000 
      4 N           3.9856  -16.3413  -46.2116 N.am      1 UNK        -0.5000 
      5 CA          3.9714  -14.9109  -45.8931 C.3       1 UNK         0.1400 
      6 C6          3.9885  -13.9684  -47.1278 C.3       23 UNK        -0.0398 
      7 S7          2.5048  -14.1897  -48.1638 S.3       23 UNK        -0.2404 
      8 C8          3.1956  -14.8146  -49.7259 C.3       23 UNK        -0.0205 
      9 C9          2.4339  -16.0362  -50.2106 C.ar      23 UNK        -0.0193 
     10 C10         1.1727  -15.8959  -50.7979 C.ar      23 UNK        -0.1150 
     11 C11         0.4783  -17.0176  -51.2599 C.ar      23 UNK        -0.0193 
     12 C12         1.0619  -18.2812  -51.1433 C.ar      23 UNK        -0.1150 
     13 C13         2.3128  -18.4375  -50.5401 C.ar      23 UNK        -0.0193 
     14 C14         2.9949  -17.3090  -50.0792 C.ar      23 UNK        -0.1150 
     15 C15         2.9332  -19.8190  -50.3911 C.3       23 UNK        -0.0205 
     16 S16         2.3525  -20.6639  -48.8859 S.3       23 UNK        -0.2404 
     17 C17         0.7150  -21.2415  -49.4345 C.3       23 UNK        -0.0398 
     18 CA          0.0687  -22.2320  -48.4428 C.3       11 UNK         0.1400 
     19 N          -0.2435  -21.6131  -47.1519 N.am      11 UNK        -0.5000 
     20 C          -0.5709  -22.2992  -46.0465 C.2       10 UNK         0.5000 
     21 O          -0.6145  -23.5274  -45.9991 O.2       10 UNK        -0.5000 
     22 CA         -0.9776  -21.4843  -44.8021 C.3       10 UNK         0.1400 
     23 CB          0.2662  -21.0887  -43.9924 C.3       10 UNK        -0.1800 
     24 N          -1.7400  -20.2799  -45.1282 N.am      10 UNK        -0.5000 
     25 C          -2.8687  -20.2456  -45.8488 C.2       9 UNK         0.5000 
     26 O          -3.4759  -21.2577  -46.1965 O.2       9 UNK        -0.5000 
     27 CA         -3.3740  -18.8653  -46.3141 C.3       9 UNK         0.1400 
     28 CB         -4.5903  -18.4293  -45.4867 C.3       9 UNK        -0.1800 
     29 N          -2.3613  -17.8050  -46.2811 N.am      9 UNK        -0.5000 
     30 C          -1.2157  -17.7927  -46.9821 C.2       8 UNK         0.5000 
     31 O          -0.8434  -18.7194  -47.7016 O.2       8 UNK        -0.5000 
     32 CA         -0.3078  -16.5704  -46.7713 C.3       8 UNK         0.1400 
     33 CB         -0.8951  -15.3194  -47.4458 C.3       8 UNK        -0.1800 
     34 N          -0.1451  -16.3259  -45.3379 N.am      8 UNK        -0.5000 
     35 C           0.7810  -16.9236  -44.5758 C.2       7 UNK         0.5000 
     36 O           1.6847  -17.6242  -45.0312 O.2       7 UNK        -0.5000 
     37 CA          0.6955  -16.7134  -43.0510 C.3       7 UNK         0.1400 
     38 CB          1.7129  -15.6639  -42.5909 C.3       7 UNK        -0.1800 
     39 N          -0.6358  -16.3168  -42.5930 N.am      7 UNK        -0.5000 
     40 C          -1.6800  -17.1532  -42.5086 C.2       6 UNK         0.5000 
     41 O          -1.6186  -18.3482  -42.7927 O.2       6 UNK        -0.5000 
     42 CA         -3.0301  -16.5475  -42.0775 C.3       6 UNK         0.1400 
     43 CB         -3.1980  -16.6433  -40.5541 C.3       6 UNK        -0.1800 
     44 N          -3.2099  -15.1549  -42.4924 N.am      6 UNK        -0.5000 
     45 C          -3.1513  -14.7031  -43.7523 C.2       5 UNK         0.5000 
     46 O          -2.9560  -15.4292  -44.7282 O.2       5 UNK        -0.5000 
     47 CA         -3.2688  -13.1822  -43.9613 C.3       5 UNK         0.1400 
     48 CB         -3.9574  -12.4416  -42.7929 C.3       5 UNK        -0.1800 
     49 N          -1.9679  -12.5717  -44.2571 N.am      5 UNK        -0.5000 
     50 C          -0.8605  -12.6017  -43.5001 C.2       4 UNK         0.5000 
     51 O          -0.7613  -13.2304  -42.4416 O.2       4 UNK        -0.5000 
     52 CA          0.3356  -11.7842  -44.0160 C.3       4 UNK         0.1400 
     53 CB         -0.0432  -10.3134  -44.2870 C.3       4 UNK        -0.1800 
     54 N           1.4221  -11.8361  -43.0395 N.am      4 UNK        -0.5000 
     55 C           2.7171  -11.6580  -43.3188 C.2       3 UNK         0.5000 
     56 O           3.1253  -11.4414  -44.4625 O.2       3 UNK        -0.5000 
     57 CA          3.7301  -11.7433  -42.1512 C.3       3 UNK         0.1400 
     58 CB          3.1720  -12.4171  -40.8829 C.3       3 UNK        -0.1800 
     59 N           4.9016  -12.4863  -42.6056 N.am      3 UNK        -0.5000 
     60 C           5.9761  -11.9529  -43.1985 C.2       2 UNK         0.5000 
     61 O           6.2869  -10.7635  -43.1205 O.2       2 UNK        -0.5000 
     62 CA          6.7862  -12.8939  -44.1150 C.3       2 UNK         0.1400 
     63 CB          7.7061  -13.8384  -43.3165 C.3       2 UNK        -0.1800 
     64 N           5.9178  -13.6084  -45.0682 N.am      2 UNK        -0.5000 
     65 C           5.0249  -14.5788  -44.8135 C.2       1 UNK         0.5000 
     66 O           4.9485  -15.1528  -43.7264 O.2       1 UNK        -0.5000 
     67 C          -1.1785  -22.8685  -49.0838 C.2       11 UNK         0.5000 
     68 O          -1.0643  -23.9333  -49.6898 O.2       11 UNK        -0.5000 
     69 N          -2.3423  -22.2209  -48.9381 N.am      12 UNK        -0.5000 
     70 CA         -3.6294  -22.7257  -49.4174 C.3       12 UNK         0.1400 
     71 CB         -4.6752  -21.6030  -49.3677 C.3       12 UNK        -0.1800 
     72 C          -4.0916  -23.9539  -48.6160 C.2       12 UNK         0.5000 
     73 O          -4.5565  -24.9270  -49.2084 O.2       12 UNK        -0.5000 
     74 N          -3.9059  -23.9043  -47.2890 N.am      13 UNK        -0.5000 
     75 CA         -4.1801  -25.0005  -46.3586 C.3       13 UNK         0.1400 
     76 CB         -4.0463  -24.4872  -44.9171 C.3       13 UNK        -0.1800 
     77 C          -3.2729  -26.2246  -46.5901 C.2       13 UNK         0.5000 
     78 O          -3.7529  -27.3569  -46.5292 O.2       13 UNK        -0.5000 
     79 N          -1.9882  -25.9763  -46.8817 N.am      14 UNK        -0.5000 
     80 CA         -0.9935  -26.9970  -47.2239 C.3       14 UNK         0.1400 
     81 CB          0.4107  -26.3957  -47.0515 C.3       14 UNK        -0.1800 
     82 C          -1.1504  -27.5657  -48.6493 C.2       14 UNK         0.5000 
     83 O          -0.5135  -28.5720  -48.9630 O.2       14 UNK        -0.5000 
     84 N          -1.9603  -26.9016  -49.4876 N.am      15 UNK        -0.5000 
     85 CA         -2.1800  -27.1583  -50.9153 C.3       15 UNK         0.1400 
     86 CB         -2.8117  -28.5465  -51.1477 C.3       15 UNK        -0.1800 
     87 C          -0.9232  -26.9081  -51.7797 C.2       15 UNK         0.5000 
     88 O          -0.7882  -27.4865  -52.8595 O.2       15 UNK        -0.5000 
     89 N          -0.0353  -26.0276  -51.2985 N.am      16 UNK        -0.5000 
     90 CA          1.0996  -25.4810  -52.0425 C.3       16 UNK         0.1400 
     91 CB          2.1452  -24.9556  -51.0463 C.3       16 UNK        -0.1800 
     92 C           0.6428  -24.3598  -52.9950 C.2       16 UNK         0.5000 
     93 O           1.2136  -24.2007  -54.0743 O.2       16 UNK        -0.5000 
     94 N          -0.4008  -23.6336  -52.5809 N.am      17 UNK        -0.5000 
     95 CA         -1.1876  -22.7108  -53.3902 C.3       17 UNK         0.1400 
     96 CB         -1.1852  -21.3344  -52.7070 C.3       17 UNK        -0.1800 
     97 C          -2.6166  -23.2662  -53.5130 C.2       17 UNK         0.5000 
     98 O          -2.9502  -24.2651  -52.8684 O.2       17 UNK        -0.5000 
     99 N          -3.4429  -22.6130  -54.3386 N.am      18 UNK        -0.5000 
    100 CA        -4.8561  -22.9500  -54.5146 C.3       18 UNK         0.1400 
    101 CB        -5.4373  -22.1151  -55.6650 C.3       18 UNK        -0.1800 
    102 C         -5.6626  -22.7300  -53.2209 C.2       18 UNK         0.5000 
    103 O         -5.4064  -21.7674  -52.4959 O.2       18 UNK        -0.5000 
    104 N         -6.6335  -23.6186  -52.9724 N.am      19 UNK        -0.5000 
    105 CA        -7.4653  -23.6437  -51.7646 C.3       19 UNK         0.1400 
    106 CB        -8.2647  -24.9553  -51.7408 C.3       19 UNK        -0.1800 
    107 C         -8.4105  -22.4339  -51.6176 C.2       19 UNK         0.5000 
    108 O         -8.8660  -22.1525  -50.5078 O.2       19 UNK        -0.5000 
    109 N         -8.6865  -21.7366  -52.7278 N.am      20 UNK        -0.5000 
    110 CA        -9.4722  -20.5061  -52.7979 C.3       20 UNK         0.1400 
    111 CB        -9.9085  -20.2868  -54.2575 C.3       20 UNK        -0.1800 
    112 C         -8.6802  -19.3085  -52.2341 C.2       20 UNK         0.5000 
    113 O         -8.1939  -18.4722  -53.0011 O.2       20 UNK        -0.5000 
    114 N         -8.5275  -19.2860  -50.9021 N.am      21 UNK        -0.5000 
    115 CA        -7.8283  -18.3159  -50.0456 C.3       21 UNK         0.1400 
    116 CB        -8.4612  -16.9157  -50.1545 C.3       21 UNK        -0.1800 
    117 C         -6.3029  -18.2562  -50.2591 C.2       21 UNK         0.5000 
    118 O         -5.5501  -18.3387  -49.2897 O.2       21 UNK        -0.5000 
    119 N         -5.8890  -18.1209  -51.5187 N.am      22 UNK        -0.5000 
    120 CA        -4.5065  -18.1334  -52.0059 C.3       22 UNK         0.1400 
    121 C         -4.4079  -18.4055  -53.5366 C.2       22 UNK         0.5000 
    122 N         -5.5037  -18.5413  -54.2793 N.am      22 UNK        -0.7600 
    123 O         -3.3080  -18.4991  -54.0728 O.2       22 UNK        -0.5000 
    124 C124       -3.7126  -16.8621  -51.5753 C.3       23 UNK        -0.0398 
    125 S125       -2.1936  -17.2619  -50.6516 S.3       23 UNK        -0.2404 
    126 C126       -0.9051  -16.8725  -51.8736 C.3       23 UNK        -0.0205 
    127 H127        5.0162  -18.8401  -47.9564 H         1 UNK         0.0600 
    128 H128        3.7643  -18.8227  -46.7133 H         1 UNK         0.0600 
    129 H129        5.4563  -19.0544  -46.2598 H         1 UNK         0.0600 
    130 H130        3.1795  -16.8596  -45.8695 H         1 UNK         0.3000 
    131 H131        3.0154  -14.7449  -45.3939 H         1 UNK         0.0600 
    132 H132        3.9760  -12.9247  -46.8084 H         1 UNK         0.0800 
    133 H133        4.8980  -14.0977  -47.7147 H         1 UNK         0.0800 
    134 H134        3.1435  -14.0265  -50.4784 H         1 UNK         0.0800 
    135 H135        4.2526  -15.0591  -49.6151 H         1 UNK         0.0800 
    136 H136        0.7300  -14.9135  -50.8854 H         1 UNK         0.1150 
    137 H137        0.5264  -19.1445  -51.5044 H         1 UNK         0.1150 
    138 H138        3.9670  -17.4206  -49.6219 H         1 UNK         0.1150 
    139 H139        2.7188  -20.4276  -51.2709 H         1 UNK         0.0800 
    140 H140        4.0198  -19.7333  -50.3432 H         1 UNK         0.0800 
    141 H141        0.8417  -21.7103  -50.4121 H         1 UNK         0.0800 
    142 H142        0.0644  -20.3789  -49.5825 H         1 UNK         0.0800 
    143 H143        0.7810  -23.0399  -48.2612 H         1 UNK         0.0600 
    144 H144       -0.2685  -20.5980  -47.1370 H         1 UNK         0.3000 
    145 H145       -1.6104  -22.1184  -44.1788 H         1 UNK         0.0600 
    146 H146       -0.0096  -20.5932  -43.0615 H         1 UNK         0.0600 
    147 H147        0.9128  -20.4122  -44.5534 H         1 UNK         0.0600 
    148 H148        0.8572  -21.9669  -43.7293 H         1 UNK         0.0600 
    149 H149       -1.3541  -19.4009  -44.8112 H         1 UNK         0.3000 
    150 H150       -3.6899  -18.9746  -47.3534 H         1 UNK         0.0600 
    151 H151       -5.3977  -19.1581  -45.5685 H         1 UNK         0.0600 
    152 H152       -4.9810  -17.4714  -45.8310 H         1 UNK         0.0600 
    153 H153       -4.3400  -18.3338  -44.4311 H         1 UNK         0.0600 
    154 H154       -2.5854  -16.9927  -45.7124 H         1 UNK         0.3000 
    155 H155        0.6642  -16.7743  -47.2273 H         1 UNK         0.0600 
    156 H156       -0.8883  -15.4310  -48.5303 H         1 UNK         0.0600 
    157 H157       -0.3125  -14.4303  -47.2073 H         1 UNK         0.0600 
    158 H158       -1.9251  -15.1296  -47.1446 H         1 UNK         0.0600 
    159 H159       -0.8884  -15.8081  -44.8863 H         1 UNK         0.3000 
    160 H160        0.9523  -17.6620  -42.5742 H         1 UNK         0.0600 
    161 H161        1.5826  -14.7161  -43.1128 H         1 UNK         0.0600 
    162 H162        2.7276  -16.0115  -42.7791 H         1 UNK         0.0600 
    163 H163        1.6298  -15.4776  -41.5203 H         1 UNK         0.0600 
    164 H164       -0.7697  -15.3377  -42.3621 H         1 UNK         0.3000 
    165 H165       -3.8218  -17.1351  -42.5431 H         1 UNK         0.0600 
    166 H166       -4.1845  -16.2993  -40.2429 H         1 UNK         0.0600 
    167 H167       -3.0924  -17.6744  -40.2136 H         1 UNK         0.0600 
    168 H168       -2.4517  -16.0457  -40.0290 H         1 UNK         0.0600 
    169 H169       -3.3266  -14.4777  -41.7527 H         1 UNK         0.3000 
    170 H170       -3.8891  -13.0453  -44.8484 H         1 UNK         0.0600 
    171 H171       -3.3670  -12.4664  -41.8765 H         1 UNK         0.0600 
    172 H172       -4.1234  -11.3941  -43.0447 H         1 UNK         0.0600 
    173 H173       -4.9337  -12.8758  -42.5728 H         1 UNK         0.0600 
    174 H174       -1.9307  -12.0593  -45.1269 H         1 UNK         0.3000 
    175 H175        0.6657  -12.2516  -44.9464 H         1 UNK         0.0600 
    176 H176       -0.4254   -9.8279  -43.3882 H         1 UNK         0.0600 
    177 H177        0.8163   -9.7398  -44.6341 H         1 UNK         0.0600 
    178 H178       -0.8088  -10.2299  -45.0586 H         1 UNK         0.0600 
    179 H179        1.1319  -12.0915  -42.1039 H         1 UNK         0.3000 
    180 H180        4.0137  -10.7209  -41.8943 H         1 UNK         0.0600 
    181 H181        3.9365  -12.4773  -40.1080 H         1 UNK         0.0600 
    182 H182        2.8255  -13.4309  -41.0808 H         1 UNK         0.0600 
    183 H183        2.3399  -11.8513  -40.4625 H         1 UNK         0.0600 
    184 H184        4.7592  -13.4797  -42.7609 H         1 UNK         0.3000 
    185 H185        7.4305  -12.2605  -44.7269 H         1 UNK         0.0600 
    186 H186        8.2519  -14.5100  -43.9791 H         1 UNK         0.0600 
    187 H187        8.4437  -13.2673  -42.7517 H         1 UNK         0.0600 
    188 H188        7.1560  -14.4473  -42.5991 H         1 UNK         0.0600 
    189 H189        5.9039  -13.1984  -45.9909 H         1 UNK         0.3000 
    190 H190       -2.3629  -21.3725  -48.3909 H         1 UNK         0.3000 
    191 H191       -3.5123  -23.0298  -50.4594 H         1 UNK         0.0600 
    192 H192       -4.3648  -20.7592  -49.9821 H         1 UNK         0.0600 
    193 H193       -4.8464  -21.2354  -48.3573 H         1 UNK         0.0600 
    194 H194       -5.6363  -21.9432  -49.7515 H         1 UNK         0.0600 
    195 H195       -3.5710  -23.0343  -46.8828 H         1 UNK         0.3000 
    196 H196       -5.2134  -25.3177  -46.5132 H         1 UNK         0.0600 
    197 H197       -4.7243  -23.6541  -44.7305 H         1 UNK         0.0600 
    198 H198       -3.0329  -24.1466  -44.7035 H         1 UNK         0.0600 
    199 H199       -4.2876  -25.2719  -44.1990 H         1 UNK         0.0600 
    200 H200       -1.6507  -25.0201  -46.8297 H         1 UNK         0.3000 
    201 H201       -1.0967  -27.8301  -46.5257 H         1 UNK         0.0600 
    202 H202        0.5694  -26.0511  -46.0295 H         1 UNK         0.0600 
    203 H203        0.5687  -25.5486  -47.7200 H         1 UNK         0.0600 
    204 H204        1.1849  -27.1330  -47.2674 H         1 UNK         0.0600 
    205 H205       -2.4272  -26.0803  -49.1264 H         1 UNK         0.3000 
    206 H206       -2.9115  -26.4148  -51.2339 H         1 UNK         0.0600 
    207 H207       -2.1110  -29.3541  -50.9356 H         1 UNK         0.0600 
    208 H208       -3.6909  -28.6889  -50.5192 H         1 UNK         0.0600 
    209 H209       -3.1334  -28.6591  -52.1836 H         1 UNK         0.0600 
    210 H210       -0.2778  -25.5485  -50.4373 H         1 UNK         0.3000 
    211 H211        1.5554  -26.2742  -52.6386 H         1 UNK         0.0600 
    212 H212        1.7441  -24.1576  -50.4211 H         1 UNK         0.0600 
    213 H213        3.0158  -24.5572  -51.5688 H         1 UNK         0.0600 
    214 H214        2.4957  -25.7510  -50.3883 H         1 UNK         0.0600 
    215 H215       -0.8287  -23.8939  -51.6985 H         1 UNK         0.3000 
    216 H216       -0.7677  -22.6177  -54.3937 H         1 UNK         0.0600 
    217 H217       -1.7233  -20.5955  -53.3007 H         1 UNK         0.0600 
    218 H218       -0.1659  -20.9708  -52.5899 H         1 UNK         0.0600 
    219 H219       -1.6526  -21.3654  -51.7224 H         1 UNK         0.0600 
    220 H220       -3.1193  -21.7763  -54.8016 H         1 UNK         0.3000 
    221 H221       -4.9162  -24.0052  -54.7899 H         1 UNK         0.0600 
    222 H222       -5.3720  -21.0476  -55.4577 H         1 UNK         0.0600 
    223 H223       -4.9090  -22.3082  -56.5988 H         1 UNK         0.0600 
    224 H224       -6.4884  -22.3536  -55.8318 H         1 UNK         0.0600 
    225 H225       -6.7827  -24.3724  -53.6279 H         1 UNK         0.3000 
    226 H226       -6.7978  -23.6423  -50.9011 H         1 UNK         0.0600 
    227 H227       -7.6022  -25.8212  -51.7495 H         1 UNK         0.0600 
    228 H228       -8.8746  -25.0258  -50.8391 H         1 UNK         0.0600 
    229 H229       -8.9350  -25.0340  -52.5977 H         1 UNK         0.0600 
    230 H230       -8.2451  -22.0327  -53.5851 H         1 UNK         0.3000 
    231 H231      -10.3736  -20.6259  -52.1932 H         1 UNK         0.0600 
    232 H232      -10.4990  -19.3749  -54.3554 H         1 UNK         0.0600 
    233 H233      -10.5264  -21.1121  -54.6119 H         1 UNK         0.0600 
    234 H234       -9.0523  -20.1979  -54.9276 H         1 UNK         0.0600 
    235 H235       -8.8774  -20.1021  -50.4102 H         1 UNK         0.3000 
    236 H236       -7.9840  -18.6640  -49.0231 H         1 UNK         0.0600 
    237 H237       -8.3528  -16.4930  -51.1537 H         1 UNK         0.0600 
    238 H238       -9.5246  -16.9452  -49.9171 H         1 UNK         0.0600 
    239 H239       -7.9913  -16.2223  -49.4558 H         1 UNK         0.0600 
    240 H240       -6.6133  -18.0830  -52.2288 H         1 UNK         0.3000 
    241 H241       -4.0477  -19.0137  -51.5532 H         1 UNK         0.0600 
    242 H242       -5.3905  -18.6990  -55.2673 H         1 UNK         0.3800 
    243 H243       -6.4391  -18.4948  -53.8955 H         1 UNK         0.3800 
    244 H244       -4.3143  -16.2319  -50.9193 H         1 UNK         0.0800 
    245 H245       -3.4718  -16.2207  -52.4249 H         1 UNK         0.0800 
    246 H246       -1.0477  -15.8571  -52.2463 H         1 UNK         0.0800 
    247 H247       -1.0046  -17.5387  -52.7320 H         1 UNK         0.0800 
@<TRIPOS>BOND
     1    1    2 1    
     2    1  127 1    
     3    1  128 1    
     4    1  129 1    
     5    2    3 2    
     6    2    4 am   BACKBONE|DICT|INTERRES
     7    4    5 1    
     8    4  130 1    
     9    5    6 1    
    10    5   65 1    
    11    5  131 1    
    12    6    7 1    
    13    6  132 1    
    14    6  133 1    
    15    7    8 1    
    16    8    9 1    
    17    8  134 1    
    18    8  135 1    
    19    9   10 ar   
    20    9   14 ar   
    21   10   11 ar   
    22   10  136 1    
    23   11   12 ar   
    24   11  126 1    
    25   12   13 ar   
    26   12  137 1    
    27   13   14 ar   
    28   13   15 1    
    29   14  138 1    
    30   15   16 1    
    31   15  139 1    
    32   15  140 1    
    33   16   17 1    
    34   17   18 1    
    35   17  141 1    
    36   17  142 1    
    37   18   19 1    
    38   18   67 1    
    39   18  143 1    
    40   19   20 am   BACKBONE|DICT|INTERRES
    41   19  144 1    
    42   20   21 2    
    43   20   22 1    
    44   22   23 1    
    45   22   24 1    
    46   22  145 1    
    47   23  146 1    
    48   23  147 1    
    49   23  148 1    
    50   24   25 am   BACKBONE|DICT|INTERRES
    51   24  149 1    
    52   25   26 2    
    53   25   27 1    
    54   27   28 1    
    55   27   29 1    
    56   27  150 1    
    57   28  151 1    
    58   28  152 1    
    59   28  153 1    
    60   29   30 am   BACKBONE|DICT|INTERRES
    61   29  154 1    
    62   30   31 2    
    63   30   32 1    
    64   32   33 1    
    65   32   34 1    
    66   32  155 1    
    67   33  156 1    
    68   33  157 1    
    69   33  158 1    
    70   34   35 am   BACKBONE|DICT|INTERRES
    71   34  159 1    
    72   35   36 2    
    73   35   37 1    
    74   37   38 1    
    75   37   39 1    
    76   37  160 1    
    77   38  161 1    
    78   38  162 1    
    79   38  163 1    
    80   39   40 am   BACKBONE|DICT|INTERRES
    81   39  164 1    
    82   40   41 2    
    83   40   42 1    
    84   42   43 1    
    85   42   44 1    
    86   42  165 1    
    87   43  166 1    
    88   43  167 1    
    89   43  168 1    
    90   44   45 am   BACKBONE|DICT|INTERRES
    91   44  169 1    
    92   45   46 2    
    93   45   47 1    
    94   47   48 1    
    95   47   49 1    
    96   47  170 1    
    97   48  171 1    
    98   48  172 1    
    99   48  173 1    
   100   49   50 am   BACKBONE|DICT|INTERRES
   101   49  174 1    
   102   50   51 2    
   103   50   52 1    
   104   52   53 1    
   105   52   54 1    
   106   52  175 1    
   107   53  176 1    
   108   53  177 1    
   109   53  178 1    
   110   54   55 am   BACKBONE|DICT|INTERRES
   111   54  179 1    
   112   55   56 2    
   113   55   57 1    
   114   57   58 1    
   115   57   59 1    
   116   57  180 1    
   117   58  181 1    
   118   58  182 1    
   119   58  183 1    
   120   59   60 am   BACKBONE|DICT|INTERRES
   121   59  184 1    
   122   60   61 2    
   123   60   62 1    
   124   62   63 1    
   125   62   64 1    
   126   62  185 1    
   127   63  186 1    
   128   63  187 1    
   129   63  188 1    
   130   64   65 am   BACKBONE|DICT|INTERRES
   131   64  189 1    
   132   65   66 2    
   133   67   68 2    
   134   67   69 am   BACKBONE|DICT|INTERRES
   135   69   70 1    
   136   69  190 1    
   137   70   71 1    
   138   70   72 1    
   139   70  191 1    
   140   71  192 1    
   141   71  193 1    
   142   71  194 1    
   143   72   73 2    
   144   72   74 am   BACKBONE|DICT|INTERRES
   145   74   75 1    
   146   74  195 1    
   147   75   76 1    
   148   75   77 1    
   149   75  196 1    
   150   76  197 1    
   151   76  198 1    
   152   76  199 1    
   153   77   78 2    
   154   77   79 am   BACKBONE|DICT|INTERRES
   155   79   80 1    
   156   79  200 1    
   157   80   81 1    
   158   80   82 1    
   159   80  201 1    
   160   81  202 1    
   161   81  203 1    
   162   81  204 1    
   163   82   83 2    
   164   82   84 am   BACKBONE|DICT|INTERRES
   165   84   85 1    
   166   84  205 1    
   167   85   86 1    
   168   85   87 1    
   169   85  206 1    
   170   86  207 1    
   171   86  208 1    
   172   86  209 1    
   173   87   88 2    
   174   87   89 am   BACKBONE|DICT|INTERRES
   175   89   90 1    
   176   89  210 1    
   177   90   91 1    
   178   90   92 1    
   179   90  211 1    
   180   91  212 1    
   181   91  213 1    
   182   91  214 1    
   183   92   93 2    
   184   92   94 am   BACKBONE|DICT|INTERRES
   185   94   95 1    
   186   94  215 1    
   187   95   96 1    
   188   95   97 1    
   189   95  216 1    
   190   96  217 1    
   191   96  218 1    
   192   96  219 1    
   193   97   98 2    
   194   97   99 am   BACKBONE|DICT|INTERRES
   195   99  100 1    
   196   99  220 1    
   197  100  101 1    
   198  100  102 1    
   199  100  221 1    
   200  101  222 1    
   201  101  223 1    
   202  101  224 1    
   203  102  103 2    
   204  102  104 am   BACKBONE|DICT|INTERRES
   205  104  105 1    
   206  104  225 1    
   207  105  106 1    
   208  105  107 1    
   209  105  226 1    
   210  106  227 1    
   211  106  228 1    
   212  106  229 1    
   213  107  108 2    
   214  107  109 am   BACKBONE|DICT|INTERRES
   215  109  110 1    
   216  109  230 1    
   217  110  111 1    
   218  110  112 1    
   219  110  231 1    
   220  111  232 1    
   221  111  233 1    
   222  111  234 1    
   223  112  113 2    
   224  112  114 am   BACKBONE|DICT|INTERRES
   225  114  115 1    
   226  114  235 1    
   227  115  116 1    
   228  115  117 1    
   229  115  236 1    
   230  116  237 1    
   231  116  238 1    
   232  116  239 1    
   233  117  118 2    
   234  117  119 am   BACKBONE|DICT|INTERRES
   235  119  120 1    
   236  119  240 1    
   237  120  121 1    
   238  120  124 1    
   239  120  241 1    
   240  121  122 am   BACKBONE|DICT|INTERRES
   241  121  123 2    
   242  122  242 1    
   243  122  243 1    
   244  124  125 1    
   245  124  244 1    
   246  124  245 1    
   247  125  126 1    
   248  126  246 1    
   249  126  247 1    
@<TRIPOS>SUBSTRUCTURE
     1 UNK         1 GROUP             0       ****    0 ROOT    
