@<TRIPOS>MOLECULE
3R540
247   249    1
SMALL
USER_CHARGES


@<TRIPOS>ATOM
      1 CA         -3.2160  -13.7541  -43.7262 C.3       0 UNK        -0.1800 
      2 C          -2.6202  -12.9966  -44.9013 C.2       0 UNK         0.5000 
      3 O          -2.2782  -11.8218  -44.7598 O.2       0 UNK        -0.5000 
      4 N          -2.5125  -13.6543  -46.0624 N.am      1 UNK        -0.5000 
      5 CA         -1.9537  -13.0709  -47.2874 C.3       1 UNK         0.1400 
      6 C6         -2.2866  -13.8790  -48.5682 C.3       23 UNK        -0.0398 
      7 S7         -4.0455  -14.3467  -48.7344 S.3       23 UNK        -0.2404 
      8 C8         -3.8874  -16.1374  -48.4639 C.3       23 UNK        -0.0205 
      9 C9         -5.1868  -16.9036  -48.6271 C.ar      23 UNK        -0.0193 
     10 C10        -5.8334  -16.9606  -49.8644 C.ar      23 UNK        -0.1150 
     11 C11        -6.9617  -17.7730  -50.0452 C.ar      23 UNK        -0.0193 
     12 C12        -7.4344  -18.5221  -48.9593 C.ar      23 UNK        -0.1150 
     13 C13        -6.8018  -18.4627  -47.7121 C.ar      23 UNK        -0.0193 
     14 C14        -5.6896  -17.6358  -47.5514 C.ar      23 UNK        -0.1150 
     15 C15        -7.3201  -19.2819  -46.5370 C.3       23 UNK        -0.0205 
     16 S16        -6.4650  -20.8861  -46.3652 S.3       23 UNK        -0.2404 
     17 C17        -4.9180  -20.4362  -45.4976 C.3       23 UNK        -0.0398 
     18 CA         -3.6579  -20.8991  -46.2776 C.3       11 UNK         0.1400 
     19 N          -2.4820  -20.1018  -45.9571 N.am      11 UNK        -0.5000 
     20 C          -1.8719  -19.2576  -46.8008 C.2       10 UNK         0.5000 
     21 O          -2.1889  -19.1200  -47.9814 O.2       10 UNK        -0.5000 
     22 CA         -0.7216  -18.4069  -46.2255 C.3       10 UNK         0.1400 
     23 CB         -0.4622  -17.1337  -47.0540 C.3       10 UNK        -0.1800 
     24 N          -0.9188  -18.0768  -44.8117 N.am      10 UNK        -0.5000 
     25 C          -1.9364  -17.3905  -44.2695 C.2       9 UNK         0.5000 
     26 O          -2.7970  -16.8025  -44.9261 O.2       9 UNK        -0.5000 
     27 CA         -2.0069  -17.3920  -42.7264 C.3       9 UNK         0.1400 
     28 CB         -3.4486  -17.2410  -42.1945 C.3       9 UNK        -0.1800 
     29 N          -1.3505  -18.5626  -42.1256 N.am      9 UNK        -0.5000 
     30 C          -1.7165  -19.8478  -42.2539 C.2       8 UNK         0.5000 
     31 O          -2.6909  -20.2328  -42.9048 O.2       8 UNK        -0.5000 
     32 CA         -0.7616  -20.8704  -41.6106 C.3       8 UNK         0.1400 
     33 CB         -1.3246  -22.3047  -41.6211 C.3       8 UNK        -0.1800 
     34 N           0.5617  -20.8392  -42.2412 N.am      8 UNK        -0.5000 
     35 C           0.8554  -21.0233  -43.5364 C.2       7 UNK         0.5000 
     36 O           0.0119  -21.2483  -44.4069 O.2       7 UNK        -0.5000 
     37 CA          2.3504  -20.9395  -43.9059 C.3       7 UNK         0.1400 
     38 CB          2.6083  -21.1851  -45.4044 C.3       7 UNK        -0.1800 
     39 N           2.9320  -19.6528  -43.5171 N.am      7 UNK        -0.5000 
     40 C           3.3539  -19.3348  -42.2840 C.2       6 UNK         0.5000 
     41 O           3.2642  -20.1050  -41.3266 O.2       6 UNK        -0.5000 
     42 CA          3.9605  -17.9339  -42.0604 C.3       6 UNK         0.1400 
     43 CB          5.4948  -18.0111  -42.0628 C.3       6 UNK        -0.1800 
     44 N           3.5377  -16.9342  -43.0409 N.am      6 UNK        -0.5000 
     45 C           2.2969  -16.4428  -43.1537 C.2       5 UNK         0.5000 
     46 O           1.3638  -16.7622  -42.4150 O.2       5 UNK        -0.5000 
     47 CA          2.0483  -15.4520  -44.3101 C.3       5 UNK         0.1400 
     48 CB          2.2892  -14.0118  -43.8324 C.3       5 UNK        -0.1800 
     49 N           2.8242  -15.6847  -45.5409 N.am      5 UNK        -0.5000 
     50 C           2.9363  -16.8507  -46.1957 C.2       4 UNK         0.5000 
     51 O           2.5271  -17.9196  -45.7459 O.2       4 UNK        -0.5000 
     52 CA          3.5445  -16.8052  -47.6061 C.3       4 UNK         0.1400 
     53 CB          3.4146  -18.1612  -48.3385 C.3       4 UNK        -0.1800 
     54 N           2.9082  -15.7398  -48.3835 N.am      4 UNK        -0.5000 
     55 C           3.3843  -15.2475  -49.5349 C.2       3 UNK         0.5000 
     56 O           4.4445  -15.6079  -50.0480 O.2       3 UNK        -0.5000 
     57 CA          2.5390  -14.1703  -50.2431 C.3       3 UNK         0.1400 
     58 CB          1.4827  -14.8312  -51.1456 C.3       3 UNK        -0.1800 
     59 N           1.8676  -13.2326  -49.3414 N.am      3 UNK        -0.5000 
     60 C           2.4627  -12.4250  -48.4514 C.2       2 UNK         0.5000 
     61 O           3.6794  -12.3912  -48.2658 O.2       2 UNK        -0.5000 
     62 CA          1.5510  -11.4844  -47.6330 C.3       2 UNK         0.1400 
     63 CB          1.7337  -10.0286  -48.0906 C.3       2 UNK        -0.1800 
     64 N           0.1218  -11.8159  -47.6860 N.am      2 UNK        -0.5000 
     65 C          -0.4252  -12.9148  -47.1513 C.2       1 UNK         0.5000 
     66 O           0.2344  -13.8067  -46.6149 O.2       1 UNK        -0.5000 
     67 C          -3.3213  -22.3897  -46.1129 C.2       11 UNK         0.5000 
     68 O          -2.9295  -23.0199  -47.0959 O.2       11 UNK        -0.5000 
     69 N          -3.5039  -22.9477  -44.9074 N.am      12 UNK        -0.5000 
     70 CA         -3.5563  -24.3938  -44.6673 C.3       12 UNK         0.1400 
     71 CB         -3.9594  -24.6669  -43.2106 C.3       12 UNK        -0.1800 
     72 C          -2.2708  -25.1536  -45.0381 C.2       12 UNK         0.5000 
     73 O          -2.3505  -26.1826  -45.7104 O.2       12 UNK        -0.5000 
     74 N          -1.1107  -24.6142  -44.6407 N.am      13 UNK        -0.5000 
     75 CA          0.1998  -25.1964  -44.9480 C.3       13 UNK         0.1400 
     76 CB          1.2166  -24.7710  -43.8800 C.3       13 UNK        -0.1800 
     77 C           0.6904  -24.8454  -46.3673 C.2       13 UNK         0.5000 
     78 O           1.6419  -25.4627  -46.8449 O.2       13 UNK        -0.5000 
     79 N           0.0136  -23.8986  -47.0308 N.am      14 UNK        -0.5000 
     80 CA          0.2102  -23.5291  -48.4318 C.3       14 UNK         0.1400 
     81 CB          0.0788  -22.0026  -48.5677 C.3       14 UNK        -0.1800 
     82 C          -0.7717  -24.2773  -49.3600 C.2       14 UNK         0.5000 
     83 O          -1.0634  -23.7864  -50.4511 O.2       14 UNK        -0.5000 
     84 N          -1.2695  -25.4419  -48.9130 N.am      15 UNK        -0.5000 
     85 CA         -2.1819  -26.3512  -49.6146 C.3       15 UNK         0.1400 
     86 CB         -1.4905  -26.9640  -50.8514 C.3       15 UNK        -0.1800 
     87 C          -3.5349  -25.6896  -49.9420 C.2       15 UNK         0.5000 
     88 O          -3.9826  -25.7246  -51.0884 O.2       15 UNK        -0.5000 
     89 N          -4.1392  -25.0626  -48.9220 N.am      16 UNK        -0.5000 
     90 CA         -5.3525  -24.2372  -48.9937 C.3       16 UNK         0.1400 
     91 CB         -6.5871  -25.0822  -49.3707 C.3       16 UNK        -0.1800 
     92 C          -5.1449  -23.0078  -49.9027 C.2       16 UNK         0.5000 
     93 O          -5.9898  -22.6955  -50.7426 O.2       16 UNK        -0.5000 
     94 N          -3.9839  -22.3650  -49.7167 N.am      17 UNK        -0.5000 
     95 CA         -3.4649  -21.1844  -50.4107 C.3       17 UNK         0.1400 
     96 CB         -4.3994  -19.9788  -50.2221 C.3       17 UNK        -0.1800 
     97 C          -3.1010  -21.3913  -51.8926 C.2       17 UNK         0.5000 
     98 O          -2.7297  -20.4162  -52.5471 O.2       17 UNK        -0.5000 
     99 N          -3.1592  -22.6324  -52.3961 N.am      18 UNK        -0.5000 
    100 CA        -2.8157  -22.9964  -53.7733 C.3       18 UNK         0.1400 
    101 CB        -3.2201  -24.4550  -54.0283 C.3       18 UNK        -0.1800 
    102 C         -1.3281  -22.7838  -54.1160 C.2       18 UNK         0.5000 
    103 O         -1.0029  -22.5328  -55.2767 O.2       18 UNK        -0.5000 
    104 N         -0.4549  -22.8749  -53.1049 N.am      19 UNK        -0.5000 
    105 CA         0.9750  -22.5829  -53.2062 C.3       19 UNK         0.1400 
    106 CB         1.7391  -23.5416  -52.2774 C.3       19 UNK        -0.1800 
    107 C          1.3032  -21.1129  -52.8674 C.2       19 UNK         0.5000 
    108 O          2.4823  -20.7553  -52.8611 O.2       19 UNK        -0.5000 
    109 N          0.2837  -20.2957  -52.5708 N.am      20 UNK        -0.5000 
    110 CA         0.4089  -18.9006  -52.1660 C.3       20 UNK         0.1400 
    111 CB         0.0437  -18.7738  -50.6733 C.3       20 UNK        -0.1800 
    112 C         -0.4259  -18.0087  -53.1036 C.2       20 UNK         0.5000 
    113 O         -0.1730  -17.9994  -54.3092 O.2       20 UNK        -0.5000 
    114 N         -1.3600  -17.2349  -52.5370 N.am      21 UNK        -0.5000 
    115 CA        -2.0962  -16.1714  -53.2208 C.3       21 UNK         0.1400 
    116 CB        -2.5575  -15.1544  -52.1651 C.3       21 UNK        -0.1800 
    117 C         -3.2965  -16.6488  -54.0620 C.2       21 UNK         0.5000 
    118 O         -3.7938  -15.8629  -54.8707 O.2       21 UNK        -0.5000 
    119 N         -3.7555  -17.8885  -53.8575 N.am      22 UNK        -0.5000 
    120 CA        -4.9227  -18.4793  -54.5327 C.3       22 UNK         0.1400 
    121 C         -4.5180  -19.7017  -55.4092 C.2       22 UNK         0.5000 
    122 N         -5.4704  -20.4866  -55.8978 N.am      22 UNK        -0.7600 
    123 O         -3.3484  -19.9270  -55.7090 O.2       22 UNK        -0.5000 
    124 C124       -6.0626  -18.7813  -53.5181 C.3       23 UNK        -0.0398 
    125 S125       -6.8093  -17.2539  -52.8502 S.3       23 UNK        -0.2404 
    126 C126       -7.7120  -17.8593  -51.3777 C.3       23 UNK        -0.0205 
    127 H127       -2.4274  -14.2463  -43.1579 H         1 UNK         0.0600 
    128 H128       -3.7458  -13.0731  -43.0601 H         1 UNK         0.0600 
    129 H129       -3.9266  -14.5064  -44.0683 H         1 UNK         0.0600 
    130 H130       -2.7714  -14.6308  -46.1056 H         1 UNK         0.3000 
    131 H131       -2.3924  -12.0773  -47.4033 H         1 UNK         0.0600 
    132 H132       -2.0292  -13.2874  -49.4483 H         1 UNK         0.0800 
    133 H133       -1.6678  -14.7748  -48.6347 H         1 UNK         0.0800 
    134 H134       -3.1511  -16.5589  -49.1497 H         1 UNK         0.0800 
    135 H135       -3.5026  -16.2925  -47.4577 H         1 UNK         0.0800 
    136 H136       -5.4341  -16.3823  -50.6838 H         1 UNK         0.1150 
    137 H137       -8.3004  -19.1567  -49.0855 H         1 UNK         0.1150 
    138 H138       -5.1890  -17.5821  -46.5962 H         1 UNK         0.1150 
    139 H139       -8.3861  -19.4730  -46.6687 H         1 UNK         0.0800 
    140 H140       -7.2320  -18.7129  -45.6102 H         1 UNK         0.0800 
    141 H141       -4.8884  -19.3560  -45.3684 H         1 UNK         0.0800 
    142 H142       -4.9502  -20.8261  -44.4799 H         1 UNK         0.0800 
    143 H143       -3.8809  -20.7765  -47.3358 H         1 UNK         0.0600 
    144 H144       -2.1325  -20.1871  -45.0089 H         1 UNK         0.3000 
    145 H145        0.1713  -19.0295  -46.2759 H         1 UNK         0.0600 
    146 H146        0.2584  -16.4820  -46.5725 H         1 UNK         0.0600 
    147 H147       -0.0774  -17.3789  -48.0422 H         1 UNK         0.0600 
    148 H148       -1.3656  -16.5485  -47.1841 H         1 UNK         0.0600 
    149 H149       -0.2732  -18.5195  -44.1745 H         1 UNK         0.3000 
    150 H150       -1.4395  -16.5208  -42.3967 H         1 UNK         0.0600 
    151 H151       -3.8826  -16.2878  -42.4924 H         1 UNK         0.0600 
    152 H152       -3.4734  -17.2783  -41.1055 H         1 UNK         0.0600 
    153 H153       -4.1058  -18.0244  -42.5727 H         1 UNK         0.0600 
    154 H154       -0.4973  -18.3565  -41.6223 H         1 UNK         0.3000 
    155 H155       -0.6277  -20.5733  -40.5694 H         1 UNK         0.0600 
    156 H156       -2.2767  -22.3528  -41.0915 H         1 UNK         0.0600 
    157 H157       -0.6430  -23.0011  -41.1328 H         1 UNK         0.0600 
    158 H158       -1.4955  -22.6596  -42.6357 H         1 UNK         0.0600 
    159 H159        1.3433  -20.6433  -41.6232 H         1 UNK         0.3000 
    160 H160        2.8609  -21.7336  -43.3571 H         1 UNK         0.0600 
    161 H161        2.0891  -20.4612  -46.0311 H         1 UNK         0.0600 
    162 H162        3.6713  -21.1254  -45.6373 H         1 UNK         0.0600 
    163 H163        2.2661  -22.1758  -45.7045 H         1 UNK         0.0600 
    164 H164        2.9586  -18.9450  -44.2478 H         1 UNK         0.3000 
    165 H165        3.6380  -17.5942  -41.0739 H         1 UNK         0.0600 
    166 H166        5.9394  -17.0452  -41.8221 H         1 UNK         0.0600 
    167 H167        5.8521  -18.7254  -41.3198 H         1 UNK         0.0600 
    168 H168        5.8796  -18.3267  -43.0334 H         1 UNK         0.0600 
    169 H169        4.2320  -16.6285  -43.7065 H         1 UNK         0.3000 
    170 H170        0.9936  -15.5417  -44.5751 H         1 UNK         0.0600 
    171 H171        1.7037  -13.7924  -42.9385 H         1 UNK         0.0600 
    172 H172        3.3384  -13.8394  -43.5900 H         1 UNK         0.0600 
    173 H173        1.9970  -13.2880  -44.5929 H         1 UNK         0.0600 
    174 H174        3.1951  -14.8573  -45.9850 H         1 UNK         0.3000 
    175 H175        4.6041  -16.5713  -47.4872 H         1 UNK         0.0600 
    176 H176        2.3694  -18.4374  -48.4805 H         1 UNK         0.0600 
    177 H177        3.8910  -18.1431  -49.3181 H         1 UNK         0.0600 
    178 H178        3.8902  -18.9615  -47.7701 H         1 UNK         0.0600 
    179 H179        2.0453  -15.3672  -48.0089 H         1 UNK         0.3000 
    180 H180        3.2142  -13.5900  -50.8753 H         1 UNK         0.0600 
    181 H181        1.9411  -15.5471  -51.8294 H         1 UNK         0.0600 
    182 H182        0.7344  -15.3680  -50.5619 H         1 UNK         0.0600 
    183 H183        0.9639  -14.0908  -51.7548 H         1 UNK         0.0600 
    184 H184        0.8652  -13.1708  -49.4247 H         1 UNK         0.3000 
    185 H185        1.8722  -11.5559  -46.5918 H         1 UNK         0.0600 
    186 H186        2.7799   -9.7257  -48.0291 H         1 UNK         0.0600 
    187 H187        1.4119   -9.8885  -49.1233 H         1 UNK         0.0600 
    188 H188        1.1632   -9.3428  -47.4638 H         1 UNK         0.0600 
    189 H189       -0.4772  -11.1290  -48.1215 H         1 UNK         0.3000 
    190 H190       -3.7556  -22.3534  -44.1298 H         1 UNK         0.3000 
    191 H191       -4.3514  -24.7884  -45.3037 H         1 UNK         0.0600 
    192 H192       -4.0668  -25.7375  -43.0317 H         1 UNK         0.0600 
    193 H193       -4.9163  -24.2025  -42.9718 H         1 UNK         0.0600 
    194 H194       -3.2196  -24.2930  -42.5042 H         1 UNK         0.0600 
    195 H195       -1.1188  -23.7319  -44.1486 H         1 UNK         0.3000 
    196 H196        0.1174  -26.2845  -44.8998 H         1 UNK         0.0600 
    197 H197        2.1708  -25.2782  -44.0276 H         1 UNK         0.0600 
    198 H198        0.8675  -25.0194  -42.8776 H         1 UNK         0.0600 
    199 H199        1.4100  -23.7035  -43.9144 H         1 UNK         0.0600 
    200 H200       -0.7883  -23.4769  -46.5800 H         1 UNK         0.3000 
    201 H201        1.2177  -23.8046  -48.7487 H         1 UNK         0.0600 
    202 H202        0.7927  -21.4845  -47.9280 H         1 UNK         0.0600 
    203 H203       -0.9194  -21.6627  -48.2965 H         1 UNK         0.0600 
    204 H204        0.2691  -21.6814  -49.5920 H         1 UNK         0.0600 
    205 H205       -1.0019  -25.7318  -47.9833 H         1 UNK         0.3000 
    206 H206       -2.3998  -27.1657  -48.9222 H         1 UNK         0.0600 
    207 H207       -0.5594  -27.4591  -50.5763 H         1 UNK         0.0600 
    208 H208       -2.1279  -27.7118  -51.3246 H         1 UNK         0.0600 
    209 H209       -1.2579  -26.2103  -51.6042 H         1 UNK         0.0600 
    210 H210       -3.6462  -25.0276  -48.0391 H         1 UNK         0.3000 
    211 H211       -5.5204  -23.8476  -47.9885 H         1 UNK         0.0600 
    212 H212       -6.5294  -25.4582  -50.3924 H         1 UNK         0.0600 
    213 H213       -7.4996  -24.4899  -49.2939 H         1 UNK         0.0600 
    214 H214       -6.6980  -25.9370  -48.7037 H         1 UNK         0.0600 
    215 H215       -3.3776  -22.7302  -48.9886 H         1 UNK         0.3000 
    216 H216       -2.5232  -20.9469  -49.9174 H         1 UNK         0.0600 
    217 H217       -4.5379  -19.7464  -49.1698 H         1 UNK         0.0600 
    218 H218       -3.9946  -19.0814  -50.6910 H         1 UNK         0.0600 
    219 H219       -5.3867  -20.1583  -50.6423 H         1 UNK         0.0600 
    220 H220       -3.4299  -23.3888  -51.7816 H         1 UNK         0.3000 
    221 H221       -3.4023  -22.3618  -54.4388 H         1 UNK         0.0600 
    222 H222       -2.6493  -25.1430  -53.4040 H         1 UNK         0.0600 
    223 H223       -4.2788  -24.6143  -53.8223 H         1 UNK         0.0600 
    224 H224       -3.0444  -24.7329  -55.0682 H         1 UNK         0.0600 
    225 H225       -0.7995  -23.1220  -52.1785 H         1 UNK         0.3000 
    226 H226        1.3156  -22.7655  -54.2273 H         1 UNK         0.0600 
    227 H227        1.4693  -24.5803  -52.4692 H         1 UNK         0.0600 
    228 H228        2.8160  -23.4531  -52.4249 H         1 UNK         0.0600 
    229 H229        1.5366  -23.3296  -51.2281 H         1 UNK         0.0600 
    230 H230       -0.6664  -20.6341  -52.6761 H         1 UNK         0.3000 
    231 H231        1.4404  -18.5612  -52.2793 H         1 UNK         0.0600 
    232 H232       -0.9780  -19.0973  -50.4722 H         1 UNK         0.0600 
    233 H233        0.7081  -19.3800  -50.0587 H         1 UNK         0.0600 
    234 H234        0.1494  -17.7458  -50.3282 H         1 UNK         0.0600 
    235 H235       -1.5297  -17.3338  -51.5475 H         1 UNK         0.3000 
    236 H236       -1.4109  -15.6598  -53.9001 H         1 UNK         0.0600 
    237 H237       -3.2555  -15.6035  -51.4591 H         1 UNK         0.0600 
    238 H238       -1.7140  -14.7568  -51.6011 H         1 UNK         0.0600 
    239 H239       -3.0638  -14.3072  -52.6293 H         1 UNK         0.0600 
    240 H240       -3.2355  -18.5229  -53.2608 H         1 UNK         0.3000 
    241 H241       -5.3191  -17.7680  -55.2589 H         1 UNK         0.0600 
    242 H242       -5.2039  -21.2572  -56.4903 H         1 UNK         0.3800 
    243 H243       -6.4482  -20.3165  -55.7246 H         1 UNK         0.3800 
    244 H244       -5.6873  -19.3992  -52.7053 H         1 UNK         0.0800 
    245 H245       -6.8731  -19.3449  -53.9802 H         1 UNK         0.0800 
    246 H246       -8.0308  -18.8875  -51.5557 H         1 UNK         0.0800 
    247 H247       -8.6247  -17.2702  -51.2812 H         1 UNK         0.0800 
@<TRIPOS>BOND
     1    1    2 1    
     2    1  127 1    
     3    1  128 1    
     4    1  129 1    
     5    2    3 2    
     6    2    4 am   BACKBONE|DICT|INTERRES
     7    4    5 1    
     8    4  130 1    
     9    5    6 1    
    10    5   65 1    
    11    5  131 1    
    12    6    7 1    
    13    6  132 1    
    14    6  133 1    
    15    7    8 1    
    16    8    9 1    
    17    8  134 1    
    18    8  135 1    
    19    9   10 ar   
    20    9   14 ar   
    21   10   11 ar   
    22   10  136 1    
    23   11   12 ar   
    24   11  126 1    
    25   12   13 ar   
    26   12  137 1    
    27   13   14 ar   
    28   13   15 1    
    29   14  138 1    
    30   15   16 1    
    31   15  139 1    
    32   15  140 1    
    33   16   17 1    
    34   17   18 1    
    35   17  141 1    
    36   17  142 1    
    37   18   19 1    
    38   18   67 1    
    39   18  143 1    
    40   19   20 am   BACKBONE|DICT|INTERRES
    41   19  144 1    
    42   20   21 2    
    43   20   22 1    
    44   22   23 1    
    45   22   24 1    
    46   22  145 1    
    47   23  146 1    
    48   23  147 1    
    49   23  148 1    
    50   24   25 am   BACKBONE|DICT|INTERRES
    51   24  149 1    
    52   25   26 2    
    53   25   27 1    
    54   27   28 1    
    55   27   29 1    
    56   27  150 1    
    57   28  151 1    
    58   28  152 1    
    59   28  153 1    
    60   29   30 am   BACKBONE|DICT|INTERRES
    61   29  154 1    
    62   30   31 2    
    63   30   32 1    
    64   32   33 1    
    65   32   34 1    
    66   32  155 1    
    67   33  156 1    
    68   33  157 1    
    69   33  158 1    
    70   34   35 am   BACKBONE|DICT|INTERRES
    71   34  159 1    
    72   35   36 2    
    73   35   37 1    
    74   37   38 1    
    75   37   39 1    
    76   37  160 1    
    77   38  161 1    
    78   38  162 1    
    79   38  163 1    
    80   39   40 am   BACKBONE|DICT|INTERRES
    81   39  164 1    
    82   40   41 2    
    83   40   42 1    
    84   42   43 1    
    85   42   44 1    
    86   42  165 1    
    87   43  166 1    
    88   43  167 1    
    89   43  168 1    
    90   44   45 am   BACKBONE|DICT|INTERRES
    91   44  169 1    
    92   45   46 2    
    93   45   47 1    
    94   47   48 1    
    95   47   49 1    
    96   47  170 1    
    97   48  171 1    
    98   48  172 1    
    99   48  173 1    
   100   49   50 am   BACKBONE|DICT|INTERRES
   101   49  174 1    
   102   50   51 2    
   103   50   52 1    
   104   52   53 1    
   105   52   54 1    
   106   52  175 1    
   107   53  176 1    
   108   53  177 1    
   109   53  178 1    
   110   54   55 am   BACKBONE|DICT|INTERRES
   111   54  179 1    
   112   55   56 2    
   113   55   57 1    
   114   57   58 1    
   115   57   59 1    
   116   57  180 1    
   117   58  181 1    
   118   58  182 1    
   119   58  183 1    
   120   59   60 am   BACKBONE|DICT|INTERRES
   121   59  184 1    
   122   60   61 2    
   123   60   62 1    
   124   62   63 1    
   125   62   64 1    
   126   62  185 1    
   127   63  186 1    
   128   63  187 1    
   129   63  188 1    
   130   64   65 am   BACKBONE|DICT|INTERRES
   131   64  189 1    
   132   65   66 2    
   133   67   68 2    
   134   67   69 am   BACKBONE|DICT|INTERRES
   135   69   70 1    
   136   69  190 1    
   137   70   71 1    
   138   70   72 1    
   139   70  191 1    
   140   71  192 1    
   141   71  193 1    
   142   71  194 1    
   143   72   73 2    
   144   72   74 am   BACKBONE|DICT|INTERRES
   145   74   75 1    
   146   74  195 1    
   147   75   76 1    
   148   75   77 1    
   149   75  196 1    
   150   76  197 1    
   151   76  198 1    
   152   76  199 1    
   153   77   78 2    
   154   77   79 am   BACKBONE|DICT|INTERRES
   155   79   80 1    
   156   79  200 1    
   157   80   81 1    
   158   80   82 1    
   159   80  201 1    
   160   81  202 1    
   161   81  203 1    
   162   81  204 1    
   163   82   83 2    
   164   82   84 am   BACKBONE|DICT|INTERRES
   165   84   85 1    
   166   84  205 1    
   167   85   86 1    
   168   85   87 1    
   169   85  206 1    
   170   86  207 1    
   171   86  208 1    
   172   86  209 1    
   173   87   88 2    
   174   87   89 am   BACKBONE|DICT|INTERRES
   175   89   90 1    
   176   89  210 1    
   177   90   91 1    
   178   90   92 1    
   179   90  211 1    
   180   91  212 1    
   181   91  213 1    
   182   91  214 1    
   183   92   93 2    
   184   92   94 am   BACKBONE|DICT|INTERRES
   185   94   95 1    
   186   94  215 1    
   187   95   96 1    
   188   95   97 1    
   189   95  216 1    
   190   96  217 1    
   191   96  218 1    
   192   96  219 1    
   193   97   98 2    
   194   97   99 am   BACKBONE|DICT|INTERRES
   195   99  100 1    
   196   99  220 1    
   197  100  101 1    
   198  100  102 1    
   199  100  221 1    
   200  101  222 1    
   201  101  223 1    
   202  101  224 1    
   203  102  103 2    
   204  102  104 am   BACKBONE|DICT|INTERRES
   205  104  105 1    
   206  104  225 1    
   207  105  106 1    
   208  105  107 1    
   209  105  226 1    
   210  106  227 1    
   211  106  228 1    
   212  106  229 1    
   213  107  108 2    
   214  107  109 am   BACKBONE|DICT|INTERRES
   215  109  110 1    
   216  109  230 1    
   217  110  111 1    
   218  110  112 1    
   219  110  231 1    
   220  111  232 1    
   221  111  233 1    
   222  111  234 1    
   223  112  113 2    
   224  112  114 am   BACKBONE|DICT|INTERRES
   225  114  115 1    
   226  114  235 1    
   227  115  116 1    
   228  115  117 1    
   229  115  236 1    
   230  116  237 1    
   231  116  238 1    
   232  116  239 1    
   233  117  118 2    
   234  117  119 am   BACKBONE|DICT|INTERRES
   235  119  120 1    
   236  119  240 1    
   237  120  121 1    
   238  120  124 1    
   239  120  241 1    
   240  121  122 am   BACKBONE|DICT|INTERRES
   241  121  123 2    
   242  122  242 1    
   243  122  243 1    
   244  124  125 1    
   245  124  244 1    
   246  124  245 1    
   247  125  126 1    
   248  126  246 1    
   249  126  247 1    
@<TRIPOS>SUBSTRUCTURE
     1 UNK         1 GROUP             0       ****    0 ROOT    
