@<TRIPOS>MOLECULE
3R540
247   249    1
SMALL
USER_CHARGES


@<TRIPOS>ATOM
      1 CA         -3.4727  -17.2545  -42.5186 C.3       0 UNK        -0.1800 
      2 C          -3.7569  -17.3283  -44.0116 C.2       0 UNK         0.5000 
      3 O          -4.8991  -17.5568  -44.4091 O.2       0 UNK        -0.5000 
      4 N          -2.7212  -17.1446  -44.8388 N.am      1 UNK        -0.5000 
      5 CA         -2.8157  -17.1753  -46.3032 C.3       1 UNK         0.1400 
      6 C6         -1.4936  -17.6202  -46.9649 C.3       23 UNK        -0.0398 
      7 S7         -0.0295  -16.5947  -46.5868 S.3       23 UNK        -0.2404 
      8 C8          0.2610  -15.7422  -48.1741 C.3       23 UNK        -0.0205 
      9 C9          0.4223  -16.6905  -49.3596 C.ar      23 UNK        -0.0193 
     10 C10        -0.2294  -16.4131  -50.5643 C.ar      23 UNK        -0.1150 
     11 C11        -0.1222  -17.2756  -51.6603 C.ar      23 UNK        -0.0193 
     12 C12         0.6626  -18.4309  -51.5362 C.ar      23 UNK        -0.1150 
     13 C13         1.3039  -18.7335  -50.3322 C.ar      23 UNK        -0.0193 
     14 C14         1.1958  -17.8500  -49.2571 C.ar      23 UNK        -0.1150 
     15 C15         2.0986  -20.0229  -50.1776 C.3       23 UNK        -0.0205 
     16 S16         1.0372  -21.4448  -49.7461 S.3       23 UNK        -0.2404 
     17 C17         0.2738  -20.8838  -48.1909 C.3       23 UNK        -0.0398 
     18 CA         -0.5812  -21.9808  -47.5182 C.3       11 UNK         0.1400 
     19 N           0.2056  -23.1254  -47.0591 N.am      11 UNK        -0.5000 
     20 C          -0.3212  -24.2761  -46.6173 C.2       10 UNK         0.5000 
     21 O          -1.5289  -24.5084  -46.5779 O.2       10 UNK        -0.5000 
     22 CA          0.6721  -25.3155  -46.0738 C.3       10 UNK         0.1400 
     23 CB          1.3656  -26.0579  -47.2260 C.3       10 UNK        -0.1800 
     24 N           1.6784  -24.7078  -45.2013 N.am      10 UNK        -0.5000 
     25 C           1.4054  -24.1202  -44.0271 C.2       9 UNK         0.5000 
     26 O           0.2787  -24.0591  -43.5350 O.2       9 UNK        -0.5000 
     27 CA          2.5848  -23.4430  -43.3068 C.3       9 UNK         0.1400 
     28 CB          3.3724  -24.4669  -42.4759 C.3       9 UNK        -0.1800 
     29 N           3.4982  -22.7452  -44.2172 N.am      9 UNK        -0.5000 
     30 C           3.1546  -21.6964  -44.9750 C.2       8 UNK         0.5000 
     31 O           2.0106  -21.2386  -45.0391 O.2       8 UNK        -0.5000 
     32 CA          4.2597  -21.0598  -45.8222 C.3       8 UNK         0.1400 
     33 CB          4.2921  -21.6677  -47.2334 C.3       8 UNK        -0.1800 
     34 N           3.9795  -19.6316  -45.8928 N.am      8 UNK        -0.5000 
     35 C           4.8975  -18.6626  -45.9614 C.2       7 UNK         0.5000 
     36 O           6.0987  -18.8725  -46.1356 O.2       7 UNK        -0.5000 
     37 CA          4.4045  -17.2123  -45.7761 C.3       7 UNK         0.1400 
     38 CB          4.2896  -16.4940  -47.1292 C.3       7 UNK        -0.1800 
     39 N           3.1322  -17.0877  -45.0540 N.am      7 UNK        -0.5000 
     40 C           2.9519  -17.3880  -43.7594 C.2       6 UNK         0.5000 
     41 O           3.8293  -17.8646  -43.0383 O.2       6 UNK        -0.5000 
     42 CA          1.5833  -17.0107  -43.1731 C.3       6 UNK         0.1400 
     43 CB          1.4005  -17.4392  -41.7036 C.3       6 UNK        -0.1800 
     44 N           1.4348  -15.5646  -43.2994 N.am      6 UNK        -0.5000 
     45 C           0.2771  -14.9046  -43.3725 C.2       5 UNK         0.5000 
     46 O          -0.8297  -15.4457  -43.3277 O.2       5 UNK        -0.5000 
     47 CA          0.3831  -13.3912  -43.5976 C.3       5 UNK         0.1400 
     48 CB          0.2182  -13.0777  -45.0910 C.3       5 UNK        -0.1800 
     49 N          -0.6626  -12.7018  -42.8449 N.am      5 UNK        -0.5000 
     50 C          -0.4411  -11.8498  -41.8344 C.2       4 UNK         0.5000 
     51 O           0.6870  -11.5468  -41.4399 O.2       4 UNK        -0.5000 
     52 CA         -1.6794  -11.2412  -41.1357 C.3       4 UNK         0.1400 
     53 CB         -1.3748   -9.9019  -40.4311 C.3       4 UNK        -0.1800 
     54 N          -2.8518  -11.1130  -42.0080 N.am      4 UNK        -0.5000 
     55 C          -2.9652  -10.3811  -43.1259 C.2       3 UNK         0.5000 
     56 O          -2.0798   -9.6527  -43.5784 O.2       3 UNK        -0.5000 
     57 CA         -4.2974  -10.5344  -43.8888 C.3       3 UNK         0.1400 
     58 CB         -4.8420   -9.1719  -44.3498 C.3       3 UNK        -0.1800 
     59 N          -4.1833  -11.4195  -45.0516 N.am      3 UNK        -0.5000 
     60 C          -3.7445  -12.6850  -45.0346 C.2       2 UNK         0.5000 
     61 O          -3.3753  -13.2700  -44.0105 O.2       2 UNK        -0.5000 
     62 CA         -3.7242  -13.4294  -46.3801 C.3       2 UNK         0.1400 
     63 CB         -2.8876  -12.7031  -47.4534 C.3       2 UNK        -0.1800 
     64 N          -3.1960  -14.7627  -46.1270 N.am      2 UNK        -0.5000 
     65 C          -3.3459  -15.8497  -46.8873 C.2       1 UNK         0.5000 
     66 O          -3.8953  -15.8446  -47.9886 O.2       1 UNK        -0.5000 
     67 C          -1.4145  -21.3767  -46.3754 C.2       11 UNK         0.5000 
     68 O          -2.5782  -21.0507  -46.5978 O.2       11 UNK        -0.5000 
     69 N          -0.8221  -21.2359  -45.1828 N.am      12 UNK        -0.5000 
     70 CA         -1.4865  -20.7054  -43.9927 C.3       12 UNK         0.1400 
     71 CB         -0.4548  -20.5044  -42.8745 C.3       12 UNK        -0.1800 
     72 C          -2.6531  -21.5896  -43.5177 C.2       12 UNK         0.5000 
     73 O          -3.7054  -21.0616  -43.1594 O.2       12 UNK        -0.5000 
     74 N          -2.4564  -22.9145  -43.5566 N.am      13 UNK        -0.5000 
     75 CA         -3.4715  -23.9121  -43.2216 C.3       13 UNK         0.1400 
     76 CB         -2.8028  -25.2876  -43.0754 C.3       13 UNK        -0.1800 
     77 C          -4.6133  -23.9714  -44.2531 C.2       13 UNK         0.5000 
     78 O          -5.7790  -24.0538  -43.8646 O.2       13 UNK        -0.5000 
     79 N          -4.2605  -23.9324  -45.5448 N.am      14 UNK        -0.5000 
     80 CA         -5.2001  -24.0535  -46.6616 C.3       14 UNK         0.1400 
     81 CB         -4.4396  -24.6064  -47.8751 C.3       14 UNK        -0.1800 
     82 C          -5.9076  -22.7373  -47.0377 C.2       14 UNK         0.5000 
     83 O          -6.8242  -22.7736  -47.8574 O.2       14 UNK        -0.5000 
     84 N          -5.4525  -21.6042  -46.4840 N.am      15 UNK        -0.5000 
     85 CA         -5.8399  -20.2321  -46.8353 C.3       15 UNK         0.1400 
     86 CB         -7.3171  -19.9547  -46.4880 C.3       15 UNK        -0.1800 
     87 C          -5.4765  -19.9061  -48.3008 C.2       15 UNK         0.5000 
     88 O          -6.3258  -19.4791  -49.0831 O.2       15 UNK        -0.5000 
     89 N          -4.2090  -20.1825  -48.6384 N.am      16 UNK        -0.5000 
     90 CA         -3.5319  -20.0610  -49.9359 C.3       16 UNK         0.1400 
     91 CB         -3.6196  -18.6300  -50.4984 C.3       16 UNK        -0.1800 
     92 C          -3.9451  -21.1057  -50.9918 C.2       16 UNK         0.5000 
     93 O          -3.2594  -21.2186  -52.0079 O.2       16 UNK        -0.5000 
     94 N          -5.0028  -21.8934  -50.7455 N.am      17 UNK        -0.5000 
     95 CA         -5.5519  -22.8810  -51.6854 C.3       17 UNK         0.1400 
     96 CB         -6.8823  -23.4202  -51.1408 C.3       17 UNK        -0.1800 
     97 C          -4.5968  -24.0412  -52.0383 C.2       17 UNK         0.5000 
     98 O          -4.7992  -24.6959  -53.0607 O.2       17 UNK        -0.5000 
     99 N          -3.5610  -24.2546  -51.2138 N.am      18 UNK        -0.5000 
    100 CA        -2.4587  -25.1832  -51.4735 C.3       18 UNK         0.1400 
    101 CB        -1.6108  -25.3291  -50.1987 C.3       18 UNK        -0.1800 
    102 C         -1.5702  -24.7431  -52.6549 C.2       18 UNK         0.5000 
    103 O         -1.0152  -25.5993  -53.3446 O.2       18 UNK        -0.5000 
    104 N         -1.4551  -23.4250  -52.8615 N.am      19 UNK        -0.5000 
    105 CA        -0.6912  -22.8052  -53.9427 C.3       19 UNK         0.1400 
    106 CB         0.1375  -21.6634  -53.3484 C.3       19 UNK        -0.1800 
    107 C         -1.6053  -22.2935  -55.0712 C.2       19 UNK         0.5000 
    108 O         -1.1624  -22.2398  -56.2197 O.2       19 UNK        -0.5000 
    109 N         -2.8591  -21.9559  -54.7319 N.am      20 UNK        -0.5000 
    110 CA        -3.9713  -21.5676  -55.6028 C.3       20 UNK         0.1400 
    111 CB        -4.4220  -22.7575  -56.4762 C.3       20 UNK        -0.1800 
    112 C         -3.6832  -20.2927  -56.4178 C.2       20 UNK         0.5000 
    113 O         -4.0360  -19.1995  -55.9749 O.2       20 UNK        -0.5000 
    114 N         -3.0566  -20.4535  -57.5906 N.am      21 UNK        -0.5000 
    115 CA        -2.5948  -19.3609  -58.4478 C.3       21 UNK         0.1400 
    116 CB        -2.3177  -19.9134  -59.8544 C.3       21 UNK        -0.1800 
    117 C         -1.3437  -18.6558  -57.8875 C.2       21 UNK         0.5000 
    118 O         -1.1328  -17.4793  -58.1845 O.2       21 UNK        -0.5000 
    119 N         -0.5488  -19.3836  -57.0895 N.am      22 UNK        -0.5000 
    120 CA         0.6468  -18.9039  -56.3709 C.3       22 UNK         0.1400 
    121 C          1.8589  -18.5325  -57.2799 C.2       22 UNK         0.5000 
    122 N          1.8932  -18.9496  -58.5397 N.am      22 UNK        -0.7600 
    123 O          2.8016  -17.8845  -56.8329 O.2       22 UNK        -0.5000 
    124 C124        0.3344  -17.8012  -55.3165 C.3       23 UNK        -0.0398 
    125 S125       -1.0348  -18.2339  -54.1876 S.3       23 UNK        -0.2404 
    126 C126       -0.8880  -16.9127  -52.9354 C.3       23 UNK        -0.0205 
    127 H127       -3.7809  -16.2856  -42.1258 H         1 UNK         0.0600 
    128 H128       -2.4122  -17.3909  -42.3056 H         1 UNK         0.0600 
    129 H129       -4.0227  -18.0337  -41.9906 H         1 UNK         0.0600 
    130 H130       -1.8287  -16.8536  -44.4513 H         1 UNK         0.3000 
    131 H131       -3.5540  -17.9329  -46.5710 H         1 UNK         0.0600 
    132 H132       -1.6301  -17.7159  -48.0418 H         1 UNK         0.0800 
    133 H133       -1.2549  -18.6212  -46.6171 H         1 UNK         0.0800 
    134 H134        1.1623  -15.1345  -48.0868 H         1 UNK         0.0800 
    135 H135       -0.5644  -15.0492  -48.3456 H         1 UNK         0.0800 
    136 H136       -0.8360  -15.5220  -50.6482 H         1 UNK         0.1150 
    137 H137        0.7721  -19.1115  -52.3650 H         1 UNK         0.1150 
    138 H138        1.6867  -18.0879  -48.3254 H         1 UNK         0.1150 
    139 H139        2.6213  -20.2447  -51.1091 H         1 UNK         0.0800 
    140 H140        2.8720  -19.9013  -49.4180 H         1 UNK         0.0800 
    141 H141       -0.3504  -20.0236  -48.4351 H         1 UNK         0.0800 
    142 H142        1.0515  -20.5233  -47.5158 H         1 UNK         0.0800 
    143 H143       -1.2912  -22.3522  -48.2606 H         1 UNK         0.0600 
    144 H144        1.2063  -23.0051  -47.0325 H         1 UNK         0.3000 
    145 H145        0.1069  -26.0427  -45.4868 H         1 UNK         0.0600 
    146 H146        2.0144  -26.8494  -46.8505 H         1 UNK         0.0600 
    147 H147        0.6325  -26.5251  -47.8852 H         1 UNK         0.0600 
    148 H148        1.9726  -25.3864  -47.8347 H         1 UNK         0.0600 
    149 H149        2.6327  -24.7096  -45.5293 H         1 UNK         0.3000 
    150 H150        2.1679  -22.7009  -42.6226 H         1 UNK         0.0600 
    151 H151        2.7172  -24.9888  -41.7770 H         1 UNK         0.0600 
    152 H152        4.1514  -23.9817  -41.8875 H         1 UNK         0.0600 
    153 H153        3.8467  -25.2201  -43.1062 H         1 UNK         0.0600 
    154 H154        4.4555  -23.0668  -44.2270 H         1 UNK         0.3000 
    155 H155        5.2201  -21.2232  -45.3285 H         1 UNK         0.0600 
    156 H156        3.3268  -21.5815  -47.7304 H         1 UNK         0.0600 
    157 H157        4.5473  -22.7272  -47.1960 H         1 UNK         0.0600 
    158 H158        5.0364  -21.1757  -47.8597 H         1 UNK         0.0600 
    159 H159        3.0173  -19.3878  -45.6980 H         1 UNK         0.3000 
    160 H160        5.1645  -16.6929  -45.1884 H         1 UNK         0.0600 
    161 H161        5.2433  -16.5055  -47.6583 H         1 UNK         0.0600 
    162 H162        4.0033  -15.4500  -47.0011 H         1 UNK         0.0600 
    163 H163        3.5540  -16.9666  -47.7771 H         1 UNK         0.0600 
    164 H164        2.3569  -16.6941  -45.5701 H         1 UNK         0.3000 
    165 H165        0.8243  -17.5113  -43.7776 H         1 UNK         0.0600 
    166 H166        0.3878  -17.2337  -41.3566 H         1 UNK         0.0600 
    167 H167        1.5746  -18.5085  -41.5799 H         1 UNK         0.0600 
    168 H168        2.0933  -16.9152  -41.0443 H         1 UNK         0.0600 
    169 H169        2.3015  -15.0498  -43.3779 H         1 UNK         0.3000 
    170 H170        1.3733  -13.0540  -43.2848 H         1 UNK         0.0600 
    171 H171        1.0501  -13.4817  -45.6690 H         1 UNK         0.0600 
    172 H172       -0.6945  -13.5207  -45.4860 H         1 UNK         0.0600 
    173 H173        0.1815  -12.0034  -45.2726 H         1 UNK         0.0600 
    174 H174       -1.6176  -12.9487  -43.0889 H         1 UNK         0.3000 
    175 H175       -1.9604  -11.9574  -40.3624 H         1 UNK         0.0600 
    176 H176       -1.0143   -9.1482  -41.1317 H         1 UNK         0.0600 
    177 H177       -2.2620   -9.5048  -39.9379 H         1 UNK         0.0600 
    178 H178       -0.6094  -10.0269  -39.6643 H         1 UNK         0.0600 
    179 H179       -3.6234  -11.7221  -41.7727 H         1 UNK         0.3000 
    180 H180       -5.0345  -10.9726  -43.2128 H         1 UNK         0.0600 
    181 H181       -5.8311   -9.2726  -44.7971 H         1 UNK         0.0600 
    182 H182       -4.1873   -8.7026  -45.0853 H         1 UNK         0.0600 
    183 H183       -4.9357   -8.4846  -43.5080 H         1 UNK         0.0600 
    184 H184       -4.4483  -11.0144  -45.9373 H         1 UNK         0.3000 
    185 H185       -4.7558  -13.5226  -46.7250 H         1 UNK         0.0600 
    186 H186       -2.8249  -13.2865  -48.3719 H         1 UNK         0.0600 
    187 H187       -3.3347  -11.7448  -47.7181 H         1 UNK         0.0600 
    188 H188       -1.8709  -12.5041  -47.1183 H         1 UNK         0.0600 
    189 H189       -2.7936  -14.8666  -45.2015 H         1 UNK         0.3000 
    190 H190        0.1641  -21.4669  -45.0889 H         1 UNK         0.3000 
    191 H191       -1.8952  -19.7289  -44.2537 H         1 UNK         0.0600 
    192 H192       -0.9057  -20.0154  -42.0102 H         1 UNK         0.0600 
    193 H193        0.3707  -19.8794  -43.2121 H         1 UNK         0.0600 
    194 H194       -0.0363  -21.4527  -42.5371 H         1 UNK         0.0600 
    195 H195       -1.5393  -23.2668  -43.8140 H         1 UNK         0.3000 
    196 H196       -3.9067  -23.6429  -42.2569 H         1 UNK         0.0600 
    197 H197       -2.3109  -25.5965  -43.9988 H         1 UNK         0.0600 
    198 H198       -2.0513  -25.2773  -42.2857 H         1 UNK         0.0600 
    199 H199       -3.5348  -26.0543  -42.8187 H         1 UNK         0.0600 
    200 H200       -3.2740  -23.9140  -45.7861 H         1 UNK         0.3000 
    201 H201       -5.9757  -24.7743  -46.3945 H         1 UNK         0.0600 
    202 H202       -3.6709  -23.9106  -48.2128 H         1 UNK         0.0600 
    203 H203       -5.1117  -24.7941  -48.7119 H         1 UNK         0.0600 
    204 H204       -3.9548  -25.5529  -47.6358 H         1 UNK         0.0600 
    205 H205       -4.6545  -21.6821  -45.8665 H         1 UNK         0.3000 
    206 H206       -5.2312  -19.5788  -46.2103 H         1 UNK         0.0600 
    207 H207       -7.5255  -20.1904  -45.4445 H         1 UNK         0.0600 
    208 H208       -7.5565  -18.9012  -46.6367 H         1 UNK         0.0600 
    209 H209       -8.0019  -20.5344  -47.1073 H         1 UNK         0.0600 
    210 H210       -3.6241  -20.5558  -47.8903 H         1 UNK         0.3000 
    211 H211       -2.4789  -20.2571  -49.7306 H         1 UNK         0.0600 
    212 H212       -2.9977  -18.5269  -51.3883 H         1 UNK         0.0600 
    213 H213       -3.2705  -17.8946  -49.7750 H         1 UNK         0.0600 
    214 H214       -4.6372  -18.3640  -50.7839 H         1 UNK         0.0600 
    215 H215       -5.5293  -21.7387  -49.8963 H         1 UNK         0.3000 
    216 H216       -5.7637  -22.3528  -52.6173 H         1 UNK         0.0600 
    217 H217       -6.7401  -24.0054  -50.2331 H         1 UNK         0.0600 
    218 H218       -7.3685  -24.0676  -51.8715 H         1 UNK         0.0600 
    219 H219       -7.5756  -22.6102  -50.9129 H         1 UNK         0.0600 
    220 H220       -3.4826  -23.6728  -50.3949 H         1 UNK         0.3000 
    221 H221       -2.8830  -26.1587  -51.7200 H         1 UNK         0.0600 
    222 H222       -2.1956  -25.7414  -49.3772 H         1 UNK         0.0600 
    223 H223       -1.2000  -24.3724  -49.8735 H         1 UNK         0.0600 
    224 H224       -0.7707  -26.0052  -50.3633 H         1 UNK         0.0600 
    225 H225       -1.9796  -22.7902  -52.2715 H         1 UNK         0.3000 
    226 H226       -0.0008  -23.5269  -54.3839 H         1 UNK         0.0600 
    227 H227       -0.4992  -20.9340  -52.8473 H         1 UNK         0.0600 
    228 H228        0.8542  -22.0423  -52.6210 H         1 UNK         0.0600 
    229 H229        0.7081  -21.1455  -54.1158 H         1 UNK         0.0600 
    230 H230       -3.0634  -21.8951  -53.7388 H         1 UNK         0.3000 
    231 H231       -4.8012  -21.3249  -54.9372 H         1 UNK         0.0600 
    232 H232       -3.6220  -23.1358  -57.1128 H         1 UNK         0.0600 
    233 H233       -5.2530  -22.4745  -57.1235 H         1 UNK         0.0600 
    234 H234       -4.7645  -23.5849  -55.8543 H         1 UNK         0.0600 
    235 H235       -2.7650  -21.3865  -57.8464 H         1 UNK         0.3000 
    236 H236       -3.3905  -18.6166  -58.5226 H         1 UNK         0.0600 
    237 H237       -3.2150  -20.3555  -60.2878 H         1 UNK         0.0600 
    238 H238       -1.9893  -19.1205  -60.5277 H         1 UNK         0.0600 
    239 H239       -1.5394  -20.6774  -59.8412 H         1 UNK         0.0600 
    240 H240       -0.8088  -20.3472  -56.9074 H         1 UNK         0.3000 
    241 H241        1.0027  -19.7722  -55.8209 H         1 UNK         0.0600 
    242 H242        2.6838  -18.7158  -59.1198 H         1 UNK         0.3800 
    243 H243        1.1335  -19.4908  -58.9199 H         1 UNK         0.3800 
    244 H244        0.0866  -16.8615  -55.8120 H         1 UNK         0.0800 
    245 H245        1.2184  -17.6026  -54.7081 H         1 UNK         0.0800 
    246 H246       -0.4329  -16.0293  -53.3850 H         1 UNK         0.0800 
    247 H247       -1.9016  -16.6211  -52.6568 H         1 UNK         0.0800 
@<TRIPOS>BOND
     1    1    2 1    
     2    1  127 1    
     3    1  128 1    
     4    1  129 1    
     5    2    3 2    
     6    2    4 am   BACKBONE|DICT|INTERRES
     7    4    5 1    
     8    4  130 1    
     9    5    6 1    
    10    5   65 1    
    11    5  131 1    
    12    6    7 1    
    13    6  132 1    
    14    6  133 1    
    15    7    8 1    
    16    8    9 1    
    17    8  134 1    
    18    8  135 1    
    19    9   10 ar   
    20    9   14 ar   
    21   10   11 ar   
    22   10  136 1    
    23   11   12 ar   
    24   11  126 1    
    25   12   13 ar   
    26   12  137 1    
    27   13   14 ar   
    28   13   15 1    
    29   14  138 1    
    30   15   16 1    
    31   15  139 1    
    32   15  140 1    
    33   16   17 1    
    34   17   18 1    
    35   17  141 1    
    36   17  142 1    
    37   18   19 1    
    38   18   67 1    
    39   18  143 1    
    40   19   20 am   BACKBONE|DICT|INTERRES
    41   19  144 1    
    42   20   21 2    
    43   20   22 1    
    44   22   23 1    
    45   22   24 1    
    46   22  145 1    
    47   23  146 1    
    48   23  147 1    
    49   23  148 1    
    50   24   25 am   BACKBONE|DICT|INTERRES
    51   24  149 1    
    52   25   26 2    
    53   25   27 1    
    54   27   28 1    
    55   27   29 1    
    56   27  150 1    
    57   28  151 1    
    58   28  152 1    
    59   28  153 1    
    60   29   30 am   BACKBONE|DICT|INTERRES
    61   29  154 1    
    62   30   31 2    
    63   30   32 1    
    64   32   33 1    
    65   32   34 1    
    66   32  155 1    
    67   33  156 1    
    68   33  157 1    
    69   33  158 1    
    70   34   35 am   BACKBONE|DICT|INTERRES
    71   34  159 1    
    72   35   36 2    
    73   35   37 1    
    74   37   38 1    
    75   37   39 1    
    76   37  160 1    
    77   38  161 1    
    78   38  162 1    
    79   38  163 1    
    80   39   40 am   BACKBONE|DICT|INTERRES
    81   39  164 1    
    82   40   41 2    
    83   40   42 1    
    84   42   43 1    
    85   42   44 1    
    86   42  165 1    
    87   43  166 1    
    88   43  167 1    
    89   43  168 1    
    90   44   45 am   BACKBONE|DICT|INTERRES
    91   44  169 1    
    92   45   46 2    
    93   45   47 1    
    94   47   48 1    
    95   47   49 1    
    96   47  170 1    
    97   48  171 1    
    98   48  172 1    
    99   48  173 1    
   100   49   50 am   BACKBONE|DICT|INTERRES
   101   49  174 1    
   102   50   51 2    
   103   50   52 1    
   104   52   53 1    
   105   52   54 1    
   106   52  175 1    
   107   53  176 1    
   108   53  177 1    
   109   53  178 1    
   110   54   55 am   BACKBONE|DICT|INTERRES
   111   54  179 1    
   112   55   56 2    
   113   55   57 1    
   114   57   58 1    
   115   57   59 1    
   116   57  180 1    
   117   58  181 1    
   118   58  182 1    
   119   58  183 1    
   120   59   60 am   BACKBONE|DICT|INTERRES
   121   59  184 1    
   122   60   61 2    
   123   60   62 1    
   124   62   63 1    
   125   62   64 1    
   126   62  185 1    
   127   63  186 1    
   128   63  187 1    
   129   63  188 1    
   130   64   65 am   BACKBONE|DICT|INTERRES
   131   64  189 1    
   132   65   66 2    
   133   67   68 2    
   134   67   69 am   BACKBONE|DICT|INTERRES
   135   69   70 1    
   136   69  190 1    
   137   70   71 1    
   138   70   72 1    
   139   70  191 1    
   140   71  192 1    
   141   71  193 1    
   142   71  194 1    
   143   72   73 2    
   144   72   74 am   BACKBONE|DICT|INTERRES
   145   74   75 1    
   146   74  195 1    
   147   75   76 1    
   148   75   77 1    
   149   75  196 1    
   150   76  197 1    
   151   76  198 1    
   152   76  199 1    
   153   77   78 2    
   154   77   79 am   BACKBONE|DICT|INTERRES
   155   79   80 1    
   156   79  200 1    
   157   80   81 1    
   158   80   82 1    
   159   80  201 1    
   160   81  202 1    
   161   81  203 1    
   162   81  204 1    
   163   82   83 2    
   164   82   84 am   BACKBONE|DICT|INTERRES
   165   84   85 1    
   166   84  205 1    
   167   85   86 1    
   168   85   87 1    
   169   85  206 1    
   170   86  207 1    
   171   86  208 1    
   172   86  209 1    
   173   87   88 2    
   174   87   89 am   BACKBONE|DICT|INTERRES
   175   89   90 1    
   176   89  210 1    
   177   90   91 1    
   178   90   92 1    
   179   90  211 1    
   180   91  212 1    
   181   91  213 1    
   182   91  214 1    
   183   92   93 2    
   184   92   94 am   BACKBONE|DICT|INTERRES
   185   94   95 1    
   186   94  215 1    
   187   95   96 1    
   188   95   97 1    
   189   95  216 1    
   190   96  217 1    
   191   96  218 1    
   192   96  219 1    
   193   97   98 2    
   194   97   99 am   BACKBONE|DICT|INTERRES
   195   99  100 1    
   196   99  220 1    
   197  100  101 1    
   198  100  102 1    
   199  100  221 1    
   200  101  222 1    
   201  101  223 1    
   202  101  224 1    
   203  102  103 2    
   204  102  104 am   BACKBONE|DICT|INTERRES
   205  104  105 1    
   206  104  225 1    
   207  105  106 1    
   208  105  107 1    
   209  105  226 1    
   210  106  227 1    
   211  106  228 1    
   212  106  229 1    
   213  107  108 2    
   214  107  109 am   BACKBONE|DICT|INTERRES
   215  109  110 1    
   216  109  230 1    
   217  110  111 1    
   218  110  112 1    
   219  110  231 1    
   220  111  232 1    
   221  111  233 1    
   222  111  234 1    
   223  112  113 2    
   224  112  114 am   BACKBONE|DICT|INTERRES
   225  114  115 1    
   226  114  235 1    
   227  115  116 1    
   228  115  117 1    
   229  115  236 1    
   230  116  237 1    
   231  116  238 1    
   232  116  239 1    
   233  117  118 2    
   234  117  119 am   BACKBONE|DICT|INTERRES
   235  119  120 1    
   236  119  240 1    
   237  120  121 1    
   238  120  124 1    
   239  120  241 1    
   240  121  122 am   BACKBONE|DICT|INTERRES
   241  121  123 2    
   242  122  242 1    
   243  122  243 1    
   244  124  125 1    
   245  124  244 1    
   246  124  245 1    
   247  125  126 1    
   248  126  246 1    
   249  126  247 1    
@<TRIPOS>SUBSTRUCTURE
     1 UNK         1 GROUP             0       ****    0 ROOT    
