@<TRIPOS>MOLECULE
3R540
247   249    1
SMALL
USER_CHARGES


@<TRIPOS>ATOM
      1 CA          3.5748  -16.5139  -52.0740 C.3       0 UNK        -0.1800 
      2 C           4.0923  -15.0752  -52.0782 C.2       0 UNK         0.5000 
      3 O           4.7844  -14.6904  -53.0186 O.2       0 UNK        -0.5000 
      4 N           3.7840  -14.2413  -51.0751 N.am      1 UNK        -0.5000 
      5 CA          3.0273  -14.5524  -49.8569 C.3       1 UNK         0.1400 
      6 C6          2.6189  -13.2762  -49.0743 C.3       23 UNK        -0.0398 
      7 S7          1.7422  -12.0376  -50.0920 S.3       23 UNK        -0.2404 
      8 C8         -0.0088  -12.4737  -49.8184 C.3       23 UNK        -0.0205 
      9 C9         -0.3524  -13.8735  -50.3122 C.ar      23 UNK        -0.0193 
     10 C10        -0.0326  -14.2637  -51.6182 C.ar      23 UNK        -0.1150 
     11 C11        -0.2962  -15.5636  -52.0547 C.ar      23 UNK        -0.0193 
     12 C12        -0.9174  -16.4663  -51.1895 C.ar      23 UNK        -0.1150 
     13 C13        -1.2795  -16.0785  -49.8974 C.ar      23 UNK        -0.0193 
     14 C14        -0.9867  -14.7834  -49.4596 C.ar      23 UNK        -0.1150 
     15 C15        -2.0118  -17.0537  -48.9920 C.3       23 UNK        -0.0205 
     16 S16        -0.9273  -17.7142  -47.6888 S.3       23 UNK        -0.2404 
     17 C17        -1.9624  -19.0719  -47.0486 C.3       23 UNK        -0.0398 
     18 CA         -1.1235  -20.3405  -46.7770 C.3       11 UNK         0.1400 
     19 N          -0.3417  -20.2452  -45.5402 N.am      11 UNK        -0.5000 
     20 C           0.6679  -21.0694  -45.2277 C.2       10 UNK         0.5000 
     21 O           1.0931  -21.9419  -45.9834 O.2       10 UNK        -0.5000 
     22 CA          1.2513  -20.9489  -43.8112 C.3       10 UNK         0.1400 
     23 CB          2.3411  -19.8743  -43.7417 C.3       10 UNK        -0.1800 
     24 N           0.2092  -20.6758  -42.8197 N.am      10 UNK        -0.5000 
     25 C          -0.6193  -21.6225  -42.3598 C.2       9 UNK         0.5000 
     26 O          -0.5932  -22.7891  -42.7510 O.2       9 UNK        -0.5000 
     27 CA         -1.6648  -21.2135  -41.3055 C.3       9 UNK         0.1400 
     28 CB         -1.0689  -21.3323  -39.8947 C.3       9 UNK        -0.1800 
     29 N          -2.2460  -19.8784  -41.4664 N.am      9 UNK        -0.5000 
     30 C          -2.8539  -19.4065  -42.5627 C.2       8 UNK         0.5000 
     31 O          -2.8652  -19.9986  -43.6439 O.2       8 UNK        -0.5000 
     32 CA         -3.5875  -18.0596  -42.4380 C.3       8 UNK         0.1400 
     33 CB         -3.2458  -17.2503  -41.1697 C.3       8 UNK        -0.1800 
     34 N          -3.2926  -17.2603  -43.6177 N.am      8 UNK        -0.5000 
     35 C          -4.1504  -16.4597  -44.2614 C.2       7 UNK         0.5000 
     36 O          -5.3246  -16.3064  -43.9209 O.2       7 UNK        -0.5000 
     37 CA         -3.6080  -15.7213  -45.5070 C.3       7 UNK         0.1400 
     38 CB         -4.2702  -14.3462  -45.7308 C.3       7 UNK        -0.1800 
     39 N          -2.1432  -15.6139  -45.5303 N.am      7 UNK        -0.5000 
     40 C          -1.3656  -14.9641  -44.6543 C.2       6 UNK         0.5000 
     41 O          -1.7838  -14.2538  -43.7374 O.2       6 UNK        -0.5000 
     42 CA          0.1468  -15.1777  -44.8212 C.3       6 UNK         0.1400 
     43 CB          0.8136  -13.9394  -45.4381 C.3       6 UNK        -0.1800 
     44 N           0.7812  -15.4944  -43.5439 N.am      6 UNK        -0.5000 
     45 C           0.5667  -16.6132  -42.8391 C.2       5 UNK         0.5000 
     46 O          -0.1918  -17.5221  -43.1938 O.2       5 UNK        -0.5000 
     47 CA          1.4119  -16.7551  -41.5652 C.3       5 UNK         0.1400 
     48 CB          0.9808  -17.9416  -40.6752 C.3       5 UNK        -0.1800 
     49 N           2.8138  -16.8657  -41.9665 N.am      5 UNK        -0.5000 
     50 C           3.8738  -16.8081  -41.1489 C.2       4 UNK         0.5000 
     51 O           3.7921  -16.6641  -39.9284 O.2       4 UNK        -0.5000 
     52 CA          5.2704  -16.9091  -41.7991 C.3       4 UNK         0.1400 
     53 CB          5.7280  -18.3741  -41.8673 C.3       4 UNK        -0.1800 
     54 N           5.3342  -16.3274  -43.1409 N.am      4 UNK        -0.5000 
     55 C           5.1382  -15.0334  -43.4250 C.2       3 UNK         0.5000 
     56 O           4.9826  -14.1674  -42.5630 O.2       3 UNK        -0.5000 
     57 CA          5.0914  -14.6197  -44.9111 C.3       3 UNK         0.1400 
     58 CB          6.3784  -13.8741  -45.2972 C.3       3 UNK        -0.1800 
     59 N           4.8565  -15.6772  -45.9036 N.am      3 UNK        -0.5000 
     60 C           3.8657  -16.5785  -45.9284 C.2       2 UNK         0.5000 
     61 O           3.0997  -16.7798  -44.9883 O.2       2 UNK        -0.5000 
     62 CA          3.6711  -17.3254  -47.2636 C.3       2 UNK         0.1400 
     63 CB          2.7420  -18.5456  -47.1406 C.3       2 UNK        -0.1800 
     64 N           3.1142  -16.4127  -48.2625 N.am      2 UNK        -0.5000 
     65 C           3.8216  -15.4974  -48.9365 C.2       1 UNK         0.5000 
     66 O           5.0434  -15.3641  -48.8268 O.2       1 UNK        -0.5000 
     67 C          -2.0085  -21.6029  -46.7946 C.2       11 UNK         0.5000 
     68 O          -2.2304  -22.1584  -47.8701 O.2       11 UNK        -0.5000 
     69 N          -2.4866  -22.0484  -45.6251 N.am      12 UNK        -0.5000 
     70 CA         -3.1985  -23.3151  -45.4575 C.3       12 UNK         0.1400 
     71 CB         -3.8746  -23.3599  -44.0800 C.3       12 UNK        -0.1800 
     72 C          -2.2742  -24.5260  -45.6736 C.2       12 UNK         0.5000 
     73 O          -2.6519  -25.4467  -46.3972 O.2       12 UNK        -0.5000 
     74 N          -1.0638  -24.4812  -45.0970 N.am      13 UNK        -0.5000 
     75 CA         -0.0188  -25.4955  -45.2693 C.3       13 UNK         0.1400 
     76 CB          1.1440  -25.2061  -44.3084 C.3       13 UNK        -0.1800 
     77 C           0.4870  -25.6003  -46.7214 C.2       13 UNK         0.5000 
     78 O           0.7162  -26.7081  -47.2074 O.2       13 UNK        -0.5000 
     79 N           0.6113  -24.4506  -47.3989 N.am      14 UNK        -0.5000 
     80 CA          0.9513  -24.3444  -48.8205 C.3       14 UNK         0.1400 
     81 CB          1.4047  -22.9044  -49.1112 C.3       14 UNK        -0.1800 
     82 C          -0.2051  -24.7359  -49.7656 C.2       14 UNK         0.5000 
     83 O           0.0270  -24.8768  -50.9663 O.2       14 UNK        -0.5000 
     84 N          -1.4234  -24.8681  -49.2188 N.am      15 UNK        -0.5000 
     85 CA         -2.7010  -25.1404  -49.8877 C.3       15 UNK         0.1400 
     86 CB         -2.6731  -26.4859  -50.6401 C.3       15 UNK        -0.1800 
     87 C          -3.2113  -23.9822  -50.7709 C.2       15 UNK         0.5000 
     88 O          -4.1944  -24.1576  -51.4903 O.2       15 UNK        -0.5000 
     89 N          -2.5903  -22.8011  -50.6628 N.am      16 UNK        -0.5000 
     90 CA         -2.9933  -21.5736  -51.3462 C.3       16 UNK         0.1400 
     91 CB         -1.8798  -20.5245  -51.2100 C.3       16 UNK        -0.1800 
     92 C          -4.3259  -21.0272  -50.8078 C.2       16 UNK         0.5000 
     93 O          -5.1502  -20.5552  -51.5897 O.2       16 UNK        -0.5000 
     94 N          -4.5386  -21.1452  -49.4882 N.am      17 UNK        -0.5000 
     95 CA         -5.8032  -20.7907  -48.8370 C.3       17 UNK         0.1400 
     96 CB         -5.5943  -20.6459  -47.3219 C.3       17 UNK        -0.1800 
     97 C          -6.9220  -21.8076  -49.1331 C.2       17 UNK         0.5000 
     98 O          -8.0888  -21.4207  -49.1884 O.2       17 UNK        -0.5000 
     99 N          -6.5471  -23.0797  -49.3349 N.am      18 UNK        -0.5000 
    100 CA        -7.4594  -24.1654  -49.6987 C.3       18 UNK         0.1400 
    101 CB        -6.7835  -25.5204  -49.4353 C.3       18 UNK        -0.1800 
    102 C         -7.9275  -24.0512  -51.1605 C.2       18 UNK         0.5000 
    103 O         -9.1176  -24.2107  -51.4332 O.2       18 UNK        -0.5000 
    104 N         -6.9886  -23.7417  -52.0663 N.am      19 UNK        -0.5000 
    105 CA        -7.2535  -23.4528  -53.4773 C.3       19 UNK         0.1400 
    106 CB        -5.9239  -23.4797  -54.2476 C.3       19 UNK        -0.1800 
    107 C         -7.9587  -22.0995  -53.6929 C.2       19 UNK         0.5000 
    108 O         -8.6432  -21.9307  -54.7025 O.2       19 UNK        -0.5000 
    109 N         -7.7576  -21.1673  -52.7494 N.am      20 UNK        -0.5000 
    110 CA        -8.1903  -19.7672  -52.7566 C.3       20 UNK         0.1400 
    111 CB        -9.7289  -19.6587  -52.7223 C.3       20 UNK        -0.1800 
    112 C         -7.5411  -18.9637  -53.9035 C.2       20 UNK         0.5000 
    113 O         -8.1798  -18.0858  -54.4874 O.2       20 UNK        -0.5000 
    114 N         -6.2789  -19.2872  -54.2076 N.am      21 UNK        -0.5000 
    115 CA        -5.4814  -18.7138  -55.2843 C.3       21 UNK         0.1400 
    116 CB        -5.9601  -19.2514  -56.6466 C.3       21 UNK        -0.1800 
    117 C         -4.0071  -19.0694  -55.0553 C.2       21 UNK         0.5000 
    118 O         -3.7106  -20.1050  -54.4548 O.2       21 UNK        -0.5000 
    119 N         -3.1135  -18.2113  -55.5545 N.am      22 UNK        -0.5000 
    120 CA        -1.6571  -18.4075  -55.5286 C.3       22 UNK         0.1400 
    121 C         -1.1969  -19.5344  -56.4943 C.2       22 UNK         0.5000 
    122 N         -0.1975  -20.3183  -56.1131 N.am      22 UNK        -0.7600 
    123 O         -1.7072  -19.6755  -57.6037 O.2       22 UNK        -0.5000 
    124 C124       -0.9044  -17.0883  -55.8373 C.3       23 UNK        -0.0398 
    125 S125       -1.2822  -15.7857  -54.6167 S.3       23 UNK        -0.2404 
    126 C126        0.0965  -16.0054  -53.4534 C.3       23 UNK        -0.0205 
    127 H127        4.1838  -17.1357  -51.4179 H         1 UNK         0.0600 
    128 H128        3.6279  -16.9368  -53.0774 H         1 UNK         0.0600 
    129 H129        2.5366  -16.5770  -51.7522 H         1 UNK         0.0600 
    130 H130        4.1420  -13.2984  -51.1143 H         1 UNK         0.3000 
    131 H131        2.1157  -15.0704  -50.1494 H         1 UNK         0.0600 
    132 H132        3.5022  -12.7868  -48.6591 H         1 UNK         0.0800 
    133 H133        1.9908  -13.5354  -48.2211 H         1 UNK         0.0800 
    134 H134       -0.6367  -11.7542  -50.3453 H         1 UNK         0.0800 
    135 H135       -0.2391  -12.3650  -48.7574 H         1 UNK         0.0800 
    136 H136        0.4496  -13.5628  -52.2853 H         1 UNK         0.1150 
    137 H137       -1.1320  -17.4682  -51.5318 H         1 UNK         0.1150 
    138 H138       -1.2574  -14.4864  -48.4560 H         1 UNK         0.1150 
    139 H139       -2.4154  -17.8749  -49.5862 H         1 UNK         0.0800 
    140 H140       -2.8695  -16.5547  -48.5403 H         1 UNK         0.0800 
    141 H141       -2.4840  -18.7457  -46.1479 H         1 UNK         0.0800 
    142 H142       -2.7362  -19.2794  -47.7886 H         1 UNK         0.0800 
    143 H143       -0.4196  -20.4582  -47.6036 H         1 UNK         0.0600 
    144 H144       -0.6531  -19.5770  -44.8489 H         1 UNK         0.3000 
    145 H145        1.7223  -21.9027  -43.5638 H         1 UNK         0.0600 
    146 H146        3.1841  -20.1355  -44.3807 H         1 UNK         0.0600 
    147 H147        2.7311  -19.7689  -42.7303 H         1 UNK         0.0600 
    148 H148        1.9655  -18.9062  -44.0668 H         1 UNK         0.0600 
    149 H149        0.0862  -19.7164  -42.5231 H         1 UNK         0.3000 
    150 H150       -2.4881  -21.9261  -41.3810 H         1 UNK         0.0600 
    151 H151       -0.2692  -20.6087  -39.7330 H         1 UNK         0.0600 
    152 H152       -0.6503  -22.3260  -39.7287 H         1 UNK         0.0600 
    153 H153       -1.8283  -21.1708  -39.1294 H         1 UNK         0.0600 
    154 H154       -2.2749  -19.3088  -40.6339 H         1 UNK         0.3000 
    155 H155       -4.6520  -18.3007  -42.4165 H         1 UNK         0.0600 
    156 H156       -3.8103  -16.3180  -41.1426 H         1 UNK         0.0600 
    157 H157       -2.1881  -16.9902  -41.1303 H         1 UNK         0.0600 
    158 H158       -3.4982  -17.7974  -40.2608 H         1 UNK         0.0600 
    159 H159       -2.3405  -17.3356  -43.9521 H         1 UNK         0.3000 
    160 H160       -3.8767  -16.3509  -46.3556 H         1 UNK         0.0600 
    161 H161       -4.1227  -13.6804  -44.8804 H         1 UNK         0.0600 
    162 H162       -5.3456  -14.4496  -45.8795 H         1 UNK         0.0600 
    163 H163       -3.8677  -13.8549  -46.6167 H         1 UNK         0.0600 
    164 H164       -1.6859  -16.1751  -46.2384 H         1 UNK         0.3000 
    165 H165        0.3189  -16.0234  -45.4903 H         1 UNK         0.0600 
    166 H166        1.8699  -14.1191  -45.6357 H         1 UNK         0.0600 
    167 H167        0.3443  -13.6777  -46.3871 H         1 UNK         0.0600 
    168 H168        0.7352  -13.0711  -44.7828 H         1 UNK         0.0600 
    169 H169        1.4268  -14.8091  -43.1821 H         1 UNK         0.3000 
    170 H170        1.2831  -15.8349  -40.9921 H         1 UNK         0.0600 
    171 H171        1.4339  -17.8792  -39.6863 H         1 UNK         0.0600 
    172 H172        1.2710  -18.8974  -41.1047 H         1 UNK         0.0600 
    173 H173       -0.0980  -17.9555  -40.5240 H         1 UNK         0.0600 
    174 H174        2.9712  -16.9388  -42.9692 H         1 UNK         0.3000 
    175 H175        5.9696  -16.3622  -41.1632 H         1 UNK         0.0600 
    176 H176        5.6953  -18.8406  -40.8818 H         1 UNK         0.0600 
    177 H177        5.0946  -18.9633  -42.5311 H         1 UNK         0.0600 
    178 H178        6.7539  -18.4501  -42.2278 H         1 UNK         0.0600 
    179 H179        5.4301  -16.9700  -43.9130 H         1 UNK         0.3000 
    180 H180        4.2602  -13.9187  -45.0047 H         1 UNK         0.0600 
    181 H181        7.2457  -14.5350  -45.2711 H         1 UNK         0.0600 
    182 H182        6.5755  -13.0457  -44.6153 H         1 UNK         0.0600 
    183 H183        6.3060  -13.4542  -46.3009 H         1 UNK         0.0600 
    184 H184        5.3901  -15.5839  -46.7605 H         1 UNK         0.3000 
    185 H185        4.6462  -17.6815  -47.6029 H         1 UNK         0.0600 
    186 H186        3.2027  -19.3179  -46.5269 H         1 UNK         0.0600 
    187 H187        1.7852  -18.2889  -46.6856 H         1 UNK         0.0600 
    188 H188        2.5385  -18.9921  -48.1140 H         1 UNK         0.0600 
    189 H189        2.1121  -16.4548  -48.3833 H         1 UNK         0.3000 
    190 H190       -2.3564  -21.4770  -44.7955 H         1 UNK         0.3000 
    191 H191       -3.9825  -23.3689  -46.2146 H         1 UNK         0.0600 
    192 H192       -4.5413  -22.5085  -43.9409 H         1 UNK         0.0600 
    193 H193       -4.4733  -24.2649  -43.9709 H         1 UNK         0.0600 
    194 H194       -3.1471  -23.3510  -43.2697 H         1 UNK         0.0600 
    195 H195       -0.8503  -23.7158  -44.4646 H         1 UNK         0.3000 
    196 H196       -0.4484  -26.4623  -44.9991 H         1 UNK         0.0600 
    197 H197        1.9223  -25.9651  -44.3971 H         1 UNK         0.0600 
    198 H198        0.8076  -25.2052  -43.2715 H         1 UNK         0.0600 
    199 H199        1.6038  -24.2390  -44.5121 H         1 UNK         0.0600 
    200 H200        0.4939  -23.5756  -46.8963 H         1 UNK         0.3000 
    201 H201        1.7869  -25.0158  -49.0278 H         1 UNK         0.0600 
    202 H202        1.7201  -22.7930  -50.1494 H         1 UNK         0.0600 
    203 H203        2.2505  -22.6217  -48.4841 H         1 UNK         0.0600 
    204 H204        0.6021  -22.1884  -48.9342 H         1 UNK         0.0600 
    205 H205       -1.4968  -24.7270  -48.2194 H         1 UNK         0.3000 
    206 H206       -3.4324  -25.2366  -49.0845 H         1 UNK         0.0600 
    207 H207       -2.0275  -26.4491  -51.5176 H         1 UNK         0.0600 
    208 H208       -3.6705  -26.7616  -50.9845 H         1 UNK         0.0600 
    209 H209       -2.3204  -27.2906  -49.9950 H         1 UNK         0.0600 
    210 H210       -1.8635  -22.7175  -49.9649 H         1 UNK         0.3000 
    211 H211       -3.1262  -21.8013  -52.4057 H         1 UNK         0.0600 
    212 H212       -1.6889  -20.2667  -50.1676 H         1 UNK         0.0600 
    213 H213       -2.1502  -19.6086  -51.7366 H         1 UNK         0.0600 
    214 H214       -0.9461  -20.8836  -51.6429 H         1 UNK         0.0600 
    215 H215       -3.8100  -21.5577  -48.9145 H         1 UNK         0.3000 
    216 H216       -6.1295  -19.8223  -49.2231 H         1 UNK         0.0600 
    217 H217       -6.5283  -20.3805  -46.8249 H         1 UNK         0.0600 
    218 H218       -5.2413  -21.5724  -46.8729 H         1 UNK         0.0600 
    219 H219       -4.8773  -19.8605  -47.0892 H         1 UNK         0.0600 
    220 H220       -5.5653  -23.3029  -49.2956 H         1 UNK         0.3000 
    221 H221       -8.3417  -24.1006  -49.0581 H         1 UNK         0.0600 
    222 H222       -5.9053  -25.6681  -50.0631 H         1 UNK         0.0600 
    223 H223       -6.4718  -25.6111  -48.3947 H         1 UNK         0.0600 
    224 H224       -7.4711  -26.3416  -49.6409 H         1 UNK         0.0600 
    225 H225       -6.0144  -23.7115  -51.7767 H         1 UNK         0.3000 
    226 H226       -7.9008  -24.2364  -53.8762 H         1 UNK         0.0600 
    227 H227       -6.0822  -23.2931  -55.3105 H         1 UNK         0.0600 
    228 H228       -5.2320  -22.7197  -53.8807 H         1 UNK         0.0600 
    229 H229       -5.4340  -24.4492  -54.1558 H         1 UNK         0.0600 
    230 H230       -7.1129  -21.4023  -52.0059 H         1 UNK         0.3000 
    231 H231       -7.8112  -19.3316  -51.8310 H         1 UNK         0.0600 
    232 H232      -10.1831  -20.0099  -53.6490 H         1 UNK         0.0600 
    233 H233      -10.0434  -18.6247  -52.5768 H         1 UNK         0.0600 
    234 H234      -10.1452  -20.2425  -51.9011 H         1 UNK         0.0600 
    235 H235       -5.7889  -19.9689  -53.6355 H         1 UNK         0.3000 
    236 H236       -5.5866  -17.6271  -55.2602 H         1 UNK         0.0600 
    237 H237       -5.9113  -20.3405  -56.6840 H         1 UNK         0.0600 
    238 H238       -6.9883  -18.9561  -56.8552 H         1 UNK         0.0600 
    239 H239       -5.3431  -18.8664  -57.4595 H         1 UNK         0.0600 
    240 H240       -3.4373  -17.3939  -56.0498 H         1 UNK         0.3000 
    241 H241       -1.3909  -18.7141  -54.5145 H         1 UNK         0.0600 
    242 H242        0.2422  -20.2198  -55.2114 H         1 UNK         0.3800 
    243 H243        0.1195  -21.0427  -56.7387 H         1 UNK         0.3800 
    244 H244        0.1749  -17.2505  -55.8624 H         1 UNK         0.0800 
    245 H245       -1.1748  -16.7184  -56.8278 H         1 UNK         0.0800 
    246 H246        0.9621  -15.4422  -53.8058 H         1 UNK         0.0800 
    247 H247        0.4010  -17.0528  -53.4258 H         1 UNK         0.0800 
@<TRIPOS>BOND
     1    1    2 1    
     2    1  127 1    
     3    1  128 1    
     4    1  129 1    
     5    2    3 2    
     6    2    4 am   BACKBONE|DICT|INTERRES
     7    4    5 1    
     8    4  130 1    
     9    5    6 1    
    10    5   65 1    
    11    5  131 1    
    12    6    7 1    
    13    6  132 1    
    14    6  133 1    
    15    7    8 1    
    16    8    9 1    
    17    8  134 1    
    18    8  135 1    
    19    9   10 ar   
    20    9   14 ar   
    21   10   11 ar   
    22   10  136 1    
    23   11   12 ar   
    24   11  126 1    
    25   12   13 ar   
    26   12  137 1    
    27   13   14 ar   
    28   13   15 1    
    29   14  138 1    
    30   15   16 1    
    31   15  139 1    
    32   15  140 1    
    33   16   17 1    
    34   17   18 1    
    35   17  141 1    
    36   17  142 1    
    37   18   19 1    
    38   18   67 1    
    39   18  143 1    
    40   19   20 am   BACKBONE|DICT|INTERRES
    41   19  144 1    
    42   20   21 2    
    43   20   22 1    
    44   22   23 1    
    45   22   24 1    
    46   22  145 1    
    47   23  146 1    
    48   23  147 1    
    49   23  148 1    
    50   24   25 am   BACKBONE|DICT|INTERRES
    51   24  149 1    
    52   25   26 2    
    53   25   27 1    
    54   27   28 1    
    55   27   29 1    
    56   27  150 1    
    57   28  151 1    
    58   28  152 1    
    59   28  153 1    
    60   29   30 am   BACKBONE|DICT|INTERRES
    61   29  154 1    
    62   30   31 2    
    63   30   32 1    
    64   32   33 1    
    65   32   34 1    
    66   32  155 1    
    67   33  156 1    
    68   33  157 1    
    69   33  158 1    
    70   34   35 am   BACKBONE|DICT|INTERRES
    71   34  159 1    
    72   35   36 2    
    73   35   37 1    
    74   37   38 1    
    75   37   39 1    
    76   37  160 1    
    77   38  161 1    
    78   38  162 1    
    79   38  163 1    
    80   39   40 am   BACKBONE|DICT|INTERRES
    81   39  164 1    
    82   40   41 2    
    83   40   42 1    
    84   42   43 1    
    85   42   44 1    
    86   42  165 1    
    87   43  166 1    
    88   43  167 1    
    89   43  168 1    
    90   44   45 am   BACKBONE|DICT|INTERRES
    91   44  169 1    
    92   45   46 2    
    93   45   47 1    
    94   47   48 1    
    95   47   49 1    
    96   47  170 1    
    97   48  171 1    
    98   48  172 1    
    99   48  173 1    
   100   49   50 am   BACKBONE|DICT|INTERRES
   101   49  174 1    
   102   50   51 2    
   103   50   52 1    
   104   52   53 1    
   105   52   54 1    
   106   52  175 1    
   107   53  176 1    
   108   53  177 1    
   109   53  178 1    
   110   54   55 am   BACKBONE|DICT|INTERRES
   111   54  179 1    
   112   55   56 2    
   113   55   57 1    
   114   57   58 1    
   115   57   59 1    
   116   57  180 1    
   117   58  181 1    
   118   58  182 1    
   119   58  183 1    
   120   59   60 am   BACKBONE|DICT|INTERRES
   121   59  184 1    
   122   60   61 2    
   123   60   62 1    
   124   62   63 1    
   125   62   64 1    
   126   62  185 1    
   127   63  186 1    
   128   63  187 1    
   129   63  188 1    
   130   64   65 am   BACKBONE|DICT|INTERRES
   131   64  189 1    
   132   65   66 2    
   133   67   68 2    
   134   67   69 am   BACKBONE|DICT|INTERRES
   135   69   70 1    
   136   69  190 1    
   137   70   71 1    
   138   70   72 1    
   139   70  191 1    
   140   71  192 1    
   141   71  193 1    
   142   71  194 1    
   143   72   73 2    
   144   72   74 am   BACKBONE|DICT|INTERRES
   145   74   75 1    
   146   74  195 1    
   147   75   76 1    
   148   75   77 1    
   149   75  196 1    
   150   76  197 1    
   151   76  198 1    
   152   76  199 1    
   153   77   78 2    
   154   77   79 am   BACKBONE|DICT|INTERRES
   155   79   80 1    
   156   79  200 1    
   157   80   81 1    
   158   80   82 1    
   159   80  201 1    
   160   81  202 1    
   161   81  203 1    
   162   81  204 1    
   163   82   83 2    
   164   82   84 am   BACKBONE|DICT|INTERRES
   165   84   85 1    
   166   84  205 1    
   167   85   86 1    
   168   85   87 1    
   169   85  206 1    
   170   86  207 1    
   171   86  208 1    
   172   86  209 1    
   173   87   88 2    
   174   87   89 am   BACKBONE|DICT|INTERRES
   175   89   90 1    
   176   89  210 1    
   177   90   91 1    
   178   90   92 1    
   179   90  211 1    
   180   91  212 1    
   181   91  213 1    
   182   91  214 1    
   183   92   93 2    
   184   92   94 am   BACKBONE|DICT|INTERRES
   185   94   95 1    
   186   94  215 1    
   187   95   96 1    
   188   95   97 1    
   189   95  216 1    
   190   96  217 1    
   191   96  218 1    
   192   96  219 1    
   193   97   98 2    
   194   97   99 am   BACKBONE|DICT|INTERRES
   195   99  100 1    
   196   99  220 1    
   197  100  101 1    
   198  100  102 1    
   199  100  221 1    
   200  101  222 1    
   201  101  223 1    
   202  101  224 1    
   203  102  103 2    
   204  102  104 am   BACKBONE|DICT|INTERRES
   205  104  105 1    
   206  104  225 1    
   207  105  106 1    
   208  105  107 1    
   209  105  226 1    
   210  106  227 1    
   211  106  228 1    
   212  106  229 1    
   213  107  108 2    
   214  107  109 am   BACKBONE|DICT|INTERRES
   215  109  110 1    
   216  109  230 1    
   217  110  111 1    
   218  110  112 1    
   219  110  231 1    
   220  111  232 1    
   221  111  233 1    
   222  111  234 1    
   223  112  113 2    
   224  112  114 am   BACKBONE|DICT|INTERRES
   225  114  115 1    
   226  114  235 1    
   227  115  116 1    
   228  115  117 1    
   229  115  236 1    
   230  116  237 1    
   231  116  238 1    
   232  116  239 1    
   233  117  118 2    
   234  117  119 am   BACKBONE|DICT|INTERRES
   235  119  120 1    
   236  119  240 1    
   237  120  121 1    
   238  120  124 1    
   239  120  241 1    
   240  121  122 am   BACKBONE|DICT|INTERRES
   241  121  123 2    
   242  122  242 1    
   243  122  243 1    
   244  124  125 1    
   245  124  244 1    
   246  124  245 1    
   247  125  126 1    
   248  126  246 1    
   249  126  247 1    
@<TRIPOS>SUBSTRUCTURE
     1 UNK         1 GROUP             0       ****    0 ROOT    
