@<TRIPOS>MOLECULE
3R540
247   249    1
SMALL
USER_CHARGES


@<TRIPOS>ATOM
      1 CA          5.1584  -15.5641  -42.1624 C.3       0 UNK        -0.1800 
      2 C           4.0321  -14.6257  -42.5725 C.2       0 UNK         0.5000 
      3 O           3.9857  -13.4864  -42.1060 O.2       0 UNK        -0.5000 
      4 N           3.1317  -15.0828  -43.4528 N.am      1 UNK        -0.5000 
      5 CA          2.0011  -14.3129  -43.9843 C.3       1 UNK         0.1400 
      6 C6          0.7878  -15.2182  -44.3369 C.3       23 UNK        -0.0398 
      7 S7         -0.7923  -14.3978  -43.9309 S.3       23 UNK        -0.2404 
      8 C8         -1.4159  -13.8863  -45.5692 C.3       23 UNK        -0.0205 
      9 C9         -2.3320  -14.8784  -46.2904 C.ar      23 UNK        -0.0193 
     10 C10        -2.8889  -14.4776  -47.5093 C.ar      23 UNK        -0.1150 
     11 C11        -3.7373  -15.3190  -48.2345 C.ar      23 UNK        -0.0193 
     12 C12        -4.0490  -16.5771  -47.7105 C.ar      23 UNK        -0.1150 
     13 C13        -3.4985  -17.0021  -46.4993 C.ar      23 UNK        -0.0193 
     14 C14        -2.6444  -16.1513  -45.7909 C.ar      23 UNK        -0.1150 
     15 C15        -3.8180  -18.3936  -45.9808 C.3       23 UNK        -0.0205 
     16 S16        -2.7442  -19.6165  -46.7853 S.3       23 UNK        -0.2404 
     17 C17        -3.7376  -21.1345  -46.6624 C.3       23 UNK        -0.0398 
     18 CA         -2.8372  -22.3573  -46.3904 C.3       11 UNK         0.1400 
     19 N          -2.2234  -22.2957  -45.0628 N.am      11 UNK        -0.5000 
     20 C          -1.3025  -23.1268  -44.5619 C.2       10 UNK         0.5000 
     21 O          -0.9725  -24.1805  -45.1113 O.2       10 UNK        -0.5000 
     22 CA         -0.6330  -22.6874  -43.2419 C.3       10 UNK         0.1400 
     23 CB          0.6526  -23.4821  -42.9500 C.3       10 UNK        -0.1800 
     24 N          -0.3064  -21.2580  -43.2319 N.am      10 UNK        -0.5000 
     25 C          -1.1553  -20.2422  -43.0180 C.2       9 UNK         0.5000 
     26 O          -2.3610  -20.4060  -42.8260 O.2       9 UNK        -0.5000 
     27 CA         -0.5727  -18.8146  -43.0799 C.3       9 UNK         0.1400 
     28 CB         -1.2662  -17.8507  -42.0942 C.3       9 UNK        -0.1800 
     29 N           0.8901  -18.7825  -42.9422 N.am      9 UNK        -0.5000 
     30 C           1.6240  -19.0661  -41.8531 C.2       8 UNK         0.5000 
     31 O           1.1367  -19.3300  -40.7534 O.2       8 UNK        -0.5000 
     32 CA          3.1585  -19.1108  -42.0412 C.3       8 UNK         0.1400 
     33 CB          3.8583  -19.9671  -40.9702 C.3       8 UNK        -0.1800 
     34 N           3.5229  -19.6280  -43.3636 N.am      8 UNK        -0.5000 
     35 C           3.6737  -18.8840  -44.4647 C.2       7 UNK         0.5000 
     36 O           3.6179  -17.6524  -44.4539 O.2       7 UNK        -0.5000 
     37 CA          3.8516  -19.6254  -45.8096 C.3       7 UNK         0.1400 
     38 CB          3.4121  -21.1077  -45.7716 C.3       7 UNK        -0.1800 
     39 N           3.1618  -18.9222  -46.8964 N.am      7 UNK        -0.5000 
     40 C           1.8666  -18.5763  -46.9392 C.2       6 UNK         0.5000 
     41 O           1.0475  -18.8901  -46.0718 O.2       6 UNK        -0.5000 
     42 CA          1.4457  -17.6872  -48.1264 C.3       6 UNK         0.1400 
     43 CB         -0.0390  -17.2981  -48.0738 C.3       6 UNK        -0.1800 
     44 N           2.2308  -16.4547  -48.1874 N.am      6 UNK        -0.5000 
     45 C           3.4581  -16.3172  -48.7067 C.2       5 UNK         0.5000 
     46 O           4.1298  -17.2636  -49.1221 O.2       5 UNK        -0.5000 
     47 CA          4.0132  -14.8768  -48.7557 C.3       5 UNK         0.1400 
     48 CB          5.1565  -14.6909  -49.7745 C.3       5 UNK        -0.1800 
     49 N           2.9464  -13.8858  -48.9461 N.am      5 UNK        -0.5000 
     50 C           2.1470  -13.7386  -50.0152 C.2       4 UNK         0.5000 
     51 O           2.3159  -14.3276  -51.0830 O.2       4 UNK        -0.5000 
     52 CA          0.9310  -12.8042  -49.8688 C.3       4 UNK         0.1400 
     53 CB         -0.3736  -13.6180  -49.8487 C.3       4 UNK        -0.1800 
     54 N           0.9899  -11.9768  -48.6594 N.am      4 UNK        -0.5000 
     55 C           0.7637  -10.6555  -48.6267 C.2       3 UNK         0.5000 
     56 O           0.4311   -9.9904  -49.6091 O.2       3 UNK        -0.5000 
     57 CA          0.9502   -9.9454  -47.2685 C.3       3 UNK         0.1400 
     58 CB         -0.3877   -9.8703  -46.5162 C.3       3 UNK        -0.1800 
     59 N           1.9429  -10.5894  -46.4060 N.am      3 UNK        -0.5000 
     60 C           3.2467  -10.7169  -46.6892 C.2       2 UNK         0.5000 
     61 O           3.7823  -10.2030  -47.6720 O.2       2 UNK        -0.5000 
     62 CA          4.0986  -11.5861  -45.7409 C.3       2 UNK         0.1400 
     63 CB          5.0411  -10.7049  -44.9070 C.3       2 UNK        -0.1800 
     64 N           3.3551  -12.4632  -44.8283 N.am      2 UNK        -0.5000 
     65 C           2.4762  -13.4214  -45.1520 C.2       1 UNK         0.5000 
     66 O           2.0799  -13.6200  -46.3032 O.2       1 UNK        -0.5000 
     67 C          -3.5950  -23.6628  -46.6756 C.2       11 UNK         0.5000 
     68 O          -3.6885  -24.0416  -47.8424 O.2       11 UNK        -0.5000 
     69 N          -4.0799  -24.3486  -45.6310 N.am      12 UNK        -0.5000 
     70 CA         -4.6998  -25.6751  -45.7065 C.3       12 UNK         0.1400 
     71 CB         -5.1477  -26.1014  -44.3010 C.3       12 UNK        -0.1800 
     72 C          -3.7820  -26.7457  -46.3305 C.2       12 UNK         0.5000 
     73 O          -4.2752  -27.6209  -47.0423 O.2       12 UNK        -0.5000 
     74 N          -2.4713  -26.6295  -46.0805 N.am      13 UNK        -0.5000 
     75 CA         -1.4360  -27.4778  -46.6641 C.3       13 UNK         0.1400 
     76 CB         -0.4595  -27.9072  -45.5574 C.3       13 UNK        -0.1800 
     77 C          -0.6836  -26.7422  -47.7849 C.2       13 UNK         0.5000 
     78 O          -0.4174  -27.3391  -48.8285 O.2       13 UNK        -0.5000 
     79 N          -0.3384  -25.4688  -47.5477 N.am      14 UNK        -0.5000 
     80 CA          0.5544  -24.6844  -48.4013 C.3       14 UNK         0.1400 
     81 CB          1.0946  -23.4890  -47.5978 C.3       14 UNK        -0.1800 
     82 C          -0.0758  -24.1980  -49.7185 C.2       14 UNK         0.5000 
     83 O           0.6676  -23.9529  -50.6699 O.2       14 UNK        -0.5000 
     84 N          -1.4058  -24.0361  -49.7570 N.am      15 UNK        -0.5000 
     85 CA         -2.1107  -23.4005  -50.8732 C.3       15 UNK         0.1400 
     86 CB         -2.2145  -21.8880  -50.6027 C.3       15 UNK        -0.1800 
     87 C          -3.4817  -24.0359  -51.1646 C.2       15 UNK         0.5000 
     88 O          -4.3099  -23.3949  -51.8131 O.2       15 UNK        -0.5000 
     89 N          -3.7098  -25.2670  -50.6813 N.am      16 UNK        -0.5000 
     90 CA         -4.9375  -26.0598  -50.8419 C.3       16 UNK         0.1400 
     91 CB         -5.0928  -26.5097  -52.3104 C.3       16 UNK        -0.1800 
     92 C          -6.1953  -25.3434  -50.2998 C.2       16 UNK         0.5000 
     93 O          -7.2091  -25.2549  -50.9921 O.2       16 UNK        -0.5000 
     94 N          -6.0810  -24.8061  -49.0774 N.am      17 UNK        -0.5000 
     95 CA         -7.0589  -23.9591  -48.3799 C.3       17 UNK         0.1400 
     96 CB         -8.3929  -24.6972  -48.1415 C.3       17 UNK        -0.1800 
     97 C          -7.2196  -22.5854  -49.0615 C.2       17 UNK         0.5000 
     98 O          -8.3259  -22.0510  -49.1404 O.2       17 UNK        -0.5000 
     99 N          -6.0870  -22.0590  -49.5517 N.am      18 UNK        -0.5000 
    100 CA        -5.8999  -20.8005  -50.2855 C.3       18 UNK         0.1400 
    101 CB        -6.3776  -19.5855  -49.4647 C.3       18 UNK        -0.1800 
    102 C         -6.4707  -20.8012  -51.7189 C.2       18 UNK         0.5000 
    103 O         -6.3629  -19.7813  -52.4025 O.2       18 UNK        -0.5000 
    104 N         -7.0162  -21.9401  -52.1734 N.am      19 UNK        -0.5000 
    105 CA        -7.5895  -22.1387  -53.5054 C.3       19 UNK         0.1400 
    106 CB        -8.2663  -23.5147  -53.5706 C.3       19 UNK        -0.1800 
    107 C         -6.5644  -21.9935  -54.6437 C.2       19 UNK         0.5000 
    108 O         -6.9365  -21.5656  -55.7367 O.2       19 UNK        -0.5000 
    109 N         -5.2867  -22.2873  -54.3649 N.am      20 UNK        -0.5000 
    110 CA        -4.1552  -22.0876  -55.2736 C.3       20 UNK         0.1400 
    111 CB        -3.0357  -23.0733  -54.8940 C.3       20 UNK        -0.1800 
    112 C         -3.6676  -20.6195  -55.2883 C.2       20 UNK         0.5000 
    113 O         -2.4601  -20.3748  -55.2714 O.2       20 UNK        -0.5000 
    114 N         -4.6124  -19.6660  -55.2869 N.am      21 UNK        -0.5000 
    115 CA        -4.4290  -18.2084  -55.2908 C.3       21 UNK         0.1400 
    116 CB        -3.9566  -17.7427  -56.6833 C.3       21 UNK        -0.1800 
    117 C         -3.5200  -17.7014  -54.1491 C.2       21 UNK         0.5000 
    118 O         -2.6857  -16.8208  -54.3674 O.2       21 UNK        -0.5000 
    119 N         -3.6793  -18.3028  -52.9620 N.am      22 UNK        -0.5000 
    120 CA        -2.8329  -18.1076  -51.7686 C.3       22 UNK         0.1400 
    121 C         -1.3628  -18.6160  -51.9239 C.2       22 UNK         0.5000 
    122 N         -1.0114  -19.3774  -52.9538 N.am      22 UNK        -0.7600 
    123 O         -0.5205  -18.3485  -51.0745 O.2       22 UNK        -0.5000 
    124 C124       -2.8974  -16.6619  -51.1928 C.3       23 UNK        -0.0398 
    125 S125       -4.6025  -16.1301  -50.8114 S.3       23 UNK        -0.2404 
    126 C126       -4.3212  -14.8289  -49.5598 C.3       23 UNK        -0.0205 
    127 H127        5.2729  -16.3933  -42.8617 H         1 UNK         0.0600 
    128 H128        6.1048  -15.0224  -42.1294 H         1 UNK         0.0600 
    129 H129        4.9632  -15.9736  -41.1698 H         1 UNK         0.0600 
    130 H130        3.2633  -16.0134  -43.8498 H         1 UNK         0.3000 
    131 H131        1.6807  -13.6324  -43.1918 H         1 UNK         0.0600 
    132 H132        0.8201  -16.1228  -43.7310 H         1 UNK         0.0800 
    133 H133        0.7970  -15.5713  -45.3689 H         1 UNK         0.0800 
    134 H134       -1.9743  -12.9598  -45.4258 H         1 UNK         0.0800 
    135 H135       -0.5768  -13.6362  -46.2194 H         1 UNK         0.0800 
    136 H136       -2.6589  -13.4949  -47.8965 H         1 UNK         0.1150 
    137 H137       -4.7103  -17.2397  -48.2497 H         1 UNK         0.1150 
    138 H138       -2.2241  -16.4964  -44.8584 H         1 UNK         0.1150 
    139 H139       -3.6874  -18.4482  -44.8990 H         1 UNK         0.0800 
    140 H140       -4.8650  -18.6233  -46.1833 H         1 UNK         0.0800 
    141 H141       -4.4946  -21.0317  -45.8827 H         1 UNK         0.0800 
    142 H142       -4.2736  -21.2398  -47.6058 H         1 UNK         0.0800 
    143 H143       -2.0187  -22.3341  -47.1124 H         1 UNK         0.0600 
    144 H144       -2.4442  -21.4745  -44.5096 H         1 UNK         0.3000 
    145 H145       -1.3443  -22.8892  -42.4387 H         1 UNK         0.0600 
    146 H146        1.1024  -23.1727  -42.0063 H         1 UNK         0.0600 
    147 H147        0.4455  -24.5504  -42.8731 H         1 UNK         0.0600 
    148 H148        1.3957  -23.3472  -43.7372 H         1 UNK         0.0600 
    149 H149        0.6521  -21.0205  -43.4352 H         1 UNK         0.3000 
    150 H150       -0.7822  -18.4526  -44.0877 H         1 UNK         0.0600 
    151 H151       -2.3146  -17.7122  -42.3612 H         1 UNK         0.0600 
    152 H152       -0.7994  -16.8668  -42.0993 H         1 UNK         0.0600 
    153 H153       -1.2402  -18.2267  -41.0713 H         1 UNK         0.0600 
    154 H154        1.3832  -18.6099  -43.8107 H         1 UNK         0.3000 
    155 H155        3.5198  -18.0867  -41.9321 H         1 UNK         0.0600 
    156 H156        3.6768  -19.5724  -39.9694 H         1 UNK         0.0600 
    157 H157        4.9382  -19.9783  -41.1193 H         1 UNK         0.0600 
    158 H158        3.5062  -20.9993  -40.9871 H         1 UNK         0.0600 
    159 H159        3.5731  -20.6328  -43.4519 H         1 UNK         0.3000 
    160 H160        4.9166  -19.5922  -46.0424 H         1 UNK         0.0600 
    161 H161        2.3675  -21.2191  -45.4774 H         1 UNK         0.0600 
    162 H162        3.5269  -21.5703  -46.7520 H         1 UNK         0.0600 
    163 H163        4.0208  -21.6885  -45.0776 H         1 UNK         0.0600 
    164 H164        3.7532  -18.5590  -47.6371 H         1 UNK         0.3000 
    165 H165        1.6102  -18.2584  -49.0425 H         1 UNK         0.0600 
    166 H166       -0.2899  -16.7844  -47.1474 H         1 UNK         0.0600 
    167 H167       -0.3075  -16.6462  -48.9036 H         1 UNK         0.0600 
    168 H168       -0.6708  -18.1818  -48.1474 H         1 UNK         0.0600 
    169 H169        1.7861  -15.6270  -47.8180 H         1 UNK         0.3000 
    170 H170        4.4271  -14.6838  -47.7649 H         1 UNK         0.0600 
    171 H171        6.0114  -15.3168  -49.5166 H         1 UNK         0.0600 
    172 H172        4.8514  -14.9611  -50.7856 H         1 UNK         0.0600 
    173 H173        5.5043  -13.6580  -49.7922 H         1 UNK         0.0600 
    174 H174        2.6859  -13.4053  -48.0932 H         1 UNK         0.3000 
    175 H175        0.9282  -12.1724  -50.7597 H         1 UNK         0.0600 
    176 H176       -0.4307  -14.2520  -48.9637 H         1 UNK         0.0600 
    177 H177       -1.2438  -12.9620  -49.8519 H         1 UNK         0.0600 
    178 H178       -0.4530  -14.2658  -50.7234 H         1 UNK         0.0600 
    179 H179        1.2406  -12.4425  -47.7953 H         1 UNK         0.3000 
    180 H180        1.2903   -8.9274  -47.4711 H         1 UNK         0.0600 
    181 H181       -0.7653  -10.8627  -46.2666 H         1 UNK         0.0600 
    182 H182       -0.2890   -9.3046  -45.5892 H         1 UNK         0.0600 
    183 H183       -1.1476   -9.3722  -47.1198 H         1 UNK         0.0600 
    184 H184        1.5959  -11.0382  -45.5713 H         1 UNK         0.3000 
    185 H185        4.7101  -12.2311  -46.3750 H         1 UNK         0.0600 
    186 H186        4.4863  -10.0605  -44.2237 H         1 UNK         0.0600 
    187 H187        5.7269  -11.3111  -44.3145 H         1 UNK         0.0600 
    188 H188        5.6483  -10.0617  -45.5459 H         1 UNK         0.0600 
    189 H189        3.6288  -12.4156  -43.8524 H         1 UNK         0.3000 
    190 H190       -3.9492  -23.9634  -44.7071 H         1 UNK         0.3000 
    191 H191       -5.5883  -25.5998  -46.3342 H         1 UNK         0.0600 
    192 H192       -4.3041  -26.1689  -43.6128 H         1 UNK         0.0600 
    193 H193       -5.6313  -27.0791  -44.3246 H         1 UNK         0.0600 
    194 H194       -5.8664  -25.3952  -43.8845 H         1 UNK         0.0600 
    195 H195       -2.1501  -25.8498  -45.5182 H         1 UNK         0.3000 
    196 H196       -1.8751  -28.3814  -47.0928 H         1 UNK         0.0600 
    197 H197        0.3354  -28.5369  -45.9596 H         1 UNK         0.0600 
    198 H198       -0.9710  -28.4825  -44.7853 H         1 UNK         0.0600 
    199 H199        0.0113  -27.0482  -45.0767 H         1 UNK         0.0600 
    200 H200       -0.5816  -25.0491  -46.6531 H         1 UNK         0.3000 
    201 H201        1.4050  -25.3167  -48.6659 H         1 UNK         0.0600 
    202 H202        1.5990  -23.8179  -46.6889 H         1 UNK         0.0600 
    203 H203        0.3000  -22.8014  -47.3085 H         1 UNK         0.0600 
    204 H204        1.8187  -22.9204  -48.1828 H         1 UNK         0.0600 
    205 H205       -1.9648  -24.2543  -48.9395 H         1 UNK         0.3000 
    206 H206       -1.5398  -23.5383  -51.7934 H         1 UNK         0.0600 
    207 H207       -1.2266  -21.4396  -50.4951 H         1 UNK         0.0600 
    208 H208       -2.7097  -21.3715  -51.4255 H         1 UNK         0.0600 
    209 H209       -2.7716  -21.6824  -49.6888 H         1 UNK         0.0600 
    210 H210       -2.9671  -25.7109  -50.1607 H         1 UNK         0.3000 
    211 H211       -4.8107  -26.9558  -50.2322 H         1 UNK         0.0600 
    212 H212       -5.2566  -25.6640  -52.9795 H         1 UNK         0.0600 
    213 H213       -5.9411  -27.1856  -52.4247 H         1 UNK         0.0600 
    214 H214       -4.2061  -27.0417  -52.6552 H         1 UNK         0.0600 
    215 H215       -5.1675  -24.8571  -48.6340 H         1 UNK         0.3000 
    216 H216       -6.6336  -23.7462  -47.3990 H         1 UNK         0.0600 
    217 H217       -8.2285  -25.6648  -47.6672 H         1 UNK         0.0600 
    218 H218       -8.9402  -24.8654  -49.0691 H         1 UNK         0.0600 
    219 H219       -9.0432  -24.1198  -47.4833 H         1 UNK         0.0600 
    220 H220       -5.2603  -22.6360  -49.4853 H         1 UNK         0.3000 
    221 H221       -4.8236  -20.6917  -50.4083 H         1 UNK         0.0600 
    222 H222       -7.4614  -19.5709  -49.3496 H         1 UNK         0.0600 
    223 H223       -5.9325  -19.5774  -48.4703 H         1 UNK         0.0600 
    224 H224       -6.0943  -18.6521  -49.9516 H         1 UNK         0.0600 
    225 H225       -7.0108  -22.7467  -51.5645 H         1 UNK         0.3000 
    226 H226       -8.3547  -21.3734  -53.6500 H         1 UNK         0.0600 
    227 H227       -9.0038  -23.6334  -52.7763 H         1 UNK         0.0600 
    228 H228       -8.7851  -23.6494  -54.5205 H         1 UNK         0.0600 
    229 H229       -7.5394  -24.3225  -53.4784 H         1 UNK         0.0600 
    230 H230       -5.0585  -22.6203  -53.4312 H         1 UNK         0.3000 
    231 H231       -4.4744  -22.3279  -56.2896 H         1 UNK         0.0600 
    232 H232       -2.5985  -22.8265  -53.9267 H         1 UNK         0.0600 
    233 H233       -3.4072  -24.0971  -54.8440 H         1 UNK         0.0600 
    234 H234       -2.2316  -23.0548  -55.6306 H         1 UNK         0.0600 
    235 H235       -5.5744  -19.9832  -55.2946 H         1 UNK         0.3000 
    236 H236       -5.4130  -17.7735  -55.1104 H         1 UNK         0.0600 
    237 H237       -4.6330  -18.0887  -57.4649 H         1 UNK         0.0600 
    238 H238       -3.9238  -16.6542  -56.7436 H         1 UNK         0.0600 
    239 H239       -2.9581  -18.1151  -56.9150 H         1 UNK         0.0600 
    240 H240       -4.4297  -18.9776  -52.8707 H         1 UNK         0.3000 
    241 H241       -3.2607  -18.7645  -51.0106 H         1 UNK         0.0600 
    242 H242       -0.0578  -19.6942  -53.0162 H         1 UNK         0.3800 
    243 H243       -1.6605  -19.6130  -53.6981 H         1 UNK         0.3800 
    244 H244       -2.4506  -15.9449  -51.8825 H         1 UNK         0.0800 
    245 H245       -2.3120  -16.6014  -50.2745 H         1 UNK         0.0800 
    246 H246       -5.2736  -14.3395  -49.3517 H         1 UNK         0.0800 
    247 H247       -3.6733  -14.0685  -49.9994 H         1 UNK         0.0800 
@<TRIPOS>BOND
     1    1    2 1    
     2    1  127 1    
     3    1  128 1    
     4    1  129 1    
     5    2    3 2    
     6    2    4 am   BACKBONE|DICT|INTERRES
     7    4    5 1    
     8    4  130 1    
     9    5    6 1    
    10    5   65 1    
    11    5  131 1    
    12    6    7 1    
    13    6  132 1    
    14    6  133 1    
    15    7    8 1    
    16    8    9 1    
    17    8  134 1    
    18    8  135 1    
    19    9   10 ar   
    20    9   14 ar   
    21   10   11 ar   
    22   10  136 1    
    23   11   12 ar   
    24   11  126 1    
    25   12   13 ar   
    26   12  137 1    
    27   13   14 ar   
    28   13   15 1    
    29   14  138 1    
    30   15   16 1    
    31   15  139 1    
    32   15  140 1    
    33   16   17 1    
    34   17   18 1    
    35   17  141 1    
    36   17  142 1    
    37   18   19 1    
    38   18   67 1    
    39   18  143 1    
    40   19   20 am   BACKBONE|DICT|INTERRES
    41   19  144 1    
    42   20   21 2    
    43   20   22 1    
    44   22   23 1    
    45   22   24 1    
    46   22  145 1    
    47   23  146 1    
    48   23  147 1    
    49   23  148 1    
    50   24   25 am   BACKBONE|DICT|INTERRES
    51   24  149 1    
    52   25   26 2    
    53   25   27 1    
    54   27   28 1    
    55   27   29 1    
    56   27  150 1    
    57   28  151 1    
    58   28  152 1    
    59   28  153 1    
    60   29   30 am   BACKBONE|DICT|INTERRES
    61   29  154 1    
    62   30   31 2    
    63   30   32 1    
    64   32   33 1    
    65   32   34 1    
    66   32  155 1    
    67   33  156 1    
    68   33  157 1    
    69   33  158 1    
    70   34   35 am   BACKBONE|DICT|INTERRES
    71   34  159 1    
    72   35   36 2    
    73   35   37 1    
    74   37   38 1    
    75   37   39 1    
    76   37  160 1    
    77   38  161 1    
    78   38  162 1    
    79   38  163 1    
    80   39   40 am   BACKBONE|DICT|INTERRES
    81   39  164 1    
    82   40   41 2    
    83   40   42 1    
    84   42   43 1    
    85   42   44 1    
    86   42  165 1    
    87   43  166 1    
    88   43  167 1    
    89   43  168 1    
    90   44   45 am   BACKBONE|DICT|INTERRES
    91   44  169 1    
    92   45   46 2    
    93   45   47 1    
    94   47   48 1    
    95   47   49 1    
    96   47  170 1    
    97   48  171 1    
    98   48  172 1    
    99   48  173 1    
   100   49   50 am   BACKBONE|DICT|INTERRES
   101   49  174 1    
   102   50   51 2    
   103   50   52 1    
   104   52   53 1    
   105   52   54 1    
   106   52  175 1    
   107   53  176 1    
   108   53  177 1    
   109   53  178 1    
   110   54   55 am   BACKBONE|DICT|INTERRES
   111   54  179 1    
   112   55   56 2    
   113   55   57 1    
   114   57   58 1    
   115   57   59 1    
   116   57  180 1    
   117   58  181 1    
   118   58  182 1    
   119   58  183 1    
   120   59   60 am   BACKBONE|DICT|INTERRES
   121   59  184 1    
   122   60   61 2    
   123   60   62 1    
   124   62   63 1    
   125   62   64 1    
   126   62  185 1    
   127   63  186 1    
   128   63  187 1    
   129   63  188 1    
   130   64   65 am   BACKBONE|DICT|INTERRES
   131   64  189 1    
   132   65   66 2    
   133   67   68 2    
   134   67   69 am   BACKBONE|DICT|INTERRES
   135   69   70 1    
   136   69  190 1    
   137   70   71 1    
   138   70   72 1    
   139   70  191 1    
   140   71  192 1    
   141   71  193 1    
   142   71  194 1    
   143   72   73 2    
   144   72   74 am   BACKBONE|DICT|INTERRES
   145   74   75 1    
   146   74  195 1    
   147   75   76 1    
   148   75   77 1    
   149   75  196 1    
   150   76  197 1    
   151   76  198 1    
   152   76  199 1    
   153   77   78 2    
   154   77   79 am   BACKBONE|DICT|INTERRES
   155   79   80 1    
   156   79  200 1    
   157   80   81 1    
   158   80   82 1    
   159   80  201 1    
   160   81  202 1    
   161   81  203 1    
   162   81  204 1    
   163   82   83 2    
   164   82   84 am   BACKBONE|DICT|INTERRES
   165   84   85 1    
   166   84  205 1    
   167   85   86 1    
   168   85   87 1    
   169   85  206 1    
   170   86  207 1    
   171   86  208 1    
   172   86  209 1    
   173   87   88 2    
   174   87   89 am   BACKBONE|DICT|INTERRES
   175   89   90 1    
   176   89  210 1    
   177   90   91 1    
   178   90   92 1    
   179   90  211 1    
   180   91  212 1    
   181   91  213 1    
   182   91  214 1    
   183   92   93 2    
   184   92   94 am   BACKBONE|DICT|INTERRES
   185   94   95 1    
   186   94  215 1    
   187   95   96 1    
   188   95   97 1    
   189   95  216 1    
   190   96  217 1    
   191   96  218 1    
   192   96  219 1    
   193   97   98 2    
   194   97   99 am   BACKBONE|DICT|INTERRES
   195   99  100 1    
   196   99  220 1    
   197  100  101 1    
   198  100  102 1    
   199  100  221 1    
   200  101  222 1    
   201  101  223 1    
   202  101  224 1    
   203  102  103 2    
   204  102  104 am   BACKBONE|DICT|INTERRES
   205  104  105 1    
   206  104  225 1    
   207  105  106 1    
   208  105  107 1    
   209  105  226 1    
   210  106  227 1    
   211  106  228 1    
   212  106  229 1    
   213  107  108 2    
   214  107  109 am   BACKBONE|DICT|INTERRES
   215  109  110 1    
   216  109  230 1    
   217  110  111 1    
   218  110  112 1    
   219  110  231 1    
   220  111  232 1    
   221  111  233 1    
   222  111  234 1    
   223  112  113 2    
   224  112  114 am   BACKBONE|DICT|INTERRES
   225  114  115 1    
   226  114  235 1    
   227  115  116 1    
   228  115  117 1    
   229  115  236 1    
   230  116  237 1    
   231  116  238 1    
   232  116  239 1    
   233  117  118 2    
   234  117  119 am   BACKBONE|DICT|INTERRES
   235  119  120 1    
   236  119  240 1    
   237  120  121 1    
   238  120  124 1    
   239  120  241 1    
   240  121  122 am   BACKBONE|DICT|INTERRES
   241  121  123 2    
   242  122  242 1    
   243  122  243 1    
   244  124  125 1    
   245  124  244 1    
   246  124  245 1    
   247  125  126 1    
   248  126  246 1    
   249  126  247 1    
@<TRIPOS>SUBSTRUCTURE
     1 UNK         1 GROUP             0       ****    0 ROOT    
