@<TRIPOS>MOLECULE
3R540
247   249    1
SMALL
USER_CHARGES


@<TRIPOS>ATOM
      1 CA         -4.7248   -9.2919  -47.4008 C.3       0 UNK        -0.1800 
      2 C          -3.2940   -9.7295  -47.6793 C.2       0 UNK         0.5000 
      3 O          -2.3648   -8.9392  -47.5071 O.2       0 UNK        -0.5000 
      4 N          -3.1102  -10.9828  -48.1112 N.am      1 UNK        -0.5000 
      5 CA         -1.8149  -11.6073  -48.3892 C.3       1 UNK         0.1400 
      6 C6         -1.9232  -12.7637  -49.4192 C.3       23 UNK        -0.0398 
      7 S7         -3.2290  -13.9960  -49.0750 S.3       23 UNK        -0.2404 
      8 C8         -3.1609  -15.0042  -50.5983 C.3       23 UNK        -0.0205 
      9 C9         -1.8804  -15.8182  -50.8067 C.ar      23 UNK        -0.0193 
     10 C10        -1.5860  -16.2918  -52.0918 C.ar      23 UNK        -0.1150 
     11 C11        -0.4448  -17.0655  -52.3274 C.ar      23 UNK        -0.0193 
     12 C12         0.4258  -17.3381  -51.2720 C.ar      23 UNK        -0.1150 
     13 C13         0.1377  -16.8962  -49.9821 C.ar      23 UNK        -0.0193 
     14 C14        -1.0148  -16.1411  -49.7526 C.ar      23 UNK        -0.1150 
     15 C15         1.0635  -17.2598  -48.8351 C.3       23 UNK        -0.0205 
     16 S16         0.9258  -19.0178  -48.3863 S.3       23 UNK        -0.2404 
     17 C17        -0.7982  -19.1112  -47.7969 C.3       23 UNK        -0.0398 
     18 CA         -1.2216  -20.5583  -47.4625 C.3       11 UNK         0.1400 
     19 N          -0.3438  -21.1834  -46.4681 N.am      11 UNK        -0.5000 
     20 C          -0.2916  -22.4996  -46.2238 C.2       10 UNK         0.5000 
     21 O          -0.9614  -23.3317  -46.8331 O.2       10 UNK        -0.5000 
     22 CA          0.6201  -22.9512  -45.0664 C.3       10 UNK         0.1400 
     23 CB          2.0467  -23.2035  -45.5720 C.3       10 UNK        -0.1800 
     24 N           0.6449  -21.9921  -43.9556 N.am      10 UNK        -0.5000 
     25 C          -0.4319  -21.6803  -43.2170 C.2       9 UNK         0.5000 
     26 O          -1.5332  -22.2010  -43.3981 O.2       9 UNK        -0.5000 
     27 CA         -0.2990  -20.5641  -42.1608 C.3       9 UNK         0.1400 
     28 CB         -1.0937  -20.8687  -40.8736 C.3       9 UNK        -0.1800 
     29 N           1.0799  -20.1675  -41.8635 N.am      9 UNK        -0.5000 
     30 C           2.0158  -20.8735  -41.2128 C.2       8 UNK         0.5000 
     31 O           1.8385  -22.0096  -40.7703 O.2       8 UNK        -0.5000 
     32 CA          3.3838  -20.1787  -41.0508 C.3       8 UNK         0.1400 
     33 CB          4.4915  -21.1271  -40.5467 C.3       8 UNK        -0.1800 
     34 N           3.8166  -19.4801  -42.2657 N.am      8 UNK        -0.5000 
     35 C           4.0362  -20.0159  -43.4769 C.2       7 UNK         0.5000 
     36 O           3.8504  -21.2052  -43.7323 O.2       7 UNK        -0.5000 
     37 CA          4.5181  -19.0804  -44.6075 C.3       7 UNK         0.1400 
     38 CB          3.5331  -19.1093  -45.7876 C.3       7 UNK        -0.1800 
     39 N           4.6977  -17.6908  -44.1869 N.am      7 UNK        -0.5000 
     40 C           5.7107  -17.2141  -43.4520 C.2       6 UNK         0.5000 
     41 O           6.6761  -17.8887  -43.0938 O.2       6 UNK        -0.5000 
     42 CA          5.5862  -15.7485  -42.9920 C.3       6 UNK         0.1400 
     43 CB          6.1748  -14.7915  -44.0399 C.3       6 UNK        -0.1800 
     44 N           4.1992  -15.3674  -42.7048 N.am      6 UNK        -0.5000 
     45 C           3.4658  -15.8597  -41.6953 C.2       5 UNK         0.5000 
     46 O           3.8921  -16.6708  -40.8733 O.2       5 UNK        -0.5000 
     47 CA          1.9951  -15.4127  -41.6266 C.3       5 UNK         0.1400 
     48 CB          1.8727  -14.0278  -40.9739 C.3       5 UNK        -0.1800 
     49 N           1.3731  -15.3932  -42.9507 N.am      5 UNK        -0.5000 
     50 C           1.0425  -16.4977  -43.6372 C.2       4 UNK         0.5000 
     51 O           1.1749  -17.6397  -43.1954 O.2       4 UNK        -0.5000 
     52 CA          0.5134  -16.3070  -45.0725 C.3       4 UNK         0.1400 
     53 CB         -1.0189  -16.2102  -45.0768 C.3       4 UNK        -0.1800 
     54 N           1.0731  -15.1383  -45.7544 N.am      4 UNK        -0.5000 
     55 C           2.3797  -14.9498  -45.9991 C.2       3 UNK         0.5000 
     56 O           3.2400  -15.7880  -45.7391 O.2       3 UNK        -0.5000 
     57 CA          2.8172  -13.5922  -46.5861 C.3       3 UNK         0.1400 
     58 CB          3.0358  -13.7236  -48.1008 C.3       3 UNK        -0.1800 
     59 N           1.8762  -12.4983  -46.3378 N.am      3 UNK        -0.5000 
     60 C           1.4069  -12.1055  -45.1444 C.2       2 UNK         0.5000 
     61 O           1.8128  -12.5557  -44.0721 O.2       2 UNK        -0.5000 
     62 CA          0.2397  -11.0958  -45.1504 C.3       2 UNK         0.1400 
     63 CB          0.7403   -9.6972  -44.7605 C.3       2 UNK        -0.1800 
     64 N          -0.4943  -11.0003  -46.4202 N.am      2 UNK        -0.5000 
     65 C          -1.1022  -12.0011  -47.0753 C.2       1 UNK         0.5000 
     66 O          -1.0993  -13.1695  -46.6820 O.2       1 UNK        -0.5000 
     67 C          -2.7003  -20.6027  -47.0241 C.2       11 UNK         0.5000 
     68 O          -3.5787  -20.7587  -47.8711 O.2       11 UNK        -0.5000 
     69 N          -2.9523  -20.5044  -45.7095 N.am      12 UNK        -0.5000 
     70 CA         -4.2820  -20.6628  -45.1196 C.3       12 UNK         0.1400 
     71 CB         -4.2841  -20.1667  -43.6659 C.3       12 UNK        -0.1800 
     72 C          -4.7675  -22.1188  -45.2230 C.2       12 UNK         0.5000 
     73 O          -5.9066  -22.3505  -45.6310 O.2       12 UNK        -0.5000 
     74 N          -3.8675  -23.0664  -44.9180 N.am      13 UNK        -0.5000 
     75 CA         -4.0755  -24.5100  -45.0551 C.3       13 UNK         0.1400 
     76 CB         -2.8726  -25.2589  -44.4634 C.3       13 UNK        -0.1800 
     77 C          -4.3402  -24.9564  -46.5070 C.2       13 UNK         0.5000 
     78 O          -5.1096  -25.8939  -46.7181 O.2       13 UNK        -0.5000 
     79 N          -3.7700  -24.2384  -47.4854 N.am      14 UNK        -0.5000 
     80 CA         -4.0125  -24.3731  -48.9271 C.3       14 UNK         0.1400 
     81 CB         -2.8319  -23.7370  -49.6857 C.3       14 UNK        -0.1800 
     82 C          -5.3787  -23.7948  -49.3743 C.2       14 UNK         0.5000 
     83 O          -5.4706  -23.1779  -50.4383 O.2       14 UNK        -0.5000 
     84 N          -6.4156  -23.9987  -48.5488 N.am      15 UNK        -0.5000 
     85 CA         -7.8041  -23.5608  -48.7101 C.3       15 UNK         0.1400 
     86 CB         -8.4783  -24.3574  -49.8470 C.3       15 UNK        -0.1800 
     87 C          -7.9333  -22.0335  -48.8824 C.2       15 UNK         0.5000 
     88 O          -8.6529  -21.5765  -49.7691 O.2       15 UNK        -0.5000 
     89 N          -7.1968  -21.2699  -48.0600 N.am      16 UNK        -0.5000 
     90 CA         -7.0469  -19.8087  -48.1360 C.3       16 UNK         0.1400 
     91 CB         -8.3566  -19.1004  -47.7324 C.3       16 UNK        -0.1800 
     92 C          -6.4965  -19.3464  -49.5037 C.2       16 UNK         0.5000 
     93 O          -6.9999  -18.3889  -50.0936 O.2       16 UNK        -0.5000 
     94 N          -5.4833  -20.0805  -49.9821 N.am      17 UNK        -0.5000 
     95 CA         -4.7956  -19.9594  -51.2682 C.3       17 UNK         0.1400 
     96 CB         -4.0447  -18.6185  -51.3585 C.3       17 UNK        -0.1800 
     97 C          -5.6886  -20.2292  -52.4994 C.2       17 UNK         0.5000 
     98 O          -5.3335  -19.8165  -53.6047 O.2       17 UNK        -0.5000 
     99 N          -6.8179  -20.9296  -52.3120 N.am      18 UNK        -0.5000 
    100 CA        -7.6758  -21.3916  -53.4052 C.3       18 UNK         0.1400 
    101 CB        -9.0927  -21.6727  -52.8860 C.3       18 UNK        -0.1800 
    102 C         -7.1005  -22.6350  -54.1069 C.2       18 UNK         0.5000 
    103 O         -7.3955  -22.8472  -55.2844 O.2       18 UNK        -0.5000 
    104 N         -6.2869  -23.4278  -53.3927 N.am      19 UNK        -0.5000 
    105 CA        -5.5161  -24.5272  -53.9696 C.3       19 UNK         0.1400 
    106 CB        -5.0475  -25.4670  -52.8493 C.3       19 UNK        -0.1800 
    107 C         -4.3184  -23.9833  -54.7711 C.2       19 UNK         0.5000 
    108 O         -3.7535  -22.9470  -54.4106 O.2       19 UNK        -0.5000 
    109 N         -3.9566  -24.6951  -55.8447 N.am      20 UNK        -0.5000 
    110 CA        -2.8597  -24.3440  -56.7471 C.3       20 UNK         0.1400 
    111 CB        -2.9044  -25.2799  -57.9655 C.3       20 UNK        -0.1800 
    112 C         -1.4781  -24.4120  -56.0680 C.2       20 UNK         0.5000 
    113 O         -1.2808  -25.2149  -55.1522 O.2       20 UNK        -0.5000 
    114 N         -0.5460  -23.5904  -56.5719 N.am      21 UNK        -0.5000 
    115 CA         0.8513  -23.4683  -56.1409 C.3       21 UNK         0.1400 
    116 CB         1.6382  -24.7585  -56.4575 C.3       21 UNK        -0.1800 
    117 C          0.9926  -23.0108  -54.6732 C.2       21 UNK         0.5000 
    118 O          1.7636  -23.5972  -53.9102 O.2       21 UNK        -0.5000 
    119 N          0.2392  -21.9647  -54.3080 N.am      22 UNK        -0.5000 
    120 CA         0.3360  -21.2721  -53.0139 C.3       22 UNK         0.1400 
    121 C          1.7242  -20.6127  -52.7634 C.2       22 UNK         0.5000 
    122 N          2.1491  -20.5053  -51.5116 N.am      22 UNK        -0.7600 
    123 O          2.4103  -20.1779  -53.6862 O.2       22 UNK        -0.5000 
    124 C124       -0.8329  -20.2722  -52.7957 C.3       23 UNK        -0.0398 
    125 S125       -1.1353  -19.0792  -54.1559 S.3       23 UNK        -0.2404 
    126 C126       -0.1388  -17.6120  -53.7151 C.3       23 UNK        -0.0205 
    127 H127       -4.9843   -8.4377  -48.0262 H         1 UNK         0.0600 
    128 H128       -5.4392  -10.0906  -47.6021 H         1 UNK         0.0600 
    129 H129       -4.8300   -8.9963  -46.3569 H         1 UNK         0.0600 
    130 H130       -3.9060  -11.5976  -48.2126 H         1 UNK         0.3000 
    131 H131       -1.1805  -10.8542  -48.8624 H         1 UNK         0.0600 
    132 H132       -0.9644  -13.2749  -49.5196 H         1 UNK         0.0800 
    133 H133       -2.1292  -12.3372  -50.4018 H         1 UNK         0.0800 
    134 H134       -3.3214  -14.3475  -51.4546 H         1 UNK         0.0800 
    135 H135       -4.0044  -15.6938  -50.5789 H         1 UNK         0.0800 
    136 H136       -2.2580  -16.0761  -52.9107 H         1 UNK         0.1150 
    137 H137        1.3168  -17.9234  -51.4454 H         1 UNK         0.1150 
    138 H138       -1.2331  -15.8155  -48.7460 H         1 UNK         0.1150 
    139 H139        2.0951  -17.0420  -49.1148 H         1 UNK         0.0800 
    140 H140        0.8452  -16.6455  -47.9650 H         1 UNK         0.0800 
    141 H141       -0.9067  -18.4636  -46.9270 H         1 UNK         0.0800 
    142 H142       -1.4522  -18.7065  -48.5712 H         1 UNK         0.0800 
    143 H143       -1.1461  -21.1427  -48.3822 H         1 UNK         0.0600 
    144 H144        0.2635  -20.5697  -45.9467 H         1 UNK         0.3000 
    145 H145        0.2260  -23.8944  -44.6831 H         1 UNK         0.0600 
    146 H146        2.6874  -23.5787  -44.7737 H         1 UNK         0.0600 
    147 H147        2.0521  -23.9472  -46.3698 H         1 UNK         0.0600 
    148 H148        2.5007  -22.2951  -45.9678 H         1 UNK         0.0600 
    149 H149        1.5339  -21.5579  -43.7427 H         1 UNK         0.3000 
    150 H150       -0.7569  -19.6843  -42.6148 H         1 UNK         0.0600 
    151 H151       -2.1574  -20.9791  -41.0855 H         1 UNK         0.0600 
    152 H152       -0.9928  -20.0622  -40.1474 H         1 UNK         0.0600 
    153 H153       -0.7634  -21.7929  -40.3994 H         1 UNK         0.0600 
    154 H154        1.3356  -19.2510  -42.2263 H         1 UNK         0.3000 
    155 H155        3.2422  -19.4084  -40.2915 H         1 UNK         0.0600 
    156 H156        4.2307  -21.5523  -39.5769 H         1 UNK         0.0600 
    157 H157        5.4365  -20.5978  -40.4242 H         1 UNK         0.0600 
    158 H158        4.6587  -21.9575  -41.2334 H         1 UNK         0.0600 
    159 H159        3.9671  -18.4854  -42.1554 H         1 UNK         0.3000 
    160 H160        5.4801  -19.4608  -44.9563 H         1 UNK         0.0600 
    161 H161        2.5312  -18.8116  -45.4795 H         1 UNK         0.0600 
    162 H162        3.4610  -20.1084  -46.2172 H         1 UNK         0.0600 
    163 H163        3.8497  -18.4395  -46.5874 H         1 UNK         0.0600 
    164 H164        3.9959  -17.0318  -44.5131 H         1 UNK         0.3000 
    165 H165        6.1624  -15.6397  -42.0707 H         1 UNK         0.0600 
    166 H166        7.2236  -15.0226  -44.2305 H         1 UNK         0.0600 
    167 H167        5.6483  -14.8580  -44.9920 H         1 UNK         0.0600 
    168 H168        6.1270  -13.7566  -43.7009 H         1 UNK         0.0600 
    169 H169        3.7592  -14.7315  -43.3536 H         1 UNK         0.3000 
    170 H170        1.4549  -16.1281  -41.0026 H         1 UNK         0.0600 
    171 H171        2.2787  -14.0384  -39.9616 H         1 UNK         0.0600 
    172 H172        2.4138  -13.2652  -41.5348 H         1 UNK         0.0600 
    173 H173        0.8307  -13.7156  -40.9035 H         1 UNK         0.0600 
    174 H174        1.2768  -14.4867  -43.3946 H         1 UNK         0.3000 
    175 H175        0.8010  -17.1919  -45.6411 H         1 UNK         0.0600 
    176 H176       -1.3658  -15.3337  -44.5279 H         1 UNK         0.0600 
    177 H177       -1.4076  -16.1385  -46.0930 H         1 UNK         0.0600 
    178 H178       -1.4699  -17.0895  -44.6149 H         1 UNK         0.0600 
    179 H179        0.4165  -14.4083  -46.0128 H         1 UNK         0.3000 
    180 H180        3.7662  -13.3243  -46.1180 H         1 UNK         0.0600 
    181 H181        2.1081  -13.9667  -48.6212 H         1 UNK         0.0600 
    182 H182        3.4288  -12.7998  -48.5257 H         1 UNK         0.0600 
    183 H183        3.7538  -14.5137  -48.3253 H         1 UNK         0.0600 
    184 H184        1.4754  -12.0640  -47.1552 H         1 UNK         0.3000 
    185 H185       -0.4706  -11.4289  -44.3914 H         1 UNK         0.0600 
    186 H186       -0.0879   -8.9952  -44.6604 H         1 UNK         0.0600 
    187 H187        1.2623   -9.7200  -43.8028 H         1 UNK         0.0600 
    188 H188        1.4322   -9.2975  -45.5029 H         1 UNK         0.0600 
    189 H189       -0.6183  -10.0656  -46.7910 H         1 UNK         0.3000 
    190 H190       -2.1772  -20.4374  -45.0683 H         1 UNK         0.3000 
    191 H191       -4.9756  -20.0340  -45.6769 H         1 UNK         0.0600 
    192 H192       -5.2931  -20.1916  -43.2526 H         1 UNK         0.0600 
    193 H193       -3.9313  -19.1374  -43.5983 H         1 UNK         0.0600 
    194 H194       -3.6572  -20.7801  -43.0209 H         1 UNK         0.0600 
    195 H195       -2.9687  -22.7748  -44.5435 H         1 UNK         0.3000 
    196 H196       -4.9584  -24.7687  -44.4674 H         1 UNK         0.0600 
    197 H197       -3.0345  -26.3372  -44.4879 H         1 UNK         0.0600 
    198 H198       -2.7043  -24.9779  -43.4235 H         1 UNK         0.0600 
    199 H199       -1.9575  -25.0532  -45.0177 H         1 UNK         0.0600 
    200 H200       -3.1123  -23.5183  -47.2140 H         1 UNK         0.3000 
    201 H201       -4.0281  -25.4368  -49.1712 H         1 UNK         0.0600 
    202 H202       -2.7850  -22.6606  -49.5261 H         1 UNK         0.0600 
    203 H203       -2.9105  -23.8997  -50.7600 H         1 UNK         0.0600 
    204 H204       -1.8813  -24.1644  -49.3665 H         1 UNK         0.0600 
    205 H205       -6.2240  -24.5384  -47.7122 H         1 UNK         0.3000 
    206 H206       -8.3185  -23.8068  -47.7802 H         1 UNK         0.0600 
    207 H207       -8.4233  -25.4298  -49.6601 H         1 UNK         0.0600 
    208 H208       -9.5340  -24.0990  -49.9374 H         1 UNK         0.0600 
    209 H209       -8.0079  -24.1641  -50.8114 H         1 UNK         0.0600 
    210 H210       -6.6499  -21.7350  -47.3405 H         1 UNK         0.3000 
    211 H211       -6.2897  -19.5326  -47.4045 H         1 UNK         0.0600 
    212 H212       -9.1567  -19.2847  -48.4497 H         1 UNK         0.0600 
    213 H213       -8.2136  -18.0209  -47.6737 H         1 UNK         0.0600 
    214 H214       -8.6994  -19.4357  -46.7536 H         1 UNK         0.0600 
    215 H215       -5.1277  -20.8181  -49.3850 H         1 UNK         0.3000 
    216 H216       -4.0460  -20.7520  -51.2725 H         1 UNK         0.0600 
    217 H217       -4.7338  -17.7778  -51.4303 H         1 UNK         0.0600 
    218 H218       -3.4049  -18.5879  -52.2397 H         1 UNK         0.0600 
    219 H219       -3.4052  -18.4627  -50.4895 H         1 UNK         0.0600 
    220 H220       -7.0643  -21.2265  -51.3758 H         1 UNK         0.3000 
    221 H221       -7.7503  -20.5955  -54.1491 H         1 UNK         0.0600 
    222 H222       -9.1113  -22.5200  -52.2014 H         1 UNK         0.0600 
    223 H223       -9.5031  -20.8075  -52.3650 H         1 UNK         0.0600 
    224 H224       -9.7677  -21.9073  -53.7099 H         1 UNK         0.0600 
    225 H225       -6.0576  -23.1687  -52.4388 H         1 UNK         0.3000 
    226 H226       -6.1665  -25.0933  -54.6399 H         1 UNK         0.0600 
    227 H227       -5.8860  -25.8154  -52.2459 H         1 UNK         0.0600 
    228 H228       -4.5514  -26.3466  -53.2611 H         1 UNK         0.0600 
    229 H229       -4.3381  -24.9749  -52.1864 H         1 UNK         0.0600 
    230 H230       -4.4468  -25.5528  -56.0517 H         1 UNK         0.3000 
    231 H231       -3.0269  -23.3204  -57.0893 H         1 UNK         0.0600 
    232 H232       -2.7638  -26.3224  -57.6765 H         1 UNK         0.0600 
    233 H233       -3.8569  -25.2015  -58.4901 H         1 UNK         0.0600 
    234 H234       -2.1201  -25.0304  -58.6814 H         1 UNK         0.0600 
    235 H235       -0.8157  -22.9749  -57.3269 H         1 UNK         0.3000 
    236 H236        1.2870  -22.6704  -56.7443 H         1 UNK         0.0600 
    237 H237        1.5395  -25.0327  -57.5078 H         1 UNK         0.0600 
    238 H238        2.7019  -24.6254  -56.2567 H         1 UNK         0.0600 
    239 H239        1.2967  -25.6022  -55.8572 H         1 UNK         0.0600 
    240 H240       -0.3662  -21.5338  -54.9912 H         1 UNK         0.3000 
    241 H241        0.2281  -22.0486  -52.2536 H         1 UNK         0.0600 
    242 H242        3.0469  -20.0816  -51.3398 H         1 UNK         0.3800 
    243 H243        1.6070  -20.8390  -50.7305 H         1 UNK         0.3800 
    244 H244       -0.7292  -19.7499  -51.8448 H         1 UNK         0.0800 
    245 H245       -1.7541  -20.8475  -52.6911 H         1 UNK         0.0800 
    246 H246        0.9199  -17.8590  -53.8030 H         1 UNK         0.0800 
    247 H247       -0.3238  -16.8319  -54.4546 H         1 UNK         0.0800 
@<TRIPOS>BOND
     1    1    2 1    
     2    1  127 1    
     3    1  128 1    
     4    1  129 1    
     5    2    3 2    
     6    2    4 am   BACKBONE|DICT|INTERRES
     7    4    5 1    
     8    4  130 1    
     9    5    6 1    
    10    5   65 1    
    11    5  131 1    
    12    6    7 1    
    13    6  132 1    
    14    6  133 1    
    15    7    8 1    
    16    8    9 1    
    17    8  134 1    
    18    8  135 1    
    19    9   10 ar   
    20    9   14 ar   
    21   10   11 ar   
    22   10  136 1    
    23   11   12 ar   
    24   11  126 1    
    25   12   13 ar   
    26   12  137 1    
    27   13   14 ar   
    28   13   15 1    
    29   14  138 1    
    30   15   16 1    
    31   15  139 1    
    32   15  140 1    
    33   16   17 1    
    34   17   18 1    
    35   17  141 1    
    36   17  142 1    
    37   18   19 1    
    38   18   67 1    
    39   18  143 1    
    40   19   20 am   BACKBONE|DICT|INTERRES
    41   19  144 1    
    42   20   21 2    
    43   20   22 1    
    44   22   23 1    
    45   22   24 1    
    46   22  145 1    
    47   23  146 1    
    48   23  147 1    
    49   23  148 1    
    50   24   25 am   BACKBONE|DICT|INTERRES
    51   24  149 1    
    52   25   26 2    
    53   25   27 1    
    54   27   28 1    
    55   27   29 1    
    56   27  150 1    
    57   28  151 1    
    58   28  152 1    
    59   28  153 1    
    60   29   30 am   BACKBONE|DICT|INTERRES
    61   29  154 1    
    62   30   31 2    
    63   30   32 1    
    64   32   33 1    
    65   32   34 1    
    66   32  155 1    
    67   33  156 1    
    68   33  157 1    
    69   33  158 1    
    70   34   35 am   BACKBONE|DICT|INTERRES
    71   34  159 1    
    72   35   36 2    
    73   35   37 1    
    74   37   38 1    
    75   37   39 1    
    76   37  160 1    
    77   38  161 1    
    78   38  162 1    
    79   38  163 1    
    80   39   40 am   BACKBONE|DICT|INTERRES
    81   39  164 1    
    82   40   41 2    
    83   40   42 1    
    84   42   43 1    
    85   42   44 1    
    86   42  165 1    
    87   43  166 1    
    88   43  167 1    
    89   43  168 1    
    90   44   45 am   BACKBONE|DICT|INTERRES
    91   44  169 1    
    92   45   46 2    
    93   45   47 1    
    94   47   48 1    
    95   47   49 1    
    96   47  170 1    
    97   48  171 1    
    98   48  172 1    
    99   48  173 1    
   100   49   50 am   BACKBONE|DICT|INTERRES
   101   49  174 1    
   102   50   51 2    
   103   50   52 1    
   104   52   53 1    
   105   52   54 1    
   106   52  175 1    
   107   53  176 1    
   108   53  177 1    
   109   53  178 1    
   110   54   55 am   BACKBONE|DICT|INTERRES
   111   54  179 1    
   112   55   56 2    
   113   55   57 1    
   114   57   58 1    
   115   57   59 1    
   116   57  180 1    
   117   58  181 1    
   118   58  182 1    
   119   58  183 1    
   120   59   60 am   BACKBONE|DICT|INTERRES
   121   59  184 1    
   122   60   61 2    
   123   60   62 1    
   124   62   63 1    
   125   62   64 1    
   126   62  185 1    
   127   63  186 1    
   128   63  187 1    
   129   63  188 1    
   130   64   65 am   BACKBONE|DICT|INTERRES
   131   64  189 1    
   132   65   66 2    
   133   67   68 2    
   134   67   69 am   BACKBONE|DICT|INTERRES
   135   69   70 1    
   136   69  190 1    
   137   70   71 1    
   138   70   72 1    
   139   70  191 1    
   140   71  192 1    
   141   71  193 1    
   142   71  194 1    
   143   72   73 2    
   144   72   74 am   BACKBONE|DICT|INTERRES
   145   74   75 1    
   146   74  195 1    
   147   75   76 1    
   148   75   77 1    
   149   75  196 1    
   150   76  197 1    
   151   76  198 1    
   152   76  199 1    
   153   77   78 2    
   154   77   79 am   BACKBONE|DICT|INTERRES
   155   79   80 1    
   156   79  200 1    
   157   80   81 1    
   158   80   82 1    
   159   80  201 1    
   160   81  202 1    
   161   81  203 1    
   162   81  204 1    
   163   82   83 2    
   164   82   84 am   BACKBONE|DICT|INTERRES
   165   84   85 1    
   166   84  205 1    
   167   85   86 1    
   168   85   87 1    
   169   85  206 1    
   170   86  207 1    
   171   86  208 1    
   172   86  209 1    
   173   87   88 2    
   174   87   89 am   BACKBONE|DICT|INTERRES
   175   89   90 1    
   176   89  210 1    
   177   90   91 1    
   178   90   92 1    
   179   90  211 1    
   180   91  212 1    
   181   91  213 1    
   182   91  214 1    
   183   92   93 2    
   184   92   94 am   BACKBONE|DICT|INTERRES
   185   94   95 1    
   186   94  215 1    
   187   95   96 1    
   188   95   97 1    
   189   95  216 1    
   190   96  217 1    
   191   96  218 1    
   192   96  219 1    
   193   97   98 2    
   194   97   99 am   BACKBONE|DICT|INTERRES
   195   99  100 1    
   196   99  220 1    
   197  100  101 1    
   198  100  102 1    
   199  100  221 1    
   200  101  222 1    
   201  101  223 1    
   202  101  224 1    
   203  102  103 2    
   204  102  104 am   BACKBONE|DICT|INTERRES
   205  104  105 1    
   206  104  225 1    
   207  105  106 1    
   208  105  107 1    
   209  105  226 1    
   210  106  227 1    
   211  106  228 1    
   212  106  229 1    
   213  107  108 2    
   214  107  109 am   BACKBONE|DICT|INTERRES
   215  109  110 1    
   216  109  230 1    
   217  110  111 1    
   218  110  112 1    
   219  110  231 1    
   220  111  232 1    
   221  111  233 1    
   222  111  234 1    
   223  112  113 2    
   224  112  114 am   BACKBONE|DICT|INTERRES
   225  114  115 1    
   226  114  235 1    
   227  115  116 1    
   228  115  117 1    
   229  115  236 1    
   230  116  237 1    
   231  116  238 1    
   232  116  239 1    
   233  117  118 2    
   234  117  119 am   BACKBONE|DICT|INTERRES
   235  119  120 1    
   236  119  240 1    
   237  120  121 1    
   238  120  124 1    
   239  120  241 1    
   240  121  122 am   BACKBONE|DICT|INTERRES
   241  121  123 2    
   242  122  242 1    
   243  122  243 1    
   244  124  125 1    
   245  124  244 1    
   246  124  245 1    
   247  125  126 1    
   248  126  246 1    
   249  126  247 1    
@<TRIPOS>SUBSTRUCTURE
     1 UNK         1 GROUP             0       ****    0 ROOT    
