@<TRIPOS>MOLECULE
3R540
247   249    1
SMALL
USER_CHARGES


@<TRIPOS>ATOM
      1 CA          1.4701  -10.7297  -54.6089 C.3       0 UNK        -0.1800 
      2 C           1.4703  -11.8944  -53.6293 C.2       0 UNK         0.5000 
      3 O           1.9644  -12.9737  -53.9582 O.2       0 UNK        -0.5000 
      4 N           0.9221  -11.6846  -52.4256 N.am      1 UNK        -0.5000 
      5 CA          0.8582  -12.6703  -51.3443 C.3       1 UNK         0.1400 
      6 C6         -0.3054  -12.3680  -50.3666 C.3       23 UNK        -0.0398 
      7 S7         -0.7008  -13.7893  -49.2885 S.3       23 UNK        -0.2404 
      8 C8         -2.1488  -14.4851  -50.1360 C.3       23 UNK        -0.0205 
      9 C9         -2.7184  -15.6615  -49.3618 C.ar      23 UNK        -0.0193 
     10 C10        -3.7491  -15.4672  -48.4370 C.ar      23 UNK        -0.1150 
     11 C11        -4.2921  -16.5507  -47.7388 C.ar      23 UNK        -0.0193 
     12 C12        -3.7903  -17.8350  -47.9685 C.ar      23 UNK        -0.1150 
     13 C13        -2.7498  -18.0380  -48.8792 C.ar      23 UNK        -0.0193 
     14 C14        -2.2186  -16.9485  -49.5739 C.ar      23 UNK        -0.1150 
     15 C15        -2.1945  -19.4303  -49.1221 C.3       23 UNK        -0.0205 
     16 S16        -0.6833  -19.7166  -48.1522 S.3       23 UNK        -0.2404 
     17 C17        -1.3687  -20.2363  -46.5466 C.3       23 UNK        -0.0398 
     18 CA         -1.2456  -21.7648  -46.3595 C.3       11 UNK         0.1400 
     19 N          -1.1884  -22.1443  -44.9484 N.am      11 UNK        -0.5000 
     20 C          -0.9133  -23.3734  -44.4918 C.2       10 UNK         0.5000 
     21 O          -0.6598  -24.3321  -45.2217 O.2       10 UNK        -0.5000 
     22 CA         -1.0024  -23.5709  -42.9707 C.3       10 UNK         0.1400 
     23 CB          0.2684  -23.0647  -42.2704 C.3       10 UNK        -0.1800 
     24 N          -2.1784  -22.8879  -42.4297 N.am      10 UNK        -0.5000 
     25 C          -3.4309  -23.3524  -42.5456 C.2       9 UNK         0.5000 
     26 O          -3.7064  -24.4507  -43.0279 O.2       9 UNK        -0.5000 
     27 CA         -4.5693  -22.4323  -42.0637 C.3       9 UNK         0.1400 
     28 CB         -4.8959  -22.7094  -40.5887 C.3       9 UNK        -0.1800 
     29 N          -4.2684  -21.0090  -42.2282 N.am      9 UNK        -0.5000 
     30 C          -4.1954  -20.3755  -43.4075 C.2       8 UNK         0.5000 
     31 O          -4.3913  -20.9232  -44.4931 O.2       8 UNK        -0.5000 
     32 CA         -3.7674  -18.8944  -43.3655 C.3       8 UNK         0.1400 
     33 CB         -4.9780  -17.9779  -43.1409 C.3       8 UNK        -0.1800 
     34 N          -2.7587  -18.6051  -42.3407 N.am      8 UNK        -0.5000 
     35 C          -1.5408  -19.1574  -42.2984 C.2       7 UNK         0.5000 
     36 O          -1.1575  -20.0193  -43.0917 O.2       7 UNK        -0.5000 
     37 CA         -0.6162  -18.7206  -41.1488 C.3       7 UNK         0.1400 
     38 CB         -0.7737  -19.6728  -39.9532 C.3       7 UNK        -0.1800 
     39 N           0.7824  -18.7224  -41.5765 N.am      7 UNK        -0.5000 
     40 C           1.3009  -17.8494  -42.4485 C.2       6 UNK         0.5000 
     41 O           0.6855  -16.8723  -42.8832 O.2       6 UNK        -0.5000 
     42 CA          2.7289  -18.1514  -42.9342 C.3       6 UNK         0.1400 
     43 CB          2.7017  -19.2441  -44.0171 C.3       6 UNK        -0.1800 
     44 N           3.3535  -16.9504  -43.4857 N.am      6 UNK        -0.5000 
     45 C           4.0348  -16.0473  -42.7665 C.2       5 UNK         0.5000 
     46 O           4.2861  -16.1837  -41.5681 O.2       5 UNK        -0.5000 
     47 CA          4.5289  -14.7782  -43.4949 C.3       5 UNK         0.1400 
     48 CB          5.9951  -14.9418  -43.9242 C.3       5 UNK        -0.1800 
     49 N           3.7294  -14.4362  -44.6710 N.am      5 UNK        -0.5000 
     50 C           2.4697  -13.9804  -44.6352 C.2       4 UNK         0.5000 
     51 O           1.8957  -13.6601  -43.5936 O.2       4 UNK        -0.5000 
     52 CA          1.7173  -13.8610  -45.9795 C.3       4 UNK         0.1400 
     53 CB          1.5640  -12.3823  -46.3688 C.3       4 UNK        -0.1800 
     54 N           2.3109  -14.5939  -47.1079 N.am      4 UNK        -0.5000 
     55 C           2.5272  -15.9186  -47.1568 C.2       3 UNK         0.5000 
     56 O           2.3053  -16.6695  -46.2084 O.2       3 UNK        -0.5000 
     57 CA          3.1021  -16.5224  -48.4537 C.3       3 UNK         0.1400 
     58 CB          2.1504  -17.5799  -49.0254 C.3       3 UNK        -0.1800 
     59 N           3.3712  -15.5390  -49.4992 N.am      3 UNK        -0.5000 
     60 C           4.4583  -14.7618  -49.5853 C.2       2 UNK         0.5000 
     61 O           5.3809  -14.7838  -48.7708 O.2       2 UNK        -0.5000 
     62 CA          4.5070  -13.7822  -50.7775 C.3       2 UNK         0.1400 
     63 CB          5.3697  -14.3577  -51.9106 C.3       2 UNK        -0.1800 
     64 N           3.1800  -13.4579  -51.3118 N.am      2 UNK        -0.5000 
     65 C           2.2297  -12.7918  -50.6440 C.2       1 UNK         0.5000 
     66 O           2.4116  -12.2997  -49.5300 O.2       1 UNK        -0.5000 
     67 C          -2.3338  -22.5342  -47.1391 C.2       11 UNK         0.5000 
     68 O          -2.1093  -22.8802  -48.2978 O.2       11 UNK        -0.5000 
     69 N          -3.4568  -22.8521  -46.4788 N.am      12 UNK        -0.5000 
     70 CA         -4.5267  -23.6962  -47.0145 C.3       12 UNK         0.1400 
     71 CB         -5.6950  -23.7423  -46.0183 C.3       12 UNK        -0.1800 
     72 C          -4.0708  -25.1280  -47.3651 C.2       12 UNK         0.5000 
     73 O          -4.6289  -25.7284  -48.2831 O.2       12 UNK        -0.5000 
     74 N          -3.0688  -25.6462  -46.6422 N.am      13 UNK        -0.5000 
     75 CA         -2.4468  -26.9394  -46.9155 C.3       13 UNK         0.1400 
     76 CB         -1.9569  -27.5602  -45.5976 C.3       13 UNK        -0.1800 
     77 C          -1.2913  -26.8065  -47.9230 C.2       13 UNK         0.5000 
     78 O          -1.1715  -27.6444  -48.8175 O.2       13 UNK        -0.5000 
     79 N          -0.4550  -25.7720  -47.7536 N.am      14 UNK        -0.5000 
     80 CA          0.7447  -25.5371  -48.5599 C.3       14 UNK         0.1400 
     81 CB          1.6355  -24.5018  -47.8560 C.3       14 UNK        -0.1800 
     82 C           0.4503  -25.0934  -50.0051 C.2       14 UNK         0.5000 
     83 O           1.1585  -25.5204  -50.9178 O.2       14 UNK        -0.5000 
     84 N          -0.5700  -24.2395  -50.1786 N.am      15 UNK        -0.5000 
     85 CA         -0.9959  -23.6008  -51.4288 C.3       15 UNK         0.1400 
     86 CB         -1.6507  -24.6295  -52.3726 C.3       15 UNK        -0.1800 
     87 C           0.1246  -22.7739  -52.0967 C.2       15 UNK         0.5000 
     88 O           0.3330  -22.8638  -53.3088 O.2       15 UNK        -0.5000 
     89 N           0.8392  -21.9933  -51.2773 N.am      16 UNK        -0.5000 
     90 CA          1.8718  -21.0575  -51.7111 C.3       16 UNK         0.1400 
     91 CB          2.9064  -20.9130  -50.5848 C.3       16 UNK        -0.1800 
     92 C           1.2365  -19.6980  -52.0439 C.2       16 UNK         0.5000 
     93 O           0.3392  -19.2591  -51.3259 O.2       16 UNK        -0.5000 
     94 N           1.7190  -19.0446  -53.1095 N.am      17 UNK        -0.5000 
     95 CA          1.3019  -17.7373  -53.6462 C.3       17 UNK         0.1400 
     96 CB          1.5297  -16.6049  -52.6245 C.3       17 UNK        -0.1800 
     97 C          -0.1338  -17.6943  -54.2157 C.2       17 UNK         0.5000 
     98 O          -0.3246  -17.1875  -55.3220 O.2       17 UNK        -0.5000 
     99 N          -1.1032  -18.2379  -53.4755 N.am      18 UNK        -0.5000 
    100 CA        -2.4904  -18.4403  -53.8765 C.3       18 UNK         0.1400 
    101 CB        -3.4061  -17.6412  -52.9361 C.3       18 UNK        -0.1800 
    102 C         -2.8131  -19.9386  -53.7858 C.2       18 UNK         0.5000 
    103 O         -2.2117  -20.6529  -52.9793 O.2       18 UNK        -0.5000 
    104 N         -3.7796  -20.3898  -54.5940 N.am      19 UNK        -0.5000 
    105 CA        -4.2521  -21.7745  -54.6627 C.3       19 UNK         0.1400 
    106 CB        -5.0108  -21.9711  -55.9873 C.3       19 UNK        -0.1800 
    107 C         -5.1036  -22.1515  -53.4322 C.2       19 UNK         0.5000 
    108 O         -6.3241  -22.2878  -53.5396 O.2       19 UNK        -0.5000 
    109 N         -4.4355  -22.2628  -52.2766 N.am      20 UNK        -0.5000 
    110 CA        -4.9433  -22.5244  -50.9244 C.3       20 UNK         0.1400 
    111 CB        -5.7388  -23.8421  -50.8479 C.3       20 UNK        -0.1800 
    112 C         -5.7355  -21.3417  -50.3412 C.2       20 UNK         0.5000 
    113 O         -5.3843  -20.8525  -49.2673 O.2       20 UNK        -0.5000 
    114 N         -6.7615  -20.8893  -51.0747 N.am      21 UNK        -0.5000 
    115 CA        -7.6117  -19.7298  -50.8021 C.3       21 UNK         0.1400 
    116 CB        -6.8363  -18.4378  -51.1519 C.3       21 UNK        -0.1800 
    117 C         -8.1951  -19.7529  -49.3713 C.2       21 UNK         0.5000 
    118 O         -8.9178  -20.6884  -49.0229 O.2       21 UNK        -0.5000 
    119 N         -7.8610  -18.7328  -48.5785 N.am      22 UNK        -0.5000 
    120 CA        -8.1822  -18.5817  -47.1545 C.3       22 UNK         0.1400 
    121 C         -7.3343  -19.4610  -46.1887 C.2       22 UNK         0.5000 
    122 N         -6.2823  -20.1399  -46.6274 N.am      22 UNK        -0.7600 
    123 O         -7.6460  -19.5279  -45.0035 O.2       22 UNK        -0.5000 
    124 C124       -8.1811  -17.0820  -46.7224 C.3       23 UNK        -0.0398 
    125 S125       -6.9884  -16.0027  -47.6021 S.3       23 UNK        -0.2404 
    126 C126       -5.4201  -16.3316  -46.7412 C.3       23 UNK        -0.0205 
    127 H127        0.9258  -11.0010  -55.5134 H         1 UNK         0.0600 
    128 H128        2.4924  -10.4750  -54.8883 H         1 UNK         0.0600 
    129 H129        1.0020   -9.8417  -54.1835 H         1 UNK         0.0600 
    130 H130        0.5612  -10.7672  -52.2040 H         1 UNK         0.3000 
    131 H131        0.6411  -13.6399  -51.7978 H         1 UNK         0.0600 
    132 H132       -0.0829  -11.5011  -49.7420 H         1 UNK         0.0800 
    133 H133       -1.2016  -12.1007  -50.9281 H         1 UNK         0.0800 
    134 H134       -1.8660  -14.8011  -51.1415 H         1 UNK         0.0800 
    135 H135       -2.9114  -13.7137  -50.2542 H         1 UNK         0.0800 
    136 H136       -4.1371  -14.4729  -48.2657 H         1 UNK         0.1150 
    137 H137       -4.2045  -18.6779  -47.4364 H         1 UNK         0.1150 
    138 H138       -1.4136  -17.1063  -50.2787 H         1 UNK         0.1150 
    139 H139       -2.9360  -20.1917  -48.8848 H         1 UNK         0.0800 
    140 H140       -1.9708  -19.5541  -50.1821 H         1 UNK         0.0800 
    141 H141       -2.3970  -19.8948  -46.4230 H         1 UNK         0.0800 
    142 H142       -0.7881  -19.7165  -45.7831 H         1 UNK         0.0800 
    143 H143       -0.2852  -22.0721  -46.7754 H         1 UNK         0.0600 
    144 H144       -1.3339  -21.3976  -44.2722 H         1 UNK         0.3000 
    145 H145       -1.0919  -24.6415  -42.7736 H         1 UNK         0.0600 
    146 H146        0.2127  -23.2205  -41.1931 H         1 UNK         0.0600 
    147 H147        1.1475  -23.6003  -42.6310 H         1 UNK         0.0600 
    148 H148        0.4403  -22.0031  -42.4469 H         1 UNK         0.0600 
    149 H149       -2.0369  -21.9540  -42.0737 H         1 UNK         0.3000 
    150 H150       -5.4549  -22.6634  -42.6599 H         1 UNK         0.0600 
    151 H151       -5.1483  -23.7596  -40.4356 H         1 UNK         0.0600 
    152 H152       -5.7505  -22.1197  -40.2565 H         1 UNK         0.0600 
    153 H153       -4.0522  -22.4762  -39.9379 H         1 UNK         0.0600 
    154 H154       -4.0892  -20.4804  -41.3874 H         1 UNK         0.3000 
    155 H155       -3.3333  -18.6524  -44.3379 H         1 UNK         0.0600 
    156 H156       -5.4389  -18.1483  -42.1673 H         1 UNK         0.0600 
    157 H157       -4.6947  -16.9270  -43.2013 H         1 UNK         0.0600 
    158 H158       -5.7422  -18.1475  -43.8970 H         1 UNK         0.0600 
    159 H159       -3.0083  -17.9141  -41.6478 H         1 UNK         0.3000 
    160 H160       -0.8862  -17.7099  -40.8354 H         1 UNK         0.0600 
    161 H161       -0.5100  -20.6984  -40.2150 H         1 UNK         0.0600 
    162 H162       -1.8026  -19.6808  -39.5909 H         1 UNK         0.0600 
    163 H163       -0.1407  -19.3667  -39.1201 H         1 UNK         0.0600 
    164 H164        1.3354  -19.5171  -41.2920 H         1 UNK         0.3000 
    165 H165        3.3184  -18.5161  -42.0903 H         1 UNK         0.0600 
    166 H166        3.7014  -19.4450  -44.4023 H         1 UNK         0.0600 
    167 H167        2.3117  -20.1817  -43.6189 H         1 UNK         0.0600 
    168 H168        2.0678  -18.9631  -44.8591 H         1 UNK         0.0600 
    169 H169        3.1031  -16.7317  -44.4461 H         1 UNK         0.3000 
    170 H170        4.4704  -13.9480  -42.7879 H         1 UNK         0.0600 
    171 H171        6.6299  -15.1712  -43.0673 H         1 UNK         0.0600 
    172 H172        6.1145  -15.7498  -44.6473 H         1 UNK         0.0600 
    173 H173        6.3789  -14.0268  -44.3758 H         1 UNK         0.0600 
    174 H174        4.1258  -14.6606  -45.5717 H         1 UNK         0.3000 
    175 H175        0.7197  -14.2744  -45.8181 H         1 UNK         0.0600 
    176 H176        0.9084  -12.2661  -47.2309 H         1 UNK         0.0600 
    177 H177        2.5259  -11.9313  -46.6155 H         1 UNK         0.0600 
    178 H178        1.1268  -11.8020  -45.5553 H         1 UNK         0.0600 
    179 H179        2.5193  -14.0429  -47.9301 H         1 UNK         0.3000 
    180 H180        4.0389  -17.0183  -48.1914 H         1 UNK         0.0600 
    181 H181        1.1668  -17.1646  -49.2504 H         1 UNK         0.0600 
    182 H182        2.0072  -18.3974  -48.3184 H         1 UNK         0.0600 
    183 H183        2.5507  -18.0119  -49.9412 H         1 UNK         0.0600 
    184 H184        2.6607  -15.4363  -50.2073 H         1 UNK         0.3000 
    185 H185        4.9687  -12.8570  -50.4265 H         1 UNK         0.0600 
    186 H186        6.3765  -14.5862  -51.5583 H         1 UNK         0.0600 
    187 H187        4.9447  -15.2787  -52.3118 H         1 UNK         0.0600 
    188 H188        5.4671  -13.6473  -52.7318 H         1 UNK         0.0600 
    189 H189        2.9803  -13.7450  -52.2636 H         1 UNK         0.3000 
    190 H190       -3.6023  -22.4638  -45.5535 H         1 UNK         0.3000 
    191 H191       -4.8812  -23.2258  -47.9316 H         1 UNK         0.0600 
    192 H192       -5.4032  -24.2087  -45.0777 H         1 UNK         0.0600 
    193 H193       -6.5283  -24.3175  -46.4236 H         1 UNK         0.0600 
    194 H194       -6.0721  -22.7462  -45.7935 H         1 UNK         0.0600 
    195 H195       -2.6411  -25.0799  -45.9213 H         1 UNK         0.3000 
    196 H196       -3.1882  -27.6182  -47.3428 H         1 UNK         0.0600 
    197 H197       -1.5193  -28.5441  -45.7706 H         1 UNK         0.0600 
    198 H198       -2.7799  -27.6892  -44.8944 H         1 UNK         0.0600 
    199 H199       -1.1979  -26.9456  -45.1131 H         1 UNK         0.0600 
    200 H200       -0.5972  -25.1583  -46.9568 H         1 UNK         0.3000 
    201 H201        1.3002  -26.4760  -48.6098 H         1 UNK         0.0600 
    202 H202        1.8806  -24.8140  -46.8406 H         1 UNK         0.0600 
    203 H203        1.1524  -23.5272  -47.8005 H         1 UNK         0.0600 
    204 H204        2.5757  -24.3686  -48.3925 H         1 UNK         0.0600 
    205 H205       -1.0842  -23.9290  -49.3557 H         1 UNK         0.3000 
    206 H206       -1.7634  -22.8794  -51.1481 H         1 UNK         0.0600 
    207 H207       -2.0590  -24.1426  -53.2586 H         1 UNK         0.0600 
    208 H208       -0.9366  -25.3808  -52.7106 H         1 UNK         0.0600 
    209 H209       -2.4741  -25.1457  -51.8786 H         1 UNK         0.0600 
    210 H210        0.5587  -21.9267  -50.3099 H         1 UNK         0.3000 
    211 H211        2.3770  -21.4476  -52.5972 H         1 UNK         0.0600 
    212 H212        2.4482  -20.5548  -49.6619 H         1 UNK         0.0600 
    213 H213        3.6905  -20.2068  -50.8604 H         1 UNK         0.0600 
    214 H214        3.3878  -21.8670  -50.3689 H         1 UNK         0.0600 
    215 H215        2.4421  -19.5023  -53.6469 H         1 UNK         0.3000 
    216 H216        1.9712  -17.5466  -54.4867 H         1 UNK         0.0600 
    217 H217        1.3446  -15.6333  -53.0832 H         1 UNK         0.0600 
    218 H218        2.5573  -16.6039  -52.2620 H         1 UNK         0.0600 
    219 H219        0.8659  -16.6891  -51.7637 H         1 UNK         0.0600 
    220 H220       -0.8266  -18.6932  -52.6065 H         1 UNK         0.3000 
    221 H221       -2.6475  -18.1052  -54.9036 H         1 UNK         0.0600 
    222 H222       -3.3818  -18.0348  -51.9196 H         1 UNK         0.0600 
    223 H223       -3.1163  -16.5910  -52.8963 H         1 UNK         0.0600 
    224 H224       -4.4410  -17.6803  -53.2762 H         1 UNK         0.0600 
    225 H225       -4.2513  -19.7338  -55.1997 H         1 UNK         0.3000 
    226 H226       -3.3850  -22.4384  -54.6779 H         1 UNK         0.0600 
    227 H227       -4.3655  -21.7752  -56.8438 H         1 UNK         0.0600 
    228 H228       -5.3714  -22.9962  -56.0822 H         1 UNK         0.0600 
    229 H229       -5.8755  -21.3102  -56.0608 H         1 UNK         0.0600 
    230 H230       -3.4611  -21.9778  -52.3172 H         1 UNK         0.3000 
    231 H231       -4.0607  -22.6447  -50.2945 H         1 UNK         0.0600 
    232 H232       -6.0917  -24.0257  -49.8333 H         1 UNK         0.0600 
    233 H233       -5.1182  -24.6911  -51.1345 H         1 UNK         0.0600 
    234 H234       -6.6191  -23.8372  -51.4897 H         1 UNK         0.0600 
    235 H235       -6.9423  -21.3772  -51.9473 H         1 UNK         0.3000 
    236 H236       -8.4632  -19.8006  -51.4801 H         1 UNK         0.0600 
    237 H237       -6.5208  -18.4501  -52.1948 H         1 UNK         0.0600 
    238 H238       -7.4577  -17.5511  -51.0198 H         1 UNK         0.0600 
    239 H239       -5.9402  -18.3157  -50.5409 H         1 UNK         0.0600 
    240 H240       -7.2479  -18.0192  -48.9466 H         1 UNK         0.3000 
    241 H241       -9.2030  -18.9454  -47.0223 H         1 UNK         0.0600 
    242 H242       -5.7238  -20.6460  -45.9509 H         1 UNK         0.3800 
    243 H243       -6.0434  -20.1889  -47.6142 H         1 UNK         0.3800 
    244 H244       -9.1684  -16.6689  -46.9325 H         1 UNK         0.0800 
    245 H245       -8.0533  -16.9596  -45.6451 H         1 UNK         0.0800 
    246 H246       -5.1814  -15.4875  -46.0928 H         1 UNK         0.0800 
    247 H247       -5.5176  -17.1991  -46.0896 H         1 UNK         0.0800 
@<TRIPOS>BOND
     1    1    2 1    
     2    1  127 1    
     3    1  128 1    
     4    1  129 1    
     5    2    3 2    
     6    2    4 am   BACKBONE|DICT|INTERRES
     7    4    5 1    
     8    4  130 1    
     9    5    6 1    
    10    5   65 1    
    11    5  131 1    
    12    6    7 1    
    13    6  132 1    
    14    6  133 1    
    15    7    8 1    
    16    8    9 1    
    17    8  134 1    
    18    8  135 1    
    19    9   10 ar   
    20    9   14 ar   
    21   10   11 ar   
    22   10  136 1    
    23   11   12 ar   
    24   11  126 1    
    25   12   13 ar   
    26   12  137 1    
    27   13   14 ar   
    28   13   15 1    
    29   14  138 1    
    30   15   16 1    
    31   15  139 1    
    32   15  140 1    
    33   16   17 1    
    34   17   18 1    
    35   17  141 1    
    36   17  142 1    
    37   18   19 1    
    38   18   67 1    
    39   18  143 1    
    40   19   20 am   BACKBONE|DICT|INTERRES
    41   19  144 1    
    42   20   21 2    
    43   20   22 1    
    44   22   23 1    
    45   22   24 1    
    46   22  145 1    
    47   23  146 1    
    48   23  147 1    
    49   23  148 1    
    50   24   25 am   BACKBONE|DICT|INTERRES
    51   24  149 1    
    52   25   26 2    
    53   25   27 1    
    54   27   28 1    
    55   27   29 1    
    56   27  150 1    
    57   28  151 1    
    58   28  152 1    
    59   28  153 1    
    60   29   30 am   BACKBONE|DICT|INTERRES
    61   29  154 1    
    62   30   31 2    
    63   30   32 1    
    64   32   33 1    
    65   32   34 1    
    66   32  155 1    
    67   33  156 1    
    68   33  157 1    
    69   33  158 1    
    70   34   35 am   BACKBONE|DICT|INTERRES
    71   34  159 1    
    72   35   36 2    
    73   35   37 1    
    74   37   38 1    
    75   37   39 1    
    76   37  160 1    
    77   38  161 1    
    78   38  162 1    
    79   38  163 1    
    80   39   40 am   BACKBONE|DICT|INTERRES
    81   39  164 1    
    82   40   41 2    
    83   40   42 1    
    84   42   43 1    
    85   42   44 1    
    86   42  165 1    
    87   43  166 1    
    88   43  167 1    
    89   43  168 1    
    90   44   45 am   BACKBONE|DICT|INTERRES
    91   44  169 1    
    92   45   46 2    
    93   45   47 1    
    94   47   48 1    
    95   47   49 1    
    96   47  170 1    
    97   48  171 1    
    98   48  172 1    
    99   48  173 1    
   100   49   50 am   BACKBONE|DICT|INTERRES
   101   49  174 1    
   102   50   51 2    
   103   50   52 1    
   104   52   53 1    
   105   52   54 1    
   106   52  175 1    
   107   53  176 1    
   108   53  177 1    
   109   53  178 1    
   110   54   55 am   BACKBONE|DICT|INTERRES
   111   54  179 1    
   112   55   56 2    
   113   55   57 1    
   114   57   58 1    
   115   57   59 1    
   116   57  180 1    
   117   58  181 1    
   118   58  182 1    
   119   58  183 1    
   120   59   60 am   BACKBONE|DICT|INTERRES
   121   59  184 1    
   122   60   61 2    
   123   60   62 1    
   124   62   63 1    
   125   62   64 1    
   126   62  185 1    
   127   63  186 1    
   128   63  187 1    
   129   63  188 1    
   130   64   65 am   BACKBONE|DICT|INTERRES
   131   64  189 1    
   132   65   66 2    
   133   67   68 2    
   134   67   69 am   BACKBONE|DICT|INTERRES
   135   69   70 1    
   136   69  190 1    
   137   70   71 1    
   138   70   72 1    
   139   70  191 1    
   140   71  192 1    
   141   71  193 1    
   142   71  194 1    
   143   72   73 2    
   144   72   74 am   BACKBONE|DICT|INTERRES
   145   74   75 1    
   146   74  195 1    
   147   75   76 1    
   148   75   77 1    
   149   75  196 1    
   150   76  197 1    
   151   76  198 1    
   152   76  199 1    
   153   77   78 2    
   154   77   79 am   BACKBONE|DICT|INTERRES
   155   79   80 1    
   156   79  200 1    
   157   80   81 1    
   158   80   82 1    
   159   80  201 1    
   160   81  202 1    
   161   81  203 1    
   162   81  204 1    
   163   82   83 2    
   164   82   84 am   BACKBONE|DICT|INTERRES
   165   84   85 1    
   166   84  205 1    
   167   85   86 1    
   168   85   87 1    
   169   85  206 1    
   170   86  207 1    
   171   86  208 1    
   172   86  209 1    
   173   87   88 2    
   174   87   89 am   BACKBONE|DICT|INTERRES
   175   89   90 1    
   176   89  210 1    
   177   90   91 1    
   178   90   92 1    
   179   90  211 1    
   180   91  212 1    
   181   91  213 1    
   182   91  214 1    
   183   92   93 2    
   184   92   94 am   BACKBONE|DICT|INTERRES
   185   94   95 1    
   186   94  215 1    
   187   95   96 1    
   188   95   97 1    
   189   95  216 1    
   190   96  217 1    
   191   96  218 1    
   192   96  219 1    
   193   97   98 2    
   194   97   99 am   BACKBONE|DICT|INTERRES
   195   99  100 1    
   196   99  220 1    
   197  100  101 1    
   198  100  102 1    
   199  100  221 1    
   200  101  222 1    
   201  101  223 1    
   202  101  224 1    
   203  102  103 2    
   204  102  104 am   BACKBONE|DICT|INTERRES
   205  104  105 1    
   206  104  225 1    
   207  105  106 1    
   208  105  107 1    
   209  105  226 1    
   210  106  227 1    
   211  106  228 1    
   212  106  229 1    
   213  107  108 2    
   214  107  109 am   BACKBONE|DICT|INTERRES
   215  109  110 1    
   216  109  230 1    
   217  110  111 1    
   218  110  112 1    
   219  110  231 1    
   220  111  232 1    
   221  111  233 1    
   222  111  234 1    
   223  112  113 2    
   224  112  114 am   BACKBONE|DICT|INTERRES
   225  114  115 1    
   226  114  235 1    
   227  115  116 1    
   228  115  117 1    
   229  115  236 1    
   230  116  237 1    
   231  116  238 1    
   232  116  239 1    
   233  117  118 2    
   234  117  119 am   BACKBONE|DICT|INTERRES
   235  119  120 1    
   236  119  240 1    
   237  120  121 1    
   238  120  124 1    
   239  120  241 1    
   240  121  122 am   BACKBONE|DICT|INTERRES
   241  121  123 2    
   242  122  242 1    
   243  122  243 1    
   244  124  125 1    
   245  124  244 1    
   246  124  245 1    
   247  125  126 1    
   248  126  246 1    
   249  126  247 1    
@<TRIPOS>SUBSTRUCTURE
     1 UNK         1 GROUP             0       ****    0 ROOT    
