@<TRIPOS>MOLECULE
3R540
247   249    1
SMALL
USER_CHARGES


@<TRIPOS>ATOM
      1 CA         -4.2330  -17.3263  -48.1434 C.3       0 UNK        -0.1800 
      2 C          -3.1973  -16.3867  -47.5444 C.2       0 UNK         0.5000 
      3 O          -2.7831  -16.5690  -46.3992 O.2       0 UNK        -0.5000 
      4 N          -2.8001  -15.3606  -48.3128 N.am      1 UNK        -0.5000 
      5 CA         -1.8133  -14.3271  -47.9493 C.3       1 UNK         0.1400 
      6 C6         -0.3712  -14.8868  -47.8032 C.3       23 UNK        -0.0398 
      7 S7          0.2859  -15.5954  -49.3530 S.3       23 UNK        -0.2404 
      8 C8          0.0628  -17.3781  -49.0707 C.3       23 UNK        -0.0205 
      9 C9          0.9742  -18.2014  -49.9659 C.ar      23 UNK        -0.0193 
     10 C10         0.6537  -18.4234  -51.3090 C.ar      23 UNK        -0.1150 
     11 C11         1.5064  -19.1676  -52.1353 C.ar      23 UNK        -0.0193 
     12 C12         2.6663  -19.7237  -51.5851 C.ar      23 UNK        -0.1150 
     13 C13         2.9924  -19.5175  -50.2413 C.ar      23 UNK        -0.0193 
     14 C14         2.1493  -18.7421  -49.4425 C.ar      23 UNK        -0.1150 
     15 C15         4.2669  -20.1141  -49.6638 C.3       23 UNK        -0.0205 
     16 S16         3.9966  -21.7871  -48.9976 S.3       23 UNK        -0.2404 
     17 C17         3.2913  -21.4199  -47.3546 C.3       23 UNK        -0.0398 
     18 CA          2.2013  -22.4185  -46.9016 C.3       11 UNK         0.1400 
     19 N           1.9582  -22.3048  -45.4620 N.am      11 UNK        -0.5000 
     20 C           1.3168  -23.2137  -44.7157 C.2       10 UNK         0.5000 
     21 O           0.9083  -24.2917  -45.1467 O.2       10 UNK        -0.5000 
     22 CA          1.0714  -22.8456  -43.2407 C.3       10 UNK         0.1400 
     23 CB          2.3073  -23.1689  -42.3879 C.3       10 UNK        -0.1800 
     24 N           0.7034  -21.4393  -43.0622 N.am      10 UNK        -0.5000 
     25 C          -0.4324  -20.8919  -43.5180 C.2       9 UNK         0.5000 
     26 O          -1.3114  -21.5341  -44.0930 O.2       9 UNK        -0.5000 
     27 CA         -0.5984  -19.3699  -43.3400 C.3       9 UNK         0.1400 
     28 CB         -1.0815  -19.0339  -41.9213 C.3       9 UNK        -0.1800 
     29 N           0.6305  -18.6281  -43.6230 N.am      9 UNK        -0.5000 
     30 C           1.2386  -18.5801  -44.8164 C.2       8 UNK         0.5000 
     31 O           0.8135  -19.1348  -45.8267 O.2       8 UNK        -0.5000 
     32 CA          2.5847  -17.8416  -44.8793 C.3       8 UNK         0.1400 
     33 CB          2.3811  -16.3214  -44.9715 C.3       8 UNK        -0.1800 
     34 N           3.4363  -18.1704  -43.7360 N.am      8 UNK        -0.5000 
     35 C           3.9728  -19.3809  -43.5215 C.2       7 UNK         0.5000 
     36 O           3.8300  -20.3361  -44.2839 O.2       7 UNK        -0.5000 
     37 CA          4.7646  -19.5658  -42.2149 C.3       7 UNK         0.1400 
     38 CB          6.2022  -19.0493  -42.3740 C.3       7 UNK        -0.1800 
     39 N           4.1298  -18.8967  -41.0791 N.am      7 UNK        -0.5000 
     40 C           2.9492  -19.2532  -40.5531 C.2       6 UNK         0.5000 
     41 O           2.2868  -20.2130  -40.9444 O.2       6 UNK        -0.5000 
     42 CA          2.3900  -18.3451  -39.4429 C.3       6 UNK         0.1400 
     43 CB          2.9703  -18.7374  -38.0761 C.3       6 UNK        -0.1800 
     44 N           2.6407  -16.9222  -39.6924 N.am      6 UNK        -0.5000 
     45 C           2.1552  -16.2467  -40.7412 C.2       5 UNK         0.5000 
     46 O           1.4473  -16.7545  -41.6159 O.2       5 UNK        -0.5000 
     47 CA          2.5634  -14.7753  -40.8630 C.3       5 UNK         0.1400 
     48 CB          3.9397  -14.6384  -41.5356 C.3       5 UNK        -0.1800 
     49 N           1.5552  -14.1038  -41.6695 N.am      5 UNK        -0.5000 
     50 C           1.1574  -12.8370  -41.5325 C.2       4 UNK         0.5000 
     51 O           1.6895  -12.0334  -40.7650 O.2       4 UNK        -0.5000 
     52 CA         -0.0452  -12.3864  -42.3860 C.3       4 UNK         0.1400 
     53 CB          0.4327  -11.5579  -43.5883 C.3       4 UNK        -0.1800 
     54 N          -0.9048  -13.4720  -42.8732 N.am      4 UNK        -0.5000 
     55 C          -1.6363  -14.2953  -42.1033 C.2       3 UNK         0.5000 
     56 O          -1.5833  -14.3017  -40.8724 O.2       3 UNK        -0.5000 
     57 CA         -2.6133  -15.2391  -42.8449 C.3       3 UNK         0.1400 
     58 CB         -3.6678  -15.8759  -41.9172 C.3       3 UNK        -0.1800 
     59 N          -3.2579  -14.5905  -43.9926 N.am      3 UNK        -0.5000 
     60 C          -3.9438  -13.4335  -43.9926 C.2       2 UNK         0.5000 
     61 O          -4.2882  -12.8473  -42.9651 O.2       2 UNK        -0.5000 
     62 CA         -4.2798  -12.8017  -45.3651 C.3       2 UNK         0.1400 
     63 CB         -4.0625  -11.2742  -45.3587 C.3       2 UNK        -0.1800 
     64 N          -3.5781  -13.4054  -46.5066 N.am      2 UNK        -0.5000 
     65 C          -2.2531  -13.5104  -46.7081 C.2       1 UNK         0.5000 
     66 O          -1.4098  -13.0505  -45.9361 O.2       1 UNK        -0.5000 
     67 C           0.8906  -22.2948  -47.7135 C.2       11 UNK         0.5000 
     68 O           0.7017  -23.0483  -48.6694 O.2       11 UNK        -0.5000 
     69 N          -0.0083  -21.3900  -47.2929 N.am      12 UNK        -0.5000 
     70 CA         -1.3565  -21.2295  -47.8385 C.3       12 UNK         0.1400 
     71 CB         -2.0459  -20.0116  -47.2096 C.3       12 UNK        -0.1800 
     72 C          -2.2271  -22.4812  -47.6502 C.2       12 UNK         0.5000 
     73 O          -2.8654  -22.9212  -48.6090 O.2       12 UNK        -0.5000 
     74 N          -2.2171  -23.0166  -46.4204 N.am      13 UNK        -0.5000 
     75 CA         -2.9231  -24.2122  -45.9562 C.3       13 UNK         0.1400 
     76 CB         -2.3549  -25.4628  -46.6635 C.3       13 UNK        -0.1800 
     77 C          -4.4595  -24.1061  -46.0854 C.2       13 UNK         0.5000 
     78 O          -4.9996  -23.0273  -46.3435 O.2       13 UNK        -0.5000 
     79 N          -5.1484  -25.2421  -45.9118 N.am      14 UNK        -0.5000 
     80 CA         -6.5944  -25.3772  -46.1176 C.3       14 UNK         0.1400 
     81 CB         -7.0583  -26.7193  -45.5307 C.3       14 UNK        -0.1800 
     82 C          -7.0060  -25.2638  -47.6008 C.2       14 UNK         0.5000 
     83 O          -8.1649  -24.9632  -47.8883 O.2       14 UNK        -0.5000 
     84 N          -6.0495  -25.4992  -48.5109 N.am      15 UNK        -0.5000 
     85 CA         -6.2059  -25.3668  -49.9586 C.3       15 UNK         0.1400 
     86 CB         -4.9976  -26.0209  -50.6472 C.3       15 UNK        -0.1800 
     87 C          -6.3543  -23.9075  -50.4302 C.2       15 UNK         0.5000 
     88 O          -6.9510  -23.6859  -51.4828 O.2       15 UNK        -0.5000 
     89 N          -5.8078  -22.9569  -49.6546 N.am      16 UNK        -0.5000 
     90 CA         -5.7125  -21.5229  -49.9386 C.3       16 UNK         0.1400 
     91 CB         -7.1064  -20.8652  -50.0034 C.3       16 UNK        -0.1800 
     92 C          -4.8600  -21.2603  -51.1943 C.2       16 UNK         0.5000 
     93 O          -5.3693  -20.7951  -52.2177 O.2       16 UNK        -0.5000 
     94 N          -3.5614  -21.5819  -51.0902 N.am      17 UNK        -0.5000 
     95 CA         -2.5610  -21.5019  -52.1636 C.3       17 UNK         0.1400 
     96 CB         -1.1766  -21.8792  -51.6154 C.3       17 UNK        -0.1800 
     97 C          -2.4918  -20.1443  -52.8904 C.2       17 UNK         0.5000 
     98 O          -2.2045  -20.1278  -54.0848 O.2       17 UNK        -0.5000 
     99 N          -2.8226  -19.0474  -52.1937 N.am      18 UNK        -0.5000 
    100 CA        -2.9293  -17.6910  -52.7463 C.3       18 UNK         0.1400 
    101 CB        -3.1749  -16.7028  -51.5976 C.3       18 UNK        -0.1800 
    102 C         -4.0032  -17.5164  -53.8415 C.2       18 UNK         0.5000 
    103 O         -3.9695  -16.5098  -54.5498 O.2       18 UNK        -0.5000 
    104 N         -4.9278  -18.4773  -53.9567 N.am      19 UNK        -0.5000 
    105 CA        -5.8748  -18.5969  -55.0610 C.3       19 UNK         0.1400 
    106 CB        -7.3057  -18.5343  -54.5031 C.3       19 UNK        -0.1800 
    107 C         -5.6566  -19.9084  -55.8363 C.2       19 UNK         0.5000 
    108 O         -5.8009  -19.9157  -57.0594 O.2       19 UNK        -0.5000 
    109 N         -5.3482  -21.0012  -55.1222 N.am      20 UNK        -0.5000 
    110 CA        -5.2864  -22.3508  -55.6845 C.3       20 UNK         0.1400 
    111 CB        -5.5133  -23.3695  -54.5578 C.3       20 UNK        -0.1800 
    112 C         -3.9920  -22.6817  -56.4518 C.2       20 UNK         0.5000 
    113 O         -4.0375  -23.5489  -57.3260 O.2       20 UNK        -0.5000 
    114 N         -2.8692  -22.0351  -56.1105 N.am      21 UNK        -0.5000 
    115 CA        -1.5428  -22.3477  -56.6543 C.3       21 UNK         0.1400 
    116 CB        -0.6827  -22.9885  -55.5537 C.3       21 UNK        -0.1800 
    117 C         -0.8358  -21.1140  -57.2362 C.2       21 UNK         0.5000 
    118 O         -0.1626  -21.2388  -58.2605 O.2       21 UNK        -0.5000 
    119 N         -0.9953  -19.9551  -56.5908 N.am      22 UNK        -0.5000 
    120 CA        -0.4383  -18.6641  -57.0092 C.3       22 UNK         0.1400 
    121 C         -1.5302  -17.5553  -57.0420 C.2       22 UNK         0.5000 
    122 N         -1.1646  -16.2817  -56.9784 N.am      22 UNK        -0.7600 
    123 O         -2.7174  -17.8361  -57.1893 O.2       22 UNK        -0.5000 
    124 C124        0.8689  -18.3221  -56.2368 C.3       23 UNK        -0.0398 
    125 S125        0.6634  -17.8722  -54.4746 S.3       23 UNK        -0.2404 
    126 C126        1.1951  -19.3914  -53.6150 C.3       23 UNK        -0.0205 
    127 H127       -5.0108  -16.7675  -48.6640 H         1 UNK         0.0600 
    128 H128       -4.7100  -17.9195  -47.3630 H         1 UNK         0.0600 
    129 H129       -3.7620  -18.0057  -48.8526 H         1 UNK         0.0600 
    130 H130       -3.1952  -15.2611  -49.2368 H         1 UNK         0.3000 
    131 H131       -1.8054  -13.6120  -48.7732 H         1 UNK         0.0600 
    132 H132       -0.3211  -15.6218  -46.9991 H         1 UNK         0.0800 
    133 H133        0.3191  -14.0905  -47.5195 H         1 UNK         0.0800 
    134 H134        0.2676  -17.6105  -48.0250 H         1 UNK         0.0800 
    135 H135       -0.9759  -17.6523  -49.2497 H         1 UNK         0.0800 
    136 H136       -0.2484  -17.9936  -51.7153 H         1 UNK         0.1150 
    137 H137        3.3254  -20.3148  -52.2053 H         1 UNK         0.1150 
    138 H138        2.4034  -18.5541  -48.4097 H         1 UNK         0.1150 
    139 H139        5.0295  -20.1686  -50.4421 H         1 UNK         0.0800 
    140 H140        4.6767  -19.4662  -48.8872 H         1 UNK         0.0800 
    141 H141        2.9134  -20.4006  -47.3072 H         1 UNK         0.0800 
    142 H142        4.1278  -21.4541  -46.6558 H         1 UNK         0.0800 
    143 H143        2.5889  -23.4250  -47.0744 H         1 UNK         0.0600 
    144 H144        2.3166  -21.4704  -45.0094 H         1 UNK         0.3000 
    145 H145        0.2419  -23.4576  -42.8803 H         1 UNK         0.0600 
    146 H146        2.1113  -22.9957  -41.3297 H         1 UNK         0.0600 
    147 H147        2.5960  -24.2149  -42.4980 H         1 UNK         0.0600 
    148 H148        3.1646  -22.5587  -42.6734 H         1 UNK         0.0600 
    149 H149        1.3517  -20.8623  -42.5343 H         1 UNK         0.3000 
    150 H150       -1.3585  -19.0304  -44.0465 H         1 UNK         0.0600 
    151 H151       -2.0340  -19.5205  -41.7080 H         1 UNK         0.0600 
    152 H152       -1.2271  -17.9612  -41.7966 H         1 UNK         0.0600 
    153 H153       -0.3678  -19.3611  -41.1650 H         1 UNK         0.0600 
    154 H154        1.0349  -18.1066  -42.8494 H         1 UNK         0.3000 
    155 H155        3.1002  -18.1661  -45.7858 H         1 UNK         0.0600 
    156 H156        1.8361  -15.9275  -44.1143 H         1 UNK         0.0600 
    157 H157        1.8139  -16.0624  -45.8658 H         1 UNK         0.0600 
    158 H158        3.3353  -15.7982  -45.0326 H         1 UNK         0.0600 
    159 H159        3.5586  -17.4549  -43.0364 H         1 UNK         0.3000 
    160 H160        4.8073  -20.6355  -41.9994 H         1 UNK         0.0600 
    161 H161        6.2280  -17.9758  -42.5654 H         1 UNK         0.0600 
    162 H162        6.7038  -19.5437  -43.2070 H         1 UNK         0.0600 
    163 H163        6.7924  -19.2452  -41.4786 H         1 UNK         0.0600 
    164 H164        4.6064  -18.0946  -40.6946 H         1 UNK         0.3000 
    165 H165        1.3086  -18.4933  -39.4093 H         1 UNK         0.0600 
    166 H166        2.5160  -18.1563  -37.2734 H         1 UNK         0.0600 
    167 H167        2.7817  -19.7899  -37.8602 H         1 UNK         0.0600 
    168 H168        4.0491  -18.5819  -38.0349 H         1 UNK         0.0600 
    169 H169        3.2186  -16.4401  -39.0188 H         1 UNK         0.3000 
    170 H170        2.5925  -14.3393  -39.8621 H         1 UNK         0.0600 
    171 H171        4.7133  -15.1450  -40.9573 H         1 UNK         0.0600 
    172 H172        3.9430  -15.0661  -42.5387 H         1 UNK         0.0600 
    173 H173        4.2325  -13.5917  -41.6200 H         1 UNK         0.0600 
    174 H174        1.0232  -14.7217  -42.2681 H         1 UNK         0.3000 
    175 H175       -0.6604  -11.7426  -41.7543 H         1 UNK         0.0600 
    176 H176        1.0086  -12.1641  -44.2888 H         1 UNK         0.0600 
    177 H177       -0.4102  -11.1291  -44.1309 H         1 UNK         0.0600 
    178 H178        1.0668  -10.7295  -43.2697 H         1 UNK         0.0600 
    179 H179       -1.0396  -13.5066  -43.8780 H         1 UNK         0.3000 
    180 H180       -2.0029  -16.0454  -43.2547 H         1 UNK         0.0600 
    181 H181       -4.3154  -16.5575  -42.4686 H         1 UNK         0.0600 
    182 H182       -4.2982  -15.1228  -41.4437 H         1 UNK         0.0600 
    183 H183       -3.1939  -16.4526  -41.1222 H         1 UNK         0.0600 
    184 H184       -3.0571  -15.0165  -44.8904 H         1 UNK         0.3000 
    185 H185       -5.3424  -12.9860  -45.5287 H         1 UNK         0.0600 
    186 H186       -4.6951  -10.7892  -44.6145 H         1 UNK         0.0600 
    187 H187       -3.0291  -11.0140  -45.1272 H         1 UNK         0.0600 
    188 H188       -4.3103  -10.8362  -46.3255 H         1 UNK         0.0600 
    189 H189       -4.1771  -13.8454  -47.1909 H         1 UNK         0.3000 
    190 H190        0.2539  -20.7480  -46.5490 H         1 UNK         0.3000 
    191 H191       -1.2607  -21.0404  -48.9050 H         1 UNK         0.0600 
    192 H192       -3.0507  -19.8902  -47.6125 H         1 UNK         0.0600 
    193 H193       -1.4963  -19.0938  -47.4051 H         1 UNK         0.0600 
    194 H194       -2.1448  -20.1097  -46.1299 H         1 UNK         0.0600 
    195 H195       -1.7180  -22.5104  -45.6935 H         1 UNK         0.3000 
    196 H196       -2.7036  -24.2944  -44.8909 H         1 UNK         0.0600 
    197 H197       -2.6405  -25.4998  -47.7155 H         1 UNK         0.0600 
    198 H198       -1.2655  -25.4749  -46.6177 H         1 UNK         0.0600 
    199 H199       -2.6998  -26.3838  -46.1934 H         1 UNK         0.0600 
    200 H200       -4.6477  -26.0874  -45.6780 H         1 UNK         0.3000 
    201 H201       -7.0961  -24.5735  -45.5745 H         1 UNK         0.0600 
    202 H202       -6.5805  -27.5638  -46.0290 H         1 UNK         0.0600 
    203 H203       -8.1368  -26.8415  -45.6400 H         1 UNK         0.0600 
    204 H204       -6.8321  -26.7841  -44.4663 H         1 UNK         0.0600 
    205 H205       -5.1310  -25.7509  -48.1787 H         1 UNK         0.3000 
    206 H206       -7.1075  -25.9062  -50.2566 H         1 UNK         0.0600 
    207 H207       -4.9147  -27.0754  -50.3835 H         1 UNK         0.0600 
    208 H208       -5.0888  -25.9645  -51.7329 H         1 UNK         0.0600 
    209 H209       -4.0633  -25.5295  -50.3711 H         1 UNK         0.0600 
    210 H210       -5.3195  -23.2572  -48.8204 H         1 UNK         0.3000 
    211 H211       -5.1815  -21.0771  -49.0960 H         1 UNK         0.0600 
    212 H212       -7.0183  -19.7841  -50.1172 H         1 UNK         0.0600 
    213 H213       -7.6717  -21.0521  -49.0904 H         1 UNK         0.0600 
    214 H214       -7.6967  -21.2312  -50.8438 H         1 UNK         0.0600 
    215 H215       -3.2574  -22.0292  -50.2283 H         1 UNK         0.3000 
    216 H216       -2.8395  -22.2527  -52.9042 H         1 UNK         0.0600 
    217 H217       -0.7371  -21.0716  -51.0315 H         1 UNK         0.0600 
    218 H218       -0.4807  -22.0908  -52.4261 H         1 UNK         0.0600 
    219 H219       -1.2173  -22.7710  -50.9894 H         1 UNK         0.0600 
    220 H220       -3.0759  -19.1617  -51.2248 H         1 UNK         0.3000 
    221 H221       -1.9731  -17.4448  -53.2093 H         1 UNK         0.0600 
    222 H222       -3.2135  -15.6769  -51.9661 H         1 UNK         0.0600 
    223 H223       -2.3734  -16.7475  -50.8629 H         1 UNK         0.0600 
    224 H224       -4.1197  -16.9056  -51.0931 H         1 UNK         0.0600 
    225 H225       -4.9120  -19.2464  -53.2953 H         1 UNK         0.3000 
    226 H226       -5.7471  -17.7772  -55.7712 H         1 UNK         0.0600 
    227 H227       -7.4908  -17.5823  -54.0055 H         1 UNK         0.0600 
    228 H228       -8.0419  -18.6335  -55.3017 H         1 UNK         0.0600 
    229 H229       -7.4919  -19.3307  -53.7810 H         1 UNK         0.0600 
    230 H230       -5.3066  -20.9349  -54.1098 H         1 UNK         0.3000 
    231 H231       -6.1112  -22.4621  -56.3919 H         1 UNK         0.0600 
    232 H232       -4.7539  -23.2948  -53.7802 H         1 UNK         0.0600 
    233 H233       -5.4935  -24.3912  -54.9391 H         1 UNK         0.0600 
    234 H234       -6.4859  -23.2194  -54.0895 H         1 UNK         0.0600 
    235 H235       -2.9071  -21.3047  -55.4068 H         1 UNK         0.3000 
    236 H236       -1.6251  -23.0691  -57.4697 H         1 UNK         0.0600 
    237 H237       -1.1572  -23.8832  -55.1505 H         1 UNK         0.0600 
    238 H238        0.2928  -23.2829  -55.9427 H         1 UNK         0.0600 
    239 H239       -0.5105  -22.2977  -54.7297 H         1 UNK         0.0600 
    240 H240       -1.5481  -19.9271  -55.7370 H         1 UNK         0.3000 
    241 H241       -0.1551  -18.7477  -58.0597 H         1 UNK         0.0600 
    242 H242       -1.8805  -15.5730  -57.0110 H         1 UNK         0.3800 
    243 H243       -0.2025  -16.0101  -56.8547 H         1 UNK         0.3800 
    244 H244        1.5651  -19.1574  -56.3182 H         1 UNK         0.0800 
    245 H245        1.3763  -17.4913  -56.7282 H         1 UNK         0.0800 
    246 H246        2.0782  -19.7848  -54.1201 H         1 UNK         0.0800 
    247 H247        0.4225  -20.1520  -53.7118 H         1 UNK         0.0800 
@<TRIPOS>BOND
     1    1    2 1    
     2    1  127 1    
     3    1  128 1    
     4    1  129 1    
     5    2    3 2    
     6    2    4 am   BACKBONE|DICT|INTERRES
     7    4    5 1    
     8    4  130 1    
     9    5    6 1    
    10    5   65 1    
    11    5  131 1    
    12    6    7 1    
    13    6  132 1    
    14    6  133 1    
    15    7    8 1    
    16    8    9 1    
    17    8  134 1    
    18    8  135 1    
    19    9   10 ar   
    20    9   14 ar   
    21   10   11 ar   
    22   10  136 1    
    23   11   12 ar   
    24   11  126 1    
    25   12   13 ar   
    26   12  137 1    
    27   13   14 ar   
    28   13   15 1    
    29   14  138 1    
    30   15   16 1    
    31   15  139 1    
    32   15  140 1    
    33   16   17 1    
    34   17   18 1    
    35   17  141 1    
    36   17  142 1    
    37   18   19 1    
    38   18   67 1    
    39   18  143 1    
    40   19   20 am   BACKBONE|DICT|INTERRES
    41   19  144 1    
    42   20   21 2    
    43   20   22 1    
    44   22   23 1    
    45   22   24 1    
    46   22  145 1    
    47   23  146 1    
    48   23  147 1    
    49   23  148 1    
    50   24   25 am   BACKBONE|DICT|INTERRES
    51   24  149 1    
    52   25   26 2    
    53   25   27 1    
    54   27   28 1    
    55   27   29 1    
    56   27  150 1    
    57   28  151 1    
    58   28  152 1    
    59   28  153 1    
    60   29   30 am   BACKBONE|DICT|INTERRES
    61   29  154 1    
    62   30   31 2    
    63   30   32 1    
    64   32   33 1    
    65   32   34 1    
    66   32  155 1    
    67   33  156 1    
    68   33  157 1    
    69   33  158 1    
    70   34   35 am   BACKBONE|DICT|INTERRES
    71   34  159 1    
    72   35   36 2    
    73   35   37 1    
    74   37   38 1    
    75   37   39 1    
    76   37  160 1    
    77   38  161 1    
    78   38  162 1    
    79   38  163 1    
    80   39   40 am   BACKBONE|DICT|INTERRES
    81   39  164 1    
    82   40   41 2    
    83   40   42 1    
    84   42   43 1    
    85   42   44 1    
    86   42  165 1    
    87   43  166 1    
    88   43  167 1    
    89   43  168 1    
    90   44   45 am   BACKBONE|DICT|INTERRES
    91   44  169 1    
    92   45   46 2    
    93   45   47 1    
    94   47   48 1    
    95   47   49 1    
    96   47  170 1    
    97   48  171 1    
    98   48  172 1    
    99   48  173 1    
   100   49   50 am   BACKBONE|DICT|INTERRES
   101   49  174 1    
   102   50   51 2    
   103   50   52 1    
   104   52   53 1    
   105   52   54 1    
   106   52  175 1    
   107   53  176 1    
   108   53  177 1    
   109   53  178 1    
   110   54   55 am   BACKBONE|DICT|INTERRES
   111   54  179 1    
   112   55   56 2    
   113   55   57 1    
   114   57   58 1    
   115   57   59 1    
   116   57  180 1    
   117   58  181 1    
   118   58  182 1    
   119   58  183 1    
   120   59   60 am   BACKBONE|DICT|INTERRES
   121   59  184 1    
   122   60   61 2    
   123   60   62 1    
   124   62   63 1    
   125   62   64 1    
   126   62  185 1    
   127   63  186 1    
   128   63  187 1    
   129   63  188 1    
   130   64   65 am   BACKBONE|DICT|INTERRES
   131   64  189 1    
   132   65   66 2    
   133   67   68 2    
   134   67   69 am   BACKBONE|DICT|INTERRES
   135   69   70 1    
   136   69  190 1    
   137   70   71 1    
   138   70   72 1    
   139   70  191 1    
   140   71  192 1    
   141   71  193 1    
   142   71  194 1    
   143   72   73 2    
   144   72   74 am   BACKBONE|DICT|INTERRES
   145   74   75 1    
   146   74  195 1    
   147   75   76 1    
   148   75   77 1    
   149   75  196 1    
   150   76  197 1    
   151   76  198 1    
   152   76  199 1    
   153   77   78 2    
   154   77   79 am   BACKBONE|DICT|INTERRES
   155   79   80 1    
   156   79  200 1    
   157   80   81 1    
   158   80   82 1    
   159   80  201 1    
   160   81  202 1    
   161   81  203 1    
   162   81  204 1    
   163   82   83 2    
   164   82   84 am   BACKBONE|DICT|INTERRES
   165   84   85 1    
   166   84  205 1    
   167   85   86 1    
   168   85   87 1    
   169   85  206 1    
   170   86  207 1    
   171   86  208 1    
   172   86  209 1    
   173   87   88 2    
   174   87   89 am   BACKBONE|DICT|INTERRES
   175   89   90 1    
   176   89  210 1    
   177   90   91 1    
   178   90   92 1    
   179   90  211 1    
   180   91  212 1    
   181   91  213 1    
   182   91  214 1    
   183   92   93 2    
   184   92   94 am   BACKBONE|DICT|INTERRES
   185   94   95 1    
   186   94  215 1    
   187   95   96 1    
   188   95   97 1    
   189   95  216 1    
   190   96  217 1    
   191   96  218 1    
   192   96  219 1    
   193   97   98 2    
   194   97   99 am   BACKBONE|DICT|INTERRES
   195   99  100 1    
   196   99  220 1    
   197  100  101 1    
   198  100  102 1    
   199  100  221 1    
   200  101  222 1    
   201  101  223 1    
   202  101  224 1    
   203  102  103 2    
   204  102  104 am   BACKBONE|DICT|INTERRES
   205  104  105 1    
   206  104  225 1    
   207  105  106 1    
   208  105  107 1    
   209  105  226 1    
   210  106  227 1    
   211  106  228 1    
   212  106  229 1    
   213  107  108 2    
   214  107  109 am   BACKBONE|DICT|INTERRES
   215  109  110 1    
   216  109  230 1    
   217  110  111 1    
   218  110  112 1    
   219  110  231 1    
   220  111  232 1    
   221  111  233 1    
   222  111  234 1    
   223  112  113 2    
   224  112  114 am   BACKBONE|DICT|INTERRES
   225  114  115 1    
   226  114  235 1    
   227  115  116 1    
   228  115  117 1    
   229  115  236 1    
   230  116  237 1    
   231  116  238 1    
   232  116  239 1    
   233  117  118 2    
   234  117  119 am   BACKBONE|DICT|INTERRES
   235  119  120 1    
   236  119  240 1    
   237  120  121 1    
   238  120  124 1    
   239  120  241 1    
   240  121  122 am   BACKBONE|DICT|INTERRES
   241  121  123 2    
   242  122  242 1    
   243  122  243 1    
   244  124  125 1    
   245  124  244 1    
   246  124  245 1    
   247  125  126 1    
   248  126  246 1    
   249  126  247 1    
@<TRIPOS>SUBSTRUCTURE
     1 UNK         1 GROUP             0       ****    0 ROOT    
