@<TRIPOS>MOLECULE
3R540
247   249    1
SMALL
USER_CHARGES


@<TRIPOS>ATOM
      1 CA         -3.5576  -12.8755  -50.3366 C.3       0 UNK        -0.1800 
      2 C          -2.1124  -12.5388  -50.6793 C.2       0 UNK         0.5000 
      3 O          -1.8649  -11.6674  -51.5144 O.2       0 UNK        -0.5000 
      4 N          -1.1636  -13.2333  -50.0432 N.am      1 UNK        -0.5000 
      5 CA          0.2798  -13.0349  -50.1942 C.3       1 UNK         0.1400 
      6 C6          1.0467  -14.3776  -50.0712 C.3       23 UNK        -0.0398 
      7 S7          0.7842  -15.2612  -48.4912 S.3       23 UNK        -0.2404 
      8 C8         -0.3878  -16.5658  -48.9736 C.3       23 UNK        -0.0205 
      9 C9          0.2610  -17.6343  -49.8401 C.ar      23 UNK        -0.0193 
     10 C10         0.0166  -17.6706  -51.2164 C.ar      23 UNK        -0.1150 
     11 C11         0.5783  -18.6736  -52.0115 C.ar      23 UNK        -0.0193 
     12 C12         1.3914  -19.6428  -51.4174 C.ar      23 UNK        -0.1150 
     13 C13         1.6546  -19.6102  -50.0449 C.ar      23 UNK        -0.0193 
     14 C14         1.0854  -18.6037  -49.2600 C.ar      23 UNK        -0.1150 
     15 C15         2.5751  -20.6501  -49.4244 C.3       23 UNK        -0.0205 
     16 S16         1.6759  -22.1594  -48.9519 S.3       23 UNK        -0.2404 
     17 C17         1.0521  -21.7063  -47.2994 C.3       23 UNK        -0.0398 
     18 CA          0.5485  -22.9323  -46.5029 C.3       11 UNK         0.1400 
     19 N           0.5352  -22.6666  -45.0631 N.am      11 UNK        -0.5000 
     20 C           0.3643  -23.5993  -44.1170 C.2       10 UNK         0.5000 
     21 O           0.2344  -24.7986  -44.3567 O.2       10 UNK        -0.5000 
     22 CA          0.2682  -23.1038  -42.6635 C.3       10 UNK         0.1400 
     23 CB          1.6633  -22.8272  -42.0841 C.3       10 UNK        -0.1800 
     24 N          -0.5713  -21.9116  -42.5371 N.am      10 UNK        -0.5000 
     25 C          -1.8819  -21.8829  -42.8192 C.2       9 UNK         0.5000 
     26 O          -2.5269  -22.8752  -43.1576 O.2       9 UNK        -0.5000 
     27 CA         -2.5831  -20.5147  -42.7555 C.3       9 UNK         0.1400 
     28 CB         -2.9527  -20.1624  -41.3072 C.3       9 UNK        -0.1800 
     29 N          -1.7870  -19.4353  -43.3431 N.am      9 UNK        -0.5000 
     30 C          -1.4231  -19.3713  -44.6325 C.2       8 UNK         0.5000 
     31 O          -1.7417  -20.2091  -45.4744 O.2       8 UNK        -0.5000 
     32 CA         -0.4970  -18.2116  -45.0417 C.3       8 UNK         0.1400 
     33 CB         -1.2796  -16.8982  -45.1855 C.3       8 UNK        -0.1800 
     34 N           0.6089  -18.0271  -44.1038 N.am      8 UNK        -0.5000 
     35 C           1.5482  -18.9476  -43.8451 C.2       7 UNK         0.5000 
     36 O           1.6197  -20.0346  -44.4183 O.2       7 UNK        -0.5000 
     37 CA          2.5369  -18.6208  -42.7143 C.3       7 UNK         0.1400 
     38 CB          3.6602  -17.6964  -43.2090 C.3       7 UNK        -0.1800 
     39 N           1.8629  -18.0147  -41.5656 N.am      7 UNK        -0.5000 
     40 C           1.0236  -18.6698  -40.7506 C.2       6 UNK         0.5000 
     41 O           0.7558  -19.8656  -40.8633 O.2       6 UNK        -0.5000 
     42 CA          0.3414  -17.8410  -39.6467 C.3       6 UNK         0.1400 
     43 CB          1.2651  -17.6974  -38.4280 C.3       6 UNK        -0.1800 
     44 N          -0.0632  -16.5125  -40.1081 N.am      6 UNK        -0.5000 
     45 C          -1.0177  -16.2873  -41.0219 C.2       5 UNK         0.5000 
     46 O          -1.6860  -17.1770  -41.5455 O.2       5 UNK        -0.5000 
     47 CA         -1.2240  -14.8265  -41.4640 C.3       5 UNK         0.1400 
     48 CB         -2.2072  -14.1123  -40.5251 C.3       5 UNK        -0.1800 
     49 N           0.0213  -14.0565  -41.5433 N.am      5 UNK        -0.5000 
     50 C           1.0586  -14.3659  -42.3321 C.2       4 UNK         0.5000 
     51 O           1.0973  -15.3706  -43.0464 O.2       4 UNK        -0.5000 
     52 CA          2.2769  -13.4264  -42.2584 C.3       4 UNK         0.1400 
     53 CB          3.1816  -13.8316  -41.0838 C.3       4 UNK        -0.1800 
     54 N           3.0725  -13.4428  -43.4867 N.am      4 UNK        -0.5000 
     55 C           2.6400  -13.0388  -44.6878 C.2       3 UNK         0.5000 
     56 O           1.5280  -12.5408  -44.8833 O.2       3 UNK        -0.5000 
     57 CA          3.6242  -13.2503  -45.8566 C.3       3 UNK         0.1400 
     58 CB          3.7527  -14.7460  -46.1928 C.3       3 UNK        -0.1800 
     59 N           3.2267  -12.5247  -47.0645 N.am      3 UNK        -0.5000 
     60 C           3.2841  -11.1935  -47.2152 C.2       2 UNK         0.5000 
     61 O           3.7458  -10.4352  -46.3605 O.2       2 UNK        -0.5000 
     62 CA          2.7706  -10.5983  -48.5451 C.3       2 UNK         0.1400 
     63 CB          3.9347  -10.0007  -49.3527 C.3       2 UNK        -0.1800 
     64 N           2.0641  -11.5618  -49.3944 N.am      2 UNK        -0.5000 
     65 C           0.8013  -11.9674  -49.2063 C.2       1 UNK         0.5000 
     66 O           0.0798  -11.5449  -48.2991 O.2       1 UNK        -0.5000 
     67 C          -0.8178  -23.4520  -47.0070 C.2       11 UNK         0.5000 
     68 O          -0.8551  -24.4191  -47.7693 O.2       11 UNK        -0.5000 
     69 N          -1.9160  -22.8521  -46.5222 N.am      12 UNK        -0.5000 
     70 CA         -3.2892  -23.2769  -46.8015 C.3       12 UNK         0.1400 
     71 CB         -4.2865  -22.2594  -46.2252 C.3       12 UNK        -0.1800 
     72 C          -3.6017  -24.6914  -46.2828 C.2       12 UNK         0.5000 
     73 O          -4.2935  -25.4446  -46.9667 O.2       12 UNK        -0.5000 
     74 N          -3.0771  -25.0314  -45.0981 N.am      13 UNK        -0.5000 
     75 CA         -3.1783  -26.3636  -44.5048 C.3       13 UNK         0.1400 
     76 CB         -2.7850  -26.2943  -43.0212 C.3       13 UNK        -0.1800 
     77 C          -2.3266  -27.4079  -45.2510 C.2       13 UNK         0.5000 
     78 O          -2.7820  -28.5369  -45.4383 O.2       13 UNK        -0.5000 
     79 N          -1.1109  -27.0176  -45.6586 N.am      14 UNK        -0.5000 
     80 CA         -0.1600  -27.8670  -46.3758 C.3       14 UNK         0.1400 
     81 CB          1.2251  -27.2017  -46.3732 C.3       14 UNK        -0.1800 
     82 C          -0.5964  -28.1937  -47.8152 C.2       14 UNK         0.5000 
     83 O          -0.4279  -29.3344  -48.2499 O.2       14 UNK        -0.5000 
     84 N          -1.1370  -27.1987  -48.5274 N.am      15 UNK        -0.5000 
     85 CA         -1.5682  -27.3141  -49.9157 C.3       15 UNK         0.1400 
     86 CB         -0.3807  -27.0245  -50.8573 C.3       15 UNK        -0.1800 
     87 C          -2.7771  -26.3982  -50.1502 C.2       15 UNK         0.5000 
     88 O          -3.9144  -26.8435  -49.9930 O.2       15 UNK        -0.5000 
     89 N          -2.5128  -25.1443  -50.5256 N.am      16 UNK        -0.5000 
     90 CA         -3.4857  -24.0908  -50.7808 C.3       16 UNK         0.1400 
     91 CB         -4.1652  -24.2993  -52.1470 C.3       16 UNK        -0.1800 
     92 C          -2.7375  -22.7530  -50.7416 C.2       16 UNK         0.5000 
     93 O          -1.5510  -22.7128  -51.0758 O.2       16 UNK        -0.5000 
     94 N          -3.4412  -21.6893  -50.3472 N.am      17 UNK        -0.5000 
     95 CA         -2.9192  -20.3333  -50.2376 C.3       17 UNK         0.1400 
     96 CB         -2.0277  -20.2071  -48.9950 C.3       17 UNK        -0.1800 
     97 C          -4.0935  -19.3533  -50.1633 C.2       17 UNK         0.5000 
     98 O          -5.1638  -19.7255  -49.6770 O.2       17 UNK        -0.5000 
     99 N          -3.8608  -18.1251  -50.6489 N.am      18 UNK        -0.5000 
    100 CA        -4.7839  -16.9797  -50.6746 C.3       18 UNK         0.1400 
    101 CB        -5.0093  -16.4535  -49.2424 C.3       18 UNK        -0.1800 
    102 C         -6.1141  -17.2225  -51.4299 C.2       18 UNK         0.5000 
    103 O         -7.0783  -16.4839  -51.2216 O.2       18 UNK        -0.5000 
    104 N         -6.1470  -18.2393  -52.2975 N.am      19 UNK        -0.5000 
    105 CA        -7.2923  -18.6703  -53.0885 C.3       19 UNK         0.1400 
    106 CB        -8.2555  -19.4896  -52.2096 C.3       19 UNK        -0.1800 
    107 C         -6.7806  -19.5049  -54.2707 C.2       19 UNK         0.5000 
    108 O         -5.6282  -19.9505  -54.2521 O.2       19 UNK        -0.5000 
    109 N         -7.6465  -19.6998  -55.2753 N.am      20 UNK        -0.5000 
    110 CA        -7.3817  -20.4022  -56.5361 C.3       20 UNK         0.1400 
    111 CB        -7.2010  -21.9176  -56.2865 C.3       20 UNK        -0.1800 
    112 C         -6.2176  -19.7363  -57.2999 C.2       20 UNK         0.5000 
    113 O         -6.2953  -18.5374  -57.5780 O.2       20 UNK        -0.5000 
    114 N         -5.1441  -20.4885  -57.5782 N.am      21 UNK        -0.5000 
    115 CA        -3.9088  -20.0003  -58.2005 C.3       21 UNK         0.1400 
    116 CB        -2.9854  -21.1965  -58.4776 C.3       21 UNK        -0.1800 
    117 C         -3.1695  -18.9305  -57.3681 C.2       21 UNK         0.5000 
    118 O         -2.4279  -18.1294  -57.9384 O.2       21 UNK        -0.5000 
    119 N         -3.4024  -18.9239  -56.0501 N.am      22 UNK        -0.5000 
    120 CA        -2.9101  -17.9155  -55.1020 C.3       22 UNK         0.1400 
    121 C         -3.9194  -16.7520  -54.8609 C.2       22 UNK         0.5000 
    122 N         -5.0341  -16.6601  -55.5779 N.am      22 UNK        -0.7600 
    123 O         -3.6855  -15.9055  -54.0032 O.2       22 UNK        -0.5000 
    124 C124       -2.4673  -18.5685  -53.7680 C.3       23 UNK        -0.0398 
    125 S125       -1.0820  -19.7365  -53.9745 S.3       23 UNK        -0.2404 
    126 C126        0.3419  -18.6985  -53.5153 C.3       23 UNK        -0.0205 
    127 H127       -4.0967  -11.9690  -50.0503 H         1 UNK         0.0600 
    128 H128       -3.6229  -13.5871  -49.5086 H         1 UNK         0.0600 
    129 H129       -4.0570  -13.3144  -51.2049 H         1 UNK         0.0600 
    130 H130       -1.4263  -13.8804  -49.3142 H         1 UNK         0.3000 
    131 H131        0.4737  -12.6486  -51.1974 H         1 UNK         0.0600 
    132 H132        0.7612  -15.0227  -50.9006 H         1 UNK         0.0800 
    133 H133        2.1194  -14.2252  -50.1974 H         1 UNK         0.0800 
    134 H134       -1.2459  -16.1234  -49.4811 H         1 UNK         0.0800 
    135 H135       -0.7802  -17.0310  -48.0697 H         1 UNK         0.0800 
    136 H136       -0.6030  -16.9102  -51.6690 H         1 UNK         0.1150 
    137 H137        1.8290  -20.4208  -52.0272 H         1 UNK         0.1150 
    138 H138        1.2824  -18.5735  -48.1977 H         1 UNK         0.1150 
    139 H139        3.3509  -20.9203  -50.1423 H         1 UNK         0.0800 
    140 H140        3.0983  -20.2347  -48.5620 H         1 UNK         0.0800 
    141 H141        0.2874  -20.9333  -47.3727 H         1 UNK         0.0800 
    142 H142        1.8845  -21.2482  -46.7644 H         1 UNK         0.0800 
    143 H143        1.2689  -23.7396  -46.6513 H         1 UNK         0.0600 
    144 H144        0.6748  -21.7014  -44.7778 H         1 UNK         0.3000 
    145 H145       -0.1912  -23.8990  -42.0727 H         1 UNK         0.0600 
    146 H146        1.6046  -22.5577  -41.0296 H         1 UNK         0.0600 
    147 H147        2.2991  -23.7101  -42.1593 H         1 UNK         0.0600 
    148 H148        2.1656  -22.0146  -42.6090 H         1 UNK         0.0600 
    149 H149       -0.1168  -21.0650  -42.2096 H         1 UNK         0.3000 
    150 H150       -3.5083  -20.5915  -43.3298 H         1 UNK         0.0600 
    151 H151       -3.5504  -20.9534  -40.8523 H         1 UNK         0.0600 
    152 H152       -3.5405  -19.2455  -41.2631 H         1 UNK         0.0600 
    153 H153       -2.0663  -20.0218  -40.6882 H         1 UNK         0.0600 
    154 H154       -1.5241  -18.6776  -42.7187 H         1 UNK         0.3000 
    155 H155       -0.0675  -18.4586  -46.0146 H         1 UNK         0.0600 
    156 H156       -1.7188  -16.5846  -44.2389 H         1 UNK         0.0600 
    157 H157       -2.0928  -17.0046  -45.9045 H         1 UNK         0.0600 
    158 H158       -0.6346  -16.0922  -45.5370 H         1 UNK         0.0600 
    159 H159        0.6561  -17.1357  -43.6166 H         1 UNK         0.3000 
    160 H160        2.9913  -19.5583  -42.3869 H         1 UNK         0.0600 
    161 H161        4.3872  -17.5023  -42.4203 H         1 UNK         0.0600 
    162 H162        3.2762  -16.7368  -43.5539 H         1 UNK         0.0600 
    163 H163        4.1976  -18.1505  -44.0423 H         1 UNK         0.0600 
    164 H164        1.9732  -17.0185  -41.4499 H         1 UNK         0.3000 
    165 H165       -0.5556  -18.3792  -39.3332 H         1 UNK         0.0600 
    166 H166        0.7618  -17.1804  -37.6109 H         1 UNK         0.0600 
    167 H167        1.5704  -18.6753  -38.0532 H         1 UNK         0.0600 
    168 H168        2.1713  -17.1410  -38.6706 H         1 UNK         0.0600 
    169 H169        0.4373  -15.7224  -39.7293 H         1 UNK         0.3000 
    170 H170       -1.6622  -14.8458  -42.4637 H         1 UNK         0.0600 
    171 H171       -3.1514  -14.6552  -40.4628 H         1 UNK         0.0600 
    172 H172       -1.8098  -14.0276  -39.5130 H         1 UNK         0.0600 
    173 H173       -2.4352  -13.1078  -40.8822 H         1 UNK         0.0600 
    174 H174        0.0704  -13.2243  -40.9733 H         1 UNK         0.3000 
    175 H175        1.9218  -12.4063  -42.0985 H         1 UNK         0.0600 
    176 H176        3.5728  -14.8427  -41.2067 H         1 UNK         0.0600 
    177 H177        4.0299  -13.1536  -40.9872 H         1 UNK         0.0600 
    178 H178        2.6380  -13.8028  -40.1386 H         1 UNK         0.0600 
    179 H179        3.9871  -13.8629  -43.4166 H         1 UNK         0.3000 
    180 H180        4.6044  -12.8797  -45.5493 H         1 UNK         0.0600 
    181 H181        2.7797  -15.2054  -46.3661 H         1 UNK         0.0600 
    182 H182        4.2241  -15.2914  -45.3750 H         1 UNK         0.0600 
    183 H183        4.3653  -14.9060  -47.0801 H         1 UNK         0.0600 
    184 H184        2.7908  -13.0695  -47.7923 H         1 UNK         0.3000 
    185 H185        2.0844   -9.7875  -48.2914 H         1 UNK         0.0600 
    186 H186        4.4640   -9.2414  -48.7756 H         1 UNK         0.0600 
    187 H187        4.6615  -10.7632  -49.6354 H         1 UNK         0.0600 
    188 H188        3.5779   -9.5208  -50.2643 H         1 UNK         0.0600 
    189 H189        2.5949  -11.9403  -50.1657 H         1 UNK         0.3000 
    190 H190       -1.8078  -22.0260  -45.9384 H         1 UNK         0.3000 
    191 H191       -3.4113  -23.2908  -47.8838 H         1 UNK         0.0600 
    192 H192       -4.2033  -22.1832  -45.1416 H         1 UNK         0.0600 
    193 H193       -5.3127  -22.5493  -46.4540 H         1 UNK         0.0600 
    194 H194       -4.1345  -21.2643  -46.6408 H         1 UNK         0.0600 
    195 H195       -2.5820  -24.3259  -44.5618 H         1 UNK         0.3000 
    196 H196       -4.2212  -26.6825  -44.5612 H         1 UNK         0.0600 
    197 H197       -2.8774  -27.2719  -42.5466 H         1 UNK         0.0600 
    198 H198       -3.4290  -25.6046  -42.4753 H         1 UNK         0.0600 
    199 H199       -1.7550  -25.9617  -42.8908 H         1 UNK         0.0600 
    200 H200       -0.7854  -26.0899  -45.4029 H         1 UNK         0.3000 
    201 H201       -0.0789  -28.8110  -45.8328 H         1 UNK         0.0600 
    202 H202        1.5870  -27.0485  -45.3565 H         1 UNK         0.0600 
    203 H203        1.2059  -26.2322  -46.8718 H         1 UNK         0.0600 
    204 H204        1.9586  -27.8225  -46.8892 H         1 UNK         0.0600 
    205 H205       -1.2201  -26.2743  -48.1094 H         1 UNK         0.3000 
    206 H206       -1.9134  -28.3320  -50.1096 H         1 UNK         0.0600 
    207 H207       -0.7010  -27.0057  -51.8998 H         1 UNK         0.0600 
    208 H208        0.0938  -26.0677  -50.6352 H         1 UNK         0.0600 
    209 H209        0.3831  -27.7972  -50.7690 H         1 UNK         0.0600 
    210 H210       -1.5513  -24.8309  -50.5914 H         1 UNK         0.3000 
    211 H211       -4.2395  -24.1032  -49.9910 H         1 UNK         0.0600 
    212 H212       -3.4354  -24.3197  -52.9574 H         1 UNK         0.0600 
    213 H213       -4.8700  -23.4946  -52.3601 H         1 UNK         0.0600 
    214 H214       -4.7243  -25.2344  -52.1762 H         1 UNK         0.0600 
    215 H215       -4.4243  -21.7713  -50.1181 H         1 UNK         0.3000 
    216 H216       -2.3296  -20.1048  -51.1276 H         1 UNK         0.0600 
    217 H217       -1.7761  -19.1694  -48.7850 H         1 UNK         0.0600 
    218 H218       -1.0957  -20.7499  -49.1422 H         1 UNK         0.0600 
    219 H219       -2.5154  -20.6026  -48.1069 H         1 UNK         0.0600 
    220 H220       -2.9382  -17.9312  -51.0073 H         1 UNK         0.3000 
    221 H221       -4.2710  -16.1945  -51.2318 H         1 UNK         0.0600 
    222 H222       -5.5682  -17.1664  -48.6356 H         1 UNK         0.0600 
    223 H223       -4.0618  -16.2565  -48.7407 H         1 UNK         0.0600 
    224 H224       -5.5702  -15.5184  -49.2492 H         1 UNK         0.0600 
    225 H225       -5.3163  -18.7935  -52.4516 H         1 UNK         0.3000 
    226 H226       -7.8053  -17.7917  -53.4850 H         1 UNK         0.0600 
    227 H227       -9.1141  -19.8401  -52.7833 H         1 UNK         0.0600 
    228 H228       -7.7616  -20.3653  -51.7862 H         1 UNK         0.0600 
    229 H229       -8.6425  -18.8941  -51.3828 H         1 UNK         0.0600 
    230 H230       -8.5590  -19.2712  -55.2081 H         1 UNK         0.3000 
    231 H231       -8.2677  -20.2728  -57.1592 H         1 UNK         0.0600 
    232 H232       -8.0724  -22.3317  -55.7792 H         1 UNK         0.0600 
    233 H233       -6.3295  -22.1374  -55.6689 H         1 UNK         0.0600 
    234 H234       -7.0925  -22.4618  -57.2255 H         1 UNK         0.0600 
    235 H235       -5.1513  -21.4569  -57.2925 H         1 UNK         0.3000 
    236 H236       -4.1752  -19.5434  -59.1559 H         1 UNK         0.0600 
    237 H237       -3.4660  -21.9245  -59.1314 H         1 UNK         0.0600 
    238 H238       -2.0671  -20.8752  -58.9710 H         1 UNK         0.0600 
    239 H239       -2.7013  -21.7062  -57.5559 H         1 UNK         0.0600 
    240 H240       -4.0572  -19.5946  -55.6650 H         1 UNK         0.3000 
    241 H241       -2.0279  -17.4343  -55.5277 H         1 UNK         0.0600 
    242 H242       -5.2605  -17.3352  -56.2991 H         1 UNK         0.3800 
    243 H243       -5.6577  -15.8870  -55.4112 H         1 UNK         0.3800 
    244 H244       -2.1786  -17.8079  -53.0451 H         1 UNK         0.0800 
    245 H245       -3.2989  -19.1134  -53.3227 H         1 UNK         0.0800 
    246 H246        1.2293  -19.0902  -54.0146 H         1 UNK         0.0800 
    247 H247        0.2063  -17.6864  -53.8998 H         1 UNK         0.0800 
@<TRIPOS>BOND
     1    1    2 1    
     2    1  127 1    
     3    1  128 1    
     4    1  129 1    
     5    2    3 2    
     6    2    4 am   BACKBONE|DICT|INTERRES
     7    4    5 1    
     8    4  130 1    
     9    5    6 1    
    10    5   65 1    
    11    5  131 1    
    12    6    7 1    
    13    6  132 1    
    14    6  133 1    
    15    7    8 1    
    16    8    9 1    
    17    8  134 1    
    18    8  135 1    
    19    9   10 ar   
    20    9   14 ar   
    21   10   11 ar   
    22   10  136 1    
    23   11   12 ar   
    24   11  126 1    
    25   12   13 ar   
    26   12  137 1    
    27   13   14 ar   
    28   13   15 1    
    29   14  138 1    
    30   15   16 1    
    31   15  139 1    
    32   15  140 1    
    33   16   17 1    
    34   17   18 1    
    35   17  141 1    
    36   17  142 1    
    37   18   19 1    
    38   18   67 1    
    39   18  143 1    
    40   19   20 am   BACKBONE|DICT|INTERRES
    41   19  144 1    
    42   20   21 2    
    43   20   22 1    
    44   22   23 1    
    45   22   24 1    
    46   22  145 1    
    47   23  146 1    
    48   23  147 1    
    49   23  148 1    
    50   24   25 am   BACKBONE|DICT|INTERRES
    51   24  149 1    
    52   25   26 2    
    53   25   27 1    
    54   27   28 1    
    55   27   29 1    
    56   27  150 1    
    57   28  151 1    
    58   28  152 1    
    59   28  153 1    
    60   29   30 am   BACKBONE|DICT|INTERRES
    61   29  154 1    
    62   30   31 2    
    63   30   32 1    
    64   32   33 1    
    65   32   34 1    
    66   32  155 1    
    67   33  156 1    
    68   33  157 1    
    69   33  158 1    
    70   34   35 am   BACKBONE|DICT|INTERRES
    71   34  159 1    
    72   35   36 2    
    73   35   37 1    
    74   37   38 1    
    75   37   39 1    
    76   37  160 1    
    77   38  161 1    
    78   38  162 1    
    79   38  163 1    
    80   39   40 am   BACKBONE|DICT|INTERRES
    81   39  164 1    
    82   40   41 2    
    83   40   42 1    
    84   42   43 1    
    85   42   44 1    
    86   42  165 1    
    87   43  166 1    
    88   43  167 1    
    89   43  168 1    
    90   44   45 am   BACKBONE|DICT|INTERRES
    91   44  169 1    
    92   45   46 2    
    93   45   47 1    
    94   47   48 1    
    95   47   49 1    
    96   47  170 1    
    97   48  171 1    
    98   48  172 1    
    99   48  173 1    
   100   49   50 am   BACKBONE|DICT|INTERRES
   101   49  174 1    
   102   50   51 2    
   103   50   52 1    
   104   52   53 1    
   105   52   54 1    
   106   52  175 1    
   107   53  176 1    
   108   53  177 1    
   109   53  178 1    
   110   54   55 am   BACKBONE|DICT|INTERRES
   111   54  179 1    
   112   55   56 2    
   113   55   57 1    
   114   57   58 1    
   115   57   59 1    
   116   57  180 1    
   117   58  181 1    
   118   58  182 1    
   119   58  183 1    
   120   59   60 am   BACKBONE|DICT|INTERRES
   121   59  184 1    
   122   60   61 2    
   123   60   62 1    
   124   62   63 1    
   125   62   64 1    
   126   62  185 1    
   127   63  186 1    
   128   63  187 1    
   129   63  188 1    
   130   64   65 am   BACKBONE|DICT|INTERRES
   131   64  189 1    
   132   65   66 2    
   133   67   68 2    
   134   67   69 am   BACKBONE|DICT|INTERRES
   135   69   70 1    
   136   69  190 1    
   137   70   71 1    
   138   70   72 1    
   139   70  191 1    
   140   71  192 1    
   141   71  193 1    
   142   71  194 1    
   143   72   73 2    
   144   72   74 am   BACKBONE|DICT|INTERRES
   145   74   75 1    
   146   74  195 1    
   147   75   76 1    
   148   75   77 1    
   149   75  196 1    
   150   76  197 1    
   151   76  198 1    
   152   76  199 1    
   153   77   78 2    
   154   77   79 am   BACKBONE|DICT|INTERRES
   155   79   80 1    
   156   79  200 1    
   157   80   81 1    
   158   80   82 1    
   159   80  201 1    
   160   81  202 1    
   161   81  203 1    
   162   81  204 1    
   163   82   83 2    
   164   82   84 am   BACKBONE|DICT|INTERRES
   165   84   85 1    
   166   84  205 1    
   167   85   86 1    
   168   85   87 1    
   169   85  206 1    
   170   86  207 1    
   171   86  208 1    
   172   86  209 1    
   173   87   88 2    
   174   87   89 am   BACKBONE|DICT|INTERRES
   175   89   90 1    
   176   89  210 1    
   177   90   91 1    
   178   90   92 1    
   179   90  211 1    
   180   91  212 1    
   181   91  213 1    
   182   91  214 1    
   183   92   93 2    
   184   92   94 am   BACKBONE|DICT|INTERRES
   185   94   95 1    
   186   94  215 1    
   187   95   96 1    
   188   95   97 1    
   189   95  216 1    
   190   96  217 1    
   191   96  218 1    
   192   96  219 1    
   193   97   98 2    
   194   97   99 am   BACKBONE|DICT|INTERRES
   195   99  100 1    
   196   99  220 1    
   197  100  101 1    
   198  100  102 1    
   199  100  221 1    
   200  101  222 1    
   201  101  223 1    
   202  101  224 1    
   203  102  103 2    
   204  102  104 am   BACKBONE|DICT|INTERRES
   205  104  105 1    
   206  104  225 1    
   207  105  106 1    
   208  105  107 1    
   209  105  226 1    
   210  106  227 1    
   211  106  228 1    
   212  106  229 1    
   213  107  108 2    
   214  107  109 am   BACKBONE|DICT|INTERRES
   215  109  110 1    
   216  109  230 1    
   217  110  111 1    
   218  110  112 1    
   219  110  231 1    
   220  111  232 1    
   221  111  233 1    
   222  111  234 1    
   223  112  113 2    
   224  112  114 am   BACKBONE|DICT|INTERRES
   225  114  115 1    
   226  114  235 1    
   227  115  116 1    
   228  115  117 1    
   229  115  236 1    
   230  116  237 1    
   231  116  238 1    
   232  116  239 1    
   233  117  118 2    
   234  117  119 am   BACKBONE|DICT|INTERRES
   235  119  120 1    
   236  119  240 1    
   237  120  121 1    
   238  120  124 1    
   239  120  241 1    
   240  121  122 am   BACKBONE|DICT|INTERRES
   241  121  123 2    
   242  122  242 1    
   243  122  243 1    
   244  124  125 1    
   245  124  244 1    
   246  124  245 1    
   247  125  126 1    
   248  126  246 1    
   249  126  247 1    
@<TRIPOS>SUBSTRUCTURE
     1 UNK         1 GROUP             0       ****    0 ROOT    
