@<TRIPOS>MOLECULE
3R540
247   249    1
SMALL
USER_CHARGES


@<TRIPOS>ATOM
      1 CA          1.0195  -13.1986  -49.1611 C.3       0 UNK        -0.1800 
      2 C           2.1815  -13.5788  -50.0683 C.2       0 UNK         0.5000 
      3 O           2.1476  -13.2842  -51.2636 O.2       0 UNK        -0.5000 
      4 N           3.2094  -14.2114  -49.4989 N.am      1 UNK        -0.5000 
      5 CA          4.4686  -14.5609  -50.1550 C.3       1 UNK         0.1400 
      6 C6          4.5553  -16.0783  -50.4914 C.3       23 UNK        -0.0398 
      7 S7          4.4662  -17.1895  -49.0364 S.3       23 UNK        -0.2404 
      8 C8          3.0838  -18.2979  -49.4385 C.3       23 UNK        -0.0205 
      9 C9          1.7507  -17.5735  -49.5497 C.ar      23 UNK        -0.0193 
     10 C10         1.1276  -17.4425  -50.7947 C.ar      23 UNK        -0.1150 
     11 C11        -0.1127  -16.8101  -50.9041 C.ar      23 UNK        -0.0193 
     12 C12        -0.7325  -16.3124  -49.7560 C.ar      23 UNK        -0.1150 
     13 C13        -0.1210  -16.4358  -48.5054 C.ar      23 UNK        -0.0193 
     14 C14         1.1247  -17.0635  -48.4079 C.ar      23 UNK        -0.1150 
     15 C15        -0.8046  -15.8621  -47.2746 C.3       23 UNK        -0.0205 
     16 S16        -2.2523  -16.8532  -46.7847 S.3       23 UNK        -0.2404 
     17 C17        -1.5186  -18.0396  -45.6122 C.3       23 UNK        -0.0398 
     18 CA         -0.9156  -19.3002  -46.2754 C.3       11 UNK         0.1400 
     19 N          -0.0551  -20.0139  -45.3349 N.am      11 UNK        -0.5000 
     20 C           0.7413  -21.0462  -45.6375 C.2       10 UNK         0.5000 
     21 O           0.8777  -21.5064  -46.7705 O.2       10 UNK        -0.5000 
     22 CA          1.4699  -21.7022  -44.4540 C.3       10 UNK         0.1400 
     23 CB          2.7284  -20.9039  -44.0784 C.3       10 UNK        -0.1800 
     24 N           0.5977  -21.8296  -43.2847 N.am      10 UNK        -0.5000 
     25 C          -0.4587  -22.6524  -43.2160 C.2       9 UNK         0.5000 
     26 O          -0.7946  -23.4133  -44.1235 O.2       9 UNK        -0.5000 
     27 CA         -1.3058  -22.5810  -41.9324 C.3       9 UNK         0.1400 
     28 CB         -0.6295  -23.3506  -40.7879 C.3       9 UNK        -0.1800 
     29 N          -1.5722  -21.2059  -41.5065 N.am      9 UNK        -0.5000 
     30 C          -2.3186  -20.3346  -42.1992 C.2       8 UNK         0.5000 
     31 O          -2.8666  -20.6008  -43.2666 O.2       8 UNK        -0.5000 
     32 CA         -2.4440  -18.9112  -41.6318 C.3       8 UNK         0.1400 
     33 CB         -3.5838  -18.8351  -40.6059 C.3       8 UNK        -0.1800 
     34 N          -1.2183  -18.3852  -41.0304 N.am      8 UNK        -0.5000 
     35 C          -0.0275  -18.2814  -41.6348 C.2       7 UNK         0.5000 
     36 O           0.2248  -18.7580  -42.7431 O.2       7 UNK        -0.5000 
     37 CA          1.0236  -17.4467  -40.8823 C.3       7 UNK         0.1400 
     38 CB          2.4202  -17.5286  -41.5222 C.3       7 UNK        -0.1800 
     39 N           0.5812  -16.0534  -40.8648 N.am      7 UNK        -0.5000 
     40 C          -0.2441  -15.5220  -39.9500 C.2       6 UNK         0.5000 
     41 O          -0.6173  -16.1274  -38.9443 O.2       6 UNK        -0.5000 
     42 CA         -0.7869  -14.1032  -40.2202 C.3       6 UNK         0.1400 
     43 CB          0.0979  -13.0503  -39.5362 C.3       6 UNK        -0.1800 
     44 N          -0.8889  -13.7856  -41.6453 N.am      6 UNK        -0.5000 
     45 C          -1.6926  -14.4019  -42.5254 C.2       5 UNK         0.5000 
     46 O          -2.5408  -15.2356  -42.2077 O.2       5 UNK        -0.5000 
     47 CA         -1.4901  -14.0568  -44.0170 C.3       5 UNK         0.1400 
     48 CB         -2.5988  -13.1194  -44.5168 C.3       5 UNK        -0.1800 
     49 N          -0.1828  -13.4627  -44.3294 N.am      5 UNK        -0.5000 
     50 C           0.9961  -14.0730  -44.1491 C.2       4 UNK         0.5000 
     51 O           1.1024  -15.2183  -43.7065 O.2       4 UNK        -0.5000 
     52 CA          2.2539  -13.2327  -44.4322 C.3       4 UNK         0.1400 
     53 CB          2.4432  -12.1694  -43.3372 C.3       4 UNK        -0.1800 
     54 N           3.4476  -14.0750  -44.4651 N.am      4 UNK        -0.5000 
     55 C           3.8461  -14.7794  -45.5275 C.2       3 UNK         0.5000 
     56 O           3.3055  -14.7207  -46.6358 O.2       3 UNK        -0.5000 
     57 CA          5.0422  -15.7197  -45.3074 C.3       3 UNK         0.1400 
     58 CB          4.5667  -17.1772  -45.1909 C.3       3 UNK        -0.1800 
     59 N           5.9518  -15.6033  -46.4400 N.am      3 UNK        -0.5000 
     60 C           6.9586  -14.7237  -46.5349 C.2       2 UNK         0.5000 
     61 O           7.3539  -14.0279  -45.5988 O.2       2 UNK        -0.5000 
     62 CA          7.6087  -14.5720  -47.9274 C.3       2 UNK         0.1400 
     63 CB          8.7911  -15.5401  -48.0833 C.3       2 UNK        -0.1800 
     64 N           6.6436  -14.8122  -49.0033 N.am      2 UNK        -0.5000 
     65 C           5.6088  -14.0039  -49.2741 C.2       1 UNK         0.5000 
     66 O           5.5191  -12.8590  -48.8225 O.2       1 UNK        -0.5000 
     67 C          -1.9794  -20.2305  -46.8972 C.2       11 UNK         0.5000 
     68 O          -2.1127  -20.2659  -48.1202 O.2       11 UNK        -0.5000 
     69 N          -2.6692  -21.0184  -46.0579 N.am      12 UNK        -0.5000 
     70 CA         -3.6392  -22.0272  -46.4834 C.3       12 UNK         0.1400 
     71 CB         -4.3587  -22.6207  -45.2642 C.3       12 UNK        -0.1800 
     72 C          -3.0061  -23.1422  -47.3300 C.2       12 UNK         0.5000 
     73 O          -3.5919  -23.5240  -48.3426 O.2       12 UNK        -0.5000 
     74 N          -1.8208  -23.6231  -46.9274 N.am      13 UNK        -0.5000 
     75 CA         -1.0465  -24.6284  -47.6574 C.3       13 UNK         0.1400 
     76 CB          0.1644  -25.0692  -46.8221 C.3       13 UNK        -0.1800 
     77 C          -0.6090  -24.1426  -49.0505 C.2       13 UNK         0.5000 
     78 O          -0.7941  -24.8687  -50.0275 O.2       13 UNK        -0.5000 
     79 N          -0.0934  -22.9077  -49.1289 N.am      14 UNK        -0.5000 
     80 CA          0.2871  -22.2416  -50.3778 C.3       14 UNK         0.1400 
     81 CB          1.0139  -20.9335  -50.0525 C.3       14 UNK        -0.1800 
     82 C          -0.9082  -21.9801  -51.3135 C.2       14 UNK         0.5000 
     83 O          -0.7639  -22.0856  -52.5314 O.2       14 UNK        -0.5000 
     84 N          -2.0788  -21.7099  -50.7230 N.am      15 UNK        -0.5000 
     85 CA         -3.3665  -21.5874  -51.4034 C.3       15 UNK         0.1400 
     86 CB         -4.3050  -20.7378  -50.5318 C.3       15 UNK        -0.1800 
     87 C          -4.0116  -22.9440  -51.7674 C.2       15 UNK         0.5000 
     88 O          -5.1536  -22.9402  -52.2288 O.2       15 UNK        -0.5000 
     89 N          -3.2884  -24.0582  -51.5727 N.am      16 UNK        -0.5000 
     90 CA         -3.6539  -25.4456  -51.8750 C.3       16 UNK         0.1400 
     91 CB         -3.9004  -25.6473  -53.3832 C.3       16 UNK        -0.1800 
     92 C          -4.8110  -25.9505  -50.9953 C.2       16 UNK         0.5000 
     93 O          -5.8378  -26.3960  -51.5076 O.2       16 UNK        -0.5000 
     94 N          -4.6102  -25.8514  -49.6747 N.am      17 UNK        -0.5000 
     95 CA         -5.5581  -26.1692  -48.6012 C.3       17 UNK         0.1400 
     96 CB         -5.9580  -27.6599  -48.6144 C.3       17 UNK        -0.1800 
     97 C          -6.7588  -25.2035  -48.6055 C.2       17 UNK         0.5000 
     98 O          -7.9078  -25.6309  -48.4808 O.2       17 UNK        -0.5000 
     99 N          -6.4447  -23.9082  -48.7593 N.am      18 UNK        -0.5000 
    100 CA        -7.3654  -22.7684  -48.8166 C.3       18 UNK         0.1400 
    101 CB        -8.0585  -22.5572  -47.4546 C.3       18 UNK        -0.1800 
    102 C         -8.3563  -22.8311  -50.0009 C.2       18 UNK         0.5000 
    103 O         -9.4838  -22.3472  -49.8901 O.2       18 UNK        -0.5000 
    104 N         -7.9070  -23.3972  -51.1294 N.am      19 UNK        -0.5000 
    105 CA        -8.6500  -23.4645  -52.3912 C.3       19 UNK         0.1400 
    106 CB        -8.1507  -24.6756  -53.1935 C.3       19 UNK        -0.1800 
    107 C         -8.5269  -22.1741  -53.2284 C.2       19 UNK         0.5000 
    108 O         -9.1908  -22.0622  -54.2597 O.2       19 UNK        -0.5000 
    109 N         -7.6790  -21.2381  -52.7756 N.am      20 UNK        -0.5000 
    110 CA        -7.3235  -19.9634  -53.4038 C.3       20 UNK         0.1400 
    111 CB        -8.5537  -19.0449  -53.5633 C.3       20 UNK        -0.1800 
    112 C         -6.5259  -20.1619  -54.7077 C.2       20 UNK         0.5000 
    113 O         -6.7671  -19.4691  -55.6970 O.2       20 UNK        -0.5000 
    114 N         -5.5683  -21.1011  -54.6755 N.am      21 UNK        -0.5000 
    115 CA        -4.6650  -21.4148  -55.7890 C.3       21 UNK         0.1400 
    116 CB        -4.0157  -22.7824  -55.5350 C.3       21 UNK        -0.1800 
    117 C         -3.5878  -20.3418  -56.0662 C.2       21 UNK         0.5000 
    118 O         -2.8896  -20.4473  -57.0758 O.2       21 UNK        -0.5000 
    119 N         -3.4639  -19.3426  -55.1812 N.am      22 UNK        -0.5000 
    120 CA        -2.6151  -18.1497  -55.3341 C.3       22 UNK         0.1400 
    121 C         -2.9012  -17.3617  -56.6462 C.2       22 UNK         0.5000 
    122 N         -1.8686  -16.9276  -57.3563 N.am      22 UNK        -0.7600 
    123 O         -4.0491  -17.0985  -56.9972 O.2       22 UNK        -0.5000 
    124 C124       -2.7726  -17.2016  -54.1185 C.3       23 UNK        -0.0398 
    125 S125       -2.0575  -17.8766  -52.5798 S.3       23 UNK        -0.2404 
    126 C126       -0.7698  -16.6278  -52.2619 C.3       23 UNK        -0.0205 
    127 H127        1.1230  -13.6395  -48.1692 H         1 UNK         0.0600 
    128 H128        0.0779  -13.5392  -49.5906 H         1 UNK         0.0600 
    129 H129        0.9710  -12.1157  -49.0489 H         1 UNK         0.0600 
    130 H130        3.1877  -14.4048  -48.4989 H         1 UNK         0.3000 
    131 H131        4.5524  -14.0166  -51.0976 H         1 UNK         0.0600 
    132 H132        3.7525  -16.3296  -51.1844 H         1 UNK         0.0800 
    133 H133        5.4740  -16.2953  -51.0381 H         1 UNK         0.0800 
    134 H134        3.0092  -19.0531  -48.6549 H         1 UNK         0.0800 
    135 H135        3.3150  -18.8348  -50.3596 H         1 UNK         0.0800 
    136 H136        1.6075  -17.8333  -51.6807 H         1 UNK         0.1150 
    137 H137       -1.6925  -15.8219  -49.8359 H         1 UNK         0.1150 
    138 H138        1.6092  -17.1572  -47.4459 H         1 UNK         0.1150 
    139 H139       -0.0997  -15.7748  -46.4470 H         1 UNK         0.0800 
    140 H140       -1.1378  -14.8470  -47.4947 H         1 UNK         0.0800 
    141 H141       -2.2841  -18.3196  -44.8876 H         1 UNK         0.0800 
    142 H142       -0.7524  -17.5165  -45.0372 H         1 UNK         0.0800 
    143 H143       -0.2687  -18.9782  -47.0912 H         1 UNK         0.0600 
    144 H144       -0.0632  -19.6834  -44.3731 H         1 UNK         0.3000 
    145 H145        1.7791  -22.7034  -44.7614 H         1 UNK         0.0600 
    146 H146        3.2744  -21.3857  -43.2673 H         1 UNK         0.0600 
    147 H147        3.4081  -20.8278  -44.9281 H         1 UNK         0.0600 
    148 H148        2.4867  -19.8882  -43.7636 H         1 UNK         0.0600 
    149 H149        0.7612  -21.1852  -42.5249 H         1 UNK         0.3000 
    150 H150       -2.2647  -23.0600  -42.1427 H         1 UNK         0.0600 
    151 H151       -0.4315  -24.3838  -41.0767 H         1 UNK         0.0600 
    152 H152       -1.2650  -23.3782  -39.9026 H         1 UNK         0.0600 
    153 H153        0.3226  -22.9006  -40.5042 H         1 UNK         0.0600 
    154 H154       -1.1486  -20.8990  -40.6434 H         1 UNK         0.3000 
    155 H155       -2.6975  -18.2512  -42.4635 H         1 UNK         0.0600 
    156 H156       -3.3685  -19.4323  -39.7190 H         1 UNK         0.0600 
    157 H157       -4.5187  -19.2022  -41.0316 H         1 UNK         0.0600 
    158 H158       -3.7560  -17.8070  -40.2860 H         1 UNK         0.0600 
    159 H159       -1.3236  -17.9284  -40.1333 H         1 UNK         0.3000 
    160 H160        1.0994  -17.8317  -39.8633 H         1 UNK         0.0600 
    161 H161        2.4103  -17.1812  -42.5545 H         1 UNK         0.0600 
    162 H162        2.7879  -18.5552  -41.5253 H         1 UNK         0.0600 
    163 H163        3.1421  -16.9244  -40.9729 H         1 UNK         0.0600 
    164 H164        0.7733  -15.5314  -41.7132 H         1 UNK         0.3000 
    165 H165       -1.7887  -14.0449  -39.7898 H         1 UNK         0.0600 
    166 H166       -0.3152  -12.0486  -39.6565 H         1 UNK         0.0600 
    167 H167        0.1753  -13.2418  -38.4651 H         1 UNK         0.0600 
    168 H168        1.1098  -13.0484  -39.9434 H         1 UNK         0.0600 
    169 H169       -0.2392  -13.1008  -42.0005 H         1 UNK         0.3000 
    170 H170       -1.5668  -14.9963  -44.5645 H         1 UNK         0.0600 
    171 H171       -3.5853  -13.5444  -44.3264 H         1 UNK         0.0600 
    172 H172       -2.5579  -12.1482  -44.0224 H         1 UNK         0.0600 
    173 H173       -2.5210  -12.9554  -45.5919 H         1 UNK         0.0600 
    174 H174       -0.1962  -12.5150  -44.6786 H         1 UNK         0.3000 
    175 H175        2.1315  -12.7331  -45.3958 H         1 UNK         0.0600 
    176 H176        2.5368  -12.6198  -42.3480 H         1 UNK         0.0600 
    177 H177        3.3386  -11.5745  -43.5188 H         1 UNK         0.0600 
    178 H178        1.6009  -11.4773  -43.3052 H         1 UNK         0.0600 
    179 H179        3.9177  -14.2129  -43.5829 H         1 UNK         0.3000 
    180 H180        5.5610  -15.4489  -44.3854 H         1 UNK         0.0600 
    181 H181        3.9968  -17.4908  -46.0662 H         1 UNK         0.0600 
    182 H182        3.9222  -17.3075  -44.3223 H         1 UNK         0.0600 
    183 H183        5.4085  -17.8602  -45.0765 H         1 UNK         0.0600 
    184 H184        5.6585  -16.0861  -47.2784 H         1 UNK         0.3000 
    185 H185        7.9851  -13.5507  -48.0158 H         1 UNK         0.0600 
    186 H186        9.5374  -15.3713  -47.3059 H         1 UNK         0.0600 
    187 H187        8.4727  -16.5810  -48.0124 H         1 UNK         0.0600 
    188 H188        9.2875  -15.4048  -49.0444 H         1 UNK         0.0600 
    189 H189        6.6541  -15.7354  -49.4128 H         1 UNK         0.3000 
    190 H190       -2.5382  -20.9180  -45.0538 H         1 UNK         0.3000 
    191 H191       -4.3864  -21.5268  -47.1023 H         1 UNK         0.0600 
    192 H192       -3.6578  -23.0871  -44.5707 H         1 UNK         0.0600 
    193 H193       -5.0800  -23.3813  -45.5663 H         1 UNK         0.0600 
    194 H194       -4.9071  -21.8523  -44.7192 H         1 UNK         0.0600 
    195 H195       -1.4229  -23.2889  -46.0555 H         1 UNK         0.3000 
    196 H196       -1.6894  -25.4995  -47.7994 H         1 UNK         0.0600 
    197 H197        0.7476  -25.8259  -47.3482 H         1 UNK         0.0600 
    198 H198       -0.1500  -25.5037  -45.8731 H         1 UNK         0.0600 
    199 H199        0.8303  -24.2347  -46.6029 H         1 UNK         0.0600 
    200 H200        0.0556  -22.3808  -48.2716 H         1 UNK         0.3000 
    201 H201        0.9835  -22.8959  -50.9060 H         1 UNK         0.0600 
    202 H202        1.9063  -21.1202  -49.4556 H         1 UNK         0.0600 
    203 H203        0.3747  -20.2466  -49.4957 H         1 UNK         0.0600 
    204 H204        1.3287  -20.4267  -50.9652 H         1 UNK         0.0600 
    205 H205       -2.0901  -21.5728  -49.7173 H         1 UNK         0.3000 
    206 H206       -3.2099  -21.0526  -52.3423 H         1 UNK         0.0600 
    207 H207       -5.2716  -20.5853  -51.0099 H         1 UNK         0.0600 
    208 H208       -4.4836  -21.2065  -49.5649 H         1 UNK         0.0600 
    209 H209       -3.8786  -19.7511  -50.3476 H         1 UNK         0.0600 
    210 H210       -2.3753  -23.9508  -51.1478 H         1 UNK         0.3000 
    211 H211       -2.7852  -26.0502  -51.6108 H         1 UNK         0.0600 
    212 H212       -4.7999  -25.1336  -53.7183 H         1 UNK         0.0600 
    213 H213       -4.0276  -26.7048  -53.6166 H         1 UNK         0.0600 
    214 H214       -3.0603  -25.2826  -53.9739 H         1 UNK         0.0600 
    215 H215       -3.7766  -25.3636  -49.3688 H         1 UNK         0.3000 
    216 H216       -5.0273  -25.9856  -47.6659 H         1 UNK         0.0600 
    217 H217       -6.5423  -27.9116  -47.7287 H         1 UNK         0.0600 
    218 H218       -5.0788  -28.3039  -48.6167 H         1 UNK         0.0600 
    219 H219       -6.5638  -27.9145  -49.4842 H         1 UNK         0.0600 
    220 H220       -5.4558  -23.6849  -48.8320 H         1 UNK         0.3000 
    221 H221       -6.7449  -21.8909  -48.9992 H         1 UNK         0.0600 
    222 H222       -8.7480  -23.3687  -47.2204 H         1 UNK         0.0600 
    223 H223       -7.3293  -22.4924  -46.6472 H         1 UNK         0.0600 
    224 H224       -8.6316  -21.6294  -47.4460 H         1 UNK         0.0600 
    225 H225       -6.9570  -23.7467  -51.1600 H         1 UNK         0.3000 
    226 H226       -9.7096  -23.6149  -52.1750 H         1 UNK         0.0600 
    227 H227       -8.2691  -25.5993  -52.6269 H         1 UNK         0.0600 
    228 H228       -8.7100  -24.7914  -54.1226 H         1 UNK         0.0600 
    229 H229       -7.0973  -24.5746  -53.4546 H         1 UNK         0.0600 
    230 H230       -7.1530  -21.4826  -51.9495 H         1 UNK         0.3000 
    231 H231       -6.6432  -19.4651  -52.7123 H         1 UNK         0.0600 
    232 H232       -9.0888  -18.9353  -52.6200 H         1 UNK         0.0600 
    233 H233       -9.2557  -19.4248  -54.3057 H         1 UNK         0.0600 
    234 H234       -8.2536  -18.0464  -53.8832 H         1 UNK         0.0600 
    235 H235       -5.4743  -21.6725  -53.8429 H         1 UNK         0.3000 
    236 H236       -5.2682  -21.4969  -56.6956 H         1 UNK         0.0600 
    237 H237       -3.3872  -23.0818  -56.3746 H         1 UNK         0.0600 
    238 H238       -3.3863  -22.7711  -54.6451 H         1 UNK         0.0600 
    239 H239       -4.7740  -23.5544  -55.4109 H         1 UNK         0.0600 
    240 H240       -4.0785  -19.3437  -54.3833 H         1 UNK         0.3000 
    241 H241       -1.5808  -18.4973  -55.3699 H         1 UNK         0.0600 
    242 H242       -2.0411  -16.4018  -58.1993 H         1 UNK         0.3800 
    243 H243       -0.9176  -17.1262  -57.0856 H         1 UNK         0.3800 
    244 H244       -3.8266  -16.9797  -53.9417 H         1 UNK         0.0800 
    245 H245       -2.3037  -16.2380  -54.3265 H         1 UNK         0.0800 
    246 H246       -0.0218  -16.6716  -53.0551 H         1 UNK         0.0800 
    247 H247       -1.2092  -15.6300  -52.3085 H         1 UNK         0.0800 
@<TRIPOS>BOND
     1    1    2 1    
     2    1  127 1    
     3    1  128 1    
     4    1  129 1    
     5    2    3 2    
     6    2    4 am   BACKBONE|DICT|INTERRES
     7    4    5 1    
     8    4  130 1    
     9    5    6 1    
    10    5   65 1    
    11    5  131 1    
    12    6    7 1    
    13    6  132 1    
    14    6  133 1    
    15    7    8 1    
    16    8    9 1    
    17    8  134 1    
    18    8  135 1    
    19    9   10 ar   
    20    9   14 ar   
    21   10   11 ar   
    22   10  136 1    
    23   11   12 ar   
    24   11  126 1    
    25   12   13 ar   
    26   12  137 1    
    27   13   14 ar   
    28   13   15 1    
    29   14  138 1    
    30   15   16 1    
    31   15  139 1    
    32   15  140 1    
    33   16   17 1    
    34   17   18 1    
    35   17  141 1    
    36   17  142 1    
    37   18   19 1    
    38   18   67 1    
    39   18  143 1    
    40   19   20 am   BACKBONE|DICT|INTERRES
    41   19  144 1    
    42   20   21 2    
    43   20   22 1    
    44   22   23 1    
    45   22   24 1    
    46   22  145 1    
    47   23  146 1    
    48   23  147 1    
    49   23  148 1    
    50   24   25 am   BACKBONE|DICT|INTERRES
    51   24  149 1    
    52   25   26 2    
    53   25   27 1    
    54   27   28 1    
    55   27   29 1    
    56   27  150 1    
    57   28  151 1    
    58   28  152 1    
    59   28  153 1    
    60   29   30 am   BACKBONE|DICT|INTERRES
    61   29  154 1    
    62   30   31 2    
    63   30   32 1    
    64   32   33 1    
    65   32   34 1    
    66   32  155 1    
    67   33  156 1    
    68   33  157 1    
    69   33  158 1    
    70   34   35 am   BACKBONE|DICT|INTERRES
    71   34  159 1    
    72   35   36 2    
    73   35   37 1    
    74   37   38 1    
    75   37   39 1    
    76   37  160 1    
    77   38  161 1    
    78   38  162 1    
    79   38  163 1    
    80   39   40 am   BACKBONE|DICT|INTERRES
    81   39  164 1    
    82   40   41 2    
    83   40   42 1    
    84   42   43 1    
    85   42   44 1    
    86   42  165 1    
    87   43  166 1    
    88   43  167 1    
    89   43  168 1    
    90   44   45 am   BACKBONE|DICT|INTERRES
    91   44  169 1    
    92   45   46 2    
    93   45   47 1    
    94   47   48 1    
    95   47   49 1    
    96   47  170 1    
    97   48  171 1    
    98   48  172 1    
    99   48  173 1    
   100   49   50 am   BACKBONE|DICT|INTERRES
   101   49  174 1    
   102   50   51 2    
   103   50   52 1    
   104   52   53 1    
   105   52   54 1    
   106   52  175 1    
   107   53  176 1    
   108   53  177 1    
   109   53  178 1    
   110   54   55 am   BACKBONE|DICT|INTERRES
   111   54  179 1    
   112   55   56 2    
   113   55   57 1    
   114   57   58 1    
   115   57   59 1    
   116   57  180 1    
   117   58  181 1    
   118   58  182 1    
   119   58  183 1    
   120   59   60 am   BACKBONE|DICT|INTERRES
   121   59  184 1    
   122   60   61 2    
   123   60   62 1    
   124   62   63 1    
   125   62   64 1    
   126   62  185 1    
   127   63  186 1    
   128   63  187 1    
   129   63  188 1    
   130   64   65 am   BACKBONE|DICT|INTERRES
   131   64  189 1    
   132   65   66 2    
   133   67   68 2    
   134   67   69 am   BACKBONE|DICT|INTERRES
   135   69   70 1    
   136   69  190 1    
   137   70   71 1    
   138   70   72 1    
   139   70  191 1    
   140   71  192 1    
   141   71  193 1    
   142   71  194 1    
   143   72   73 2    
   144   72   74 am   BACKBONE|DICT|INTERRES
   145   74   75 1    
   146   74  195 1    
   147   75   76 1    
   148   75   77 1    
   149   75  196 1    
   150   76  197 1    
   151   76  198 1    
   152   76  199 1    
   153   77   78 2    
   154   77   79 am   BACKBONE|DICT|INTERRES
   155   79   80 1    
   156   79  200 1    
   157   80   81 1    
   158   80   82 1    
   159   80  201 1    
   160   81  202 1    
   161   81  203 1    
   162   81  204 1    
   163   82   83 2    
   164   82   84 am   BACKBONE|DICT|INTERRES
   165   84   85 1    
   166   84  205 1    
   167   85   86 1    
   168   85   87 1    
   169   85  206 1    
   170   86  207 1    
   171   86  208 1    
   172   86  209 1    
   173   87   88 2    
   174   87   89 am   BACKBONE|DICT|INTERRES
   175   89   90 1    
   176   89  210 1    
   177   90   91 1    
   178   90   92 1    
   179   90  211 1    
   180   91  212 1    
   181   91  213 1    
   182   91  214 1    
   183   92   93 2    
   184   92   94 am   BACKBONE|DICT|INTERRES
   185   94   95 1    
   186   94  215 1    
   187   95   96 1    
   188   95   97 1    
   189   95  216 1    
   190   96  217 1    
   191   96  218 1    
   192   96  219 1    
   193   97   98 2    
   194   97   99 am   BACKBONE|DICT|INTERRES
   195   99  100 1    
   196   99  220 1    
   197  100  101 1    
   198  100  102 1    
   199  100  221 1    
   200  101  222 1    
   201  101  223 1    
   202  101  224 1    
   203  102  103 2    
   204  102  104 am   BACKBONE|DICT|INTERRES
   205  104  105 1    
   206  104  225 1    
   207  105  106 1    
   208  105  107 1    
   209  105  226 1    
   210  106  227 1    
   211  106  228 1    
   212  106  229 1    
   213  107  108 2    
   214  107  109 am   BACKBONE|DICT|INTERRES
   215  109  110 1    
   216  109  230 1    
   217  110  111 1    
   218  110  112 1    
   219  110  231 1    
   220  111  232 1    
   221  111  233 1    
   222  111  234 1    
   223  112  113 2    
   224  112  114 am   BACKBONE|DICT|INTERRES
   225  114  115 1    
   226  114  235 1    
   227  115  116 1    
   228  115  117 1    
   229  115  236 1    
   230  116  237 1    
   231  116  238 1    
   232  116  239 1    
   233  117  118 2    
   234  117  119 am   BACKBONE|DICT|INTERRES
   235  119  120 1    
   236  119  240 1    
   237  120  121 1    
   238  120  124 1    
   239  120  241 1    
   240  121  122 am   BACKBONE|DICT|INTERRES
   241  121  123 2    
   242  122  242 1    
   243  122  243 1    
   244  124  125 1    
   245  124  244 1    
   246  124  245 1    
   247  125  126 1    
   248  126  246 1    
   249  126  247 1    
@<TRIPOS>SUBSTRUCTURE
     1 UNK         1 GROUP             0       ****    0 ROOT    
