@<TRIPOS>MOLECULE
3R540
247   249    1
SMALL
USER_CHARGES


@<TRIPOS>ATOM
      1 CA          0.2494  -18.3245  -45.1025 C.3       0 UNK        -0.1800 
      2 C           1.3765  -17.3118  -45.0220 C.2       0 UNK         0.5000 
      3 O           2.4497  -17.6537  -44.5251 O.2       0 UNK        -0.5000 
      4 N           1.1553  -16.0877  -45.5280 N.am      1 UNK        -0.5000 
      5 CA          2.1094  -14.9657  -45.4814 C.3       1 UNK         0.1400 
      6 C6          1.5812  -13.6358  -46.0939 C.3       23 UNK        -0.0398 
      7 S7         -0.1842  -13.2652  -45.8072 S.3       23 UNK        -0.2404 
      8 C8         -0.7718  -12.8386  -47.4820 C.3       23 UNK        -0.0205 
      9 C9         -1.2213  -14.0506  -48.2914 C.ar      23 UNK        -0.0193 
     10 C10        -2.5705  -14.2195  -48.6203 C.ar      23 UNK        -0.1150 
     11 C11        -2.9861  -15.3023  -49.4035 C.ar      23 UNK        -0.0193 
     12 C12        -2.0418  -16.2360  -49.8417 C.ar      23 UNK        -0.1150 
     13 C13        -0.6919  -16.0767  -49.5204 C.ar      23 UNK        -0.0193 
     14 C14        -0.2892  -14.9815  -48.7558 C.ar      23 UNK        -0.1150 
     15 C15         0.3479  -17.0722  -50.0005 C.3       23 UNK        -0.0205 
     16 S16         0.6308  -18.3709  -48.7598 S.3       23 UNK        -0.2404 
     17 C17        -0.6360  -19.6001  -49.2239 C.3       23 UNK        -0.0398 
     18 CA         -1.6409  -19.9259  -48.0905 C.3       11 UNK         0.1400 
     19 N          -2.4501  -18.7580  -47.7075 N.am      11 UNK        -0.5000 
     20 C          -3.1460  -18.6422  -46.5688 C.2       10 UNK         0.5000 
     21 O          -3.2023  -19.5255  -45.7106 O.2       10 UNK        -0.5000 
     22 CA         -3.9636  -17.3512  -46.3898 C.3       10 UNK         0.1400 
     23 CB         -5.4216  -17.5765  -46.8199 C.3       10 UNK        -0.1800 
     24 N          -3.9336  -16.8978  -45.0011 N.am      10 UNK        -0.5000 
     25 C          -2.8688  -16.3118  -44.4430 C.2       9 UNK         0.5000 
     26 O          -1.8529  -16.0160  -45.0737 O.2       9 UNK        -0.5000 
     27 CA         -2.9433  -16.0502  -42.9287 C.3       9 UNK         0.1400 
     28 CB         -2.7134  -17.3494  -42.1395 C.3       9 UNK        -0.1800 
     29 N          -1.9298  -15.0826  -42.5194 N.am      9 UNK        -0.5000 
     30 C          -2.0709  -13.7539  -42.5413 C.2       8 UNK         0.5000 
     31 O          -3.1299  -13.1889  -42.8226 O.2       8 UNK        -0.5000 
     32 CA         -0.8235  -12.9289  -42.1473 C.3       8 UNK         0.1400 
     33 CB         -1.1176  -11.4226  -42.0293 C.3       8 UNK        -0.1800 
     34 N          -0.2230  -13.3937  -40.8938 N.am      8 UNK        -0.5000 
     35 C           0.5904  -14.4488  -40.7736 C.2       7 UNK         0.5000 
     36 O           0.9365  -15.1577  -41.7242 O.2       7 UNK        -0.5000 
     37 CA          1.0557  -14.7949  -39.3536 C.3       7 UNK         0.1400 
     38 CB         -0.0689  -15.4833  -38.5579 C.3       7 UNK        -0.1800 
     39 N           2.2041  -15.6836  -39.4607 N.am      7 UNK        -0.5000 
     40 C           3.1342  -15.9003  -38.5257 C.2       6 UNK         0.5000 
     41 O           3.1186  -15.3790  -37.4099 O.2       6 UNK        -0.5000 
     42 CA          4.2779  -16.8623  -38.9004 C.3       6 UNK         0.1400 
     43 CB          3.9943  -18.2712  -38.3564 C.3       6 UNK        -0.1800 
     44 N           4.4938  -16.9526  -40.3459 N.am      6 UNK        -0.5000 
     45 C           5.1196  -16.0315  -41.0914 C.2       5 UNK         0.5000 
     46 O           5.5901  -14.9936  -40.6233 O.2       5 UNK        -0.5000 
     47 CA          5.2153  -16.2929  -42.6116 C.3       5 UNK         0.1400 
     48 CB          6.6066  -15.9438  -43.1792 C.3       5 UNK        -0.1800 
     49 N           4.7994  -17.6388  -43.0298 N.am      5 UNK        -0.5000 
     50 C           5.3877  -18.8108  -42.7448 C.2       4 UNK         0.5000 
     51 O           6.4099  -18.9249  -42.0687 O.2       4 UNK        -0.5000 
     52 CA          4.7056  -20.0712  -43.2937 C.3       4 UNK         0.1400 
     53 CB          3.4823  -20.4404  -42.4376 C.3       4 UNK        -0.1800 
     54 N           4.2853  -19.8824  -44.6820 N.am      4 UNK        -0.5000 
     55 C           4.6360  -20.6797  -45.6980 C.2       3 UNK         0.5000 
     56 O           5.3560  -21.6719  -45.5761 O.2       3 UNK        -0.5000 
     57 CA          4.0896  -20.3224  -47.0919 C.3       3 UNK         0.1400 
     58 CB          2.7444  -21.0223  -47.3409 C.3       3 UNK        -0.1800 
     59 N           3.9419  -18.8833  -47.3209 N.am      3 UNK        -0.5000 
     60 C           4.9701  -18.0460  -47.5271 C.2       2 UNK         0.5000 
     61 O           6.1513  -18.3871  -47.4592 O.2       2 UNK        -0.5000 
     62 CA          4.6305  -16.5929  -47.9004 C.3       2 UNK         0.1400 
     63 CB          4.3899  -16.4797  -49.4139 C.3       2 UNK        -0.1800 
     64 N           3.4452  -16.1115  -47.1928 N.am      2 UNK        -0.5000 
     65 C           3.4732  -15.3012  -46.1255 C.2       1 UNK         0.5000 
     66 O           4.5018  -14.8208  -45.6502 O.2       1 UNK        -0.5000 
     67 C          -2.4884  -21.1649  -48.4708 C.2       11 UNK         0.5000 
     68 O          -1.9139  -22.2109  -48.7660 O.2       11 UNK        -0.5000 
     69 N          -3.8248  -21.0531  -48.4504 N.am      12 UNK        -0.5000 
     70 CA         -4.7966  -22.0988  -48.7892 C.3       12 UNK         0.1400 
     71 CB         -6.2091  -21.5293  -48.5856 C.3       12 UNK        -0.1800 
     72 C          -4.6439  -23.4195  -48.0074 C.2       12 UNK         0.5000 
     73 O          -5.0357  -24.4719  -48.5105 O.2       12 UNK        -0.5000 
     74 N          -4.0669  -23.3469  -46.8017 N.am      13 UNK        -0.5000 
     75 CA         -3.7334  -24.5041  -45.9735 C.3       13 UNK         0.1400 
     76 CB         -3.4725  -24.0199  -44.5386 C.3       13 UNK        -0.1800 
     77 C          -2.5242  -25.3083  -46.4963 C.2       13 UNK         0.5000 
     78 O          -2.3875  -26.4777  -46.1341 O.2       13 UNK        -0.5000 
     79 N          -1.6572  -24.6806  -47.3050 N.am      14 UNK        -0.5000 
     80 CA         -0.4190  -25.2799  -47.8006 C.3       14 UNK         0.1400 
     81 CB          0.6103  -24.1739  -48.0853 C.3       14 UNK        -0.1800 
     82 C          -0.6344  -26.1500  -49.0498 C.2       14 UNK         0.5000 
     83 O           0.0483  -27.1660  -49.1904 O.2       14 UNK        -0.5000 
     84 N          -1.5594  -25.7528  -49.9344 N.am      15 UNK        -0.5000 
     85 CA         -1.8371  -26.4378  -51.1947 C.3       15 UNK         0.1400 
     86 CB         -0.7211  -26.1393  -52.2162 C.3       15 UNK        -0.1800 
     87 C          -3.1897  -25.9941  -51.7620 C.2       15 UNK         0.5000 
     88 O          -3.5982  -24.8489  -51.5586 O.2       15 UNK        -0.5000 
     89 N          -3.8203  -26.8841  -52.5397 N.am      16 UNK        -0.5000 
     90 CA         -5.0550  -26.6146  -53.2827 C.3       16 UNK         0.1400 
     91 CB         -5.6011  -27.9298  -53.8571 C.3       16 UNK        -0.1800 
     92 C          -4.8657  -25.5730  -54.4027 C.2       16 UNK         0.5000 
     93 O          -5.7886  -24.8109  -54.6872 O.2       16 UNK        -0.5000 
     94 N          -3.6596  -25.5222  -54.9867 N.am      17 UNK        -0.5000 
     95 CA         -3.2558  -24.5043  -55.9585 C.3       17 UNK         0.1400 
     96 CB         -1.8994  -24.8888  -56.5676 C.3       17 UNK        -0.1800 
     97 C          -3.1931  -23.0994  -55.3322 C.2       17 UNK         0.5000 
     98 O          -3.6326  -22.1329  -55.9537 O.2       17 UNK        -0.5000 
     99 N          -2.6982  -23.0204  -54.0891 N.am      18 UNK        -0.5000 
    100 CA        -2.6642  -21.7936  -53.2953 C.3       18 UNK         0.1400 
    101 CB        -1.7168  -21.9782  -52.1038 C.3       18 UNK        -0.1800 
    102 C         -4.0667  -21.3631  -52.8307 C.2       18 UNK         0.5000 
    103 O         -4.3400  -20.1639  -52.7654 O.2       18 UNK        -0.5000 
    104 N         -4.9437  -22.3399  -52.5556 N.am      19 UNK        -0.5000 
    105 CA        -6.3581  -22.1250  -52.2411 C.3       19 UNK         0.1400 
    106 CB        -6.9844  -23.4274  -51.7206 C.3       19 UNK        -0.1800 
    107 C         -7.1538  -21.5685  -53.4358 C.2       19 UNK         0.5000 
    108 O         -8.0269  -20.7235  -53.2412 O.2       19 UNK        -0.5000 
    109 N         -6.8218  -22.0290  -54.6489 N.am      20 UNK        -0.5000 
    110 CA        -7.3747  -21.5189  -55.9020 C.3       20 UNK         0.1400 
    111 CB        -7.0682  -22.5087  -57.0365 C.3       20 UNK        -0.1800 
    112 C         -6.8505  -20.1107  -56.2423 C.2       20 UNK         0.5000 
    113 O         -7.6284  -19.2678  -56.6910 O.2       20 UNK        -0.5000 
    114 N         -5.5472  -19.8816  -56.0260 N.am      21 UNK        -0.5000 
    115 CA        -4.8669  -18.6178  -56.3155 C.3       21 UNK         0.1400 
    116 CB        -3.3473  -18.8394  -56.2784 C.3       21 UNK        -0.1800 
    117 C         -5.2585  -17.4675  -55.3692 C.2       21 UNK         0.5000 
    118 O         -5.3320  -16.3213  -55.8146 O.2       21 UNK        -0.5000 
    119 N         -5.4865  -17.7807  -54.0896 N.am      22 UNK        -0.5000 
    120 CA        -5.8107  -16.8109  -53.0354 C.3       22 UNK         0.1400 
    121 C         -6.6289  -17.4662  -51.8925 C.2       22 UNK         0.5000 
    122 N         -6.2248  -18.6231  -51.3859 N.am      22 UNK        -0.7600 
    123 O         -7.6424  -16.9241  -51.4609 O.2       22 UNK        -0.5000 
    124 C124       -4.5331  -16.0968  -52.5154 C.3       23 UNK        -0.0398 
    125 S125       -4.8595  -14.7115  -51.3675 S.3       23 UNK        -0.2404 
    126 C126       -4.4574  -15.4642  -49.7572 C.3       23 UNK        -0.0205 
    127 H127       -0.4176  -18.0866  -45.9270 H         1 UNK         0.0600 
    128 H128       -0.3247  -18.3261  -44.1775 H         1 UNK         0.0600 
    129 H129        0.6421  -19.3274  -45.2625 H         1 UNK         0.0600 
    130 H130        0.2178  -15.8539  -45.8390 H         1 UNK         0.3000 
    131 H131        2.2937  -14.7843  -44.4202 H         1 UNK         0.0600 
    132 H132        2.1508  -12.8055  -45.6730 H         1 UNK         0.0800 
    133 H133        1.7810  -13.5848  -47.1634 H         1 UNK         0.0800 
    134 H134       -1.6004  -12.1372  -47.3746 H         1 UNK         0.0800 
    135 H135        0.0028  -12.2978  -48.0272 H         1 UNK         0.0800 
    136 H136       -3.2997  -13.4988  -48.2777 H         1 UNK         0.1150 
    137 H137       -2.3501  -17.0806  -50.4397 H         1 UNK         0.1150 
    138 H138        0.7581  -14.8622  -48.5331 H         1 UNK         0.1150 
    139 H139        0.0590  -17.5066  -50.9586 H         1 UNK         0.0800 
    140 H140        1.2884  -16.5523  -50.1858 H         1 UNK         0.0800 
    141 H141       -0.0896  -20.4964  -49.5243 H         1 UNK         0.0800 
    142 H142       -1.1723  -19.2651  -50.1118 H         1 UNK         0.0800 
    143 H143       -1.0598  -20.2250  -47.2156 H         1 UNK         0.0600 
    144 H144       -2.4205  -17.9743  -48.3439 H         1 UNK         0.3000 
    145 H145       -3.5337  -16.5694  -47.0168 H         1 UNK         0.0600 
    146 H146       -5.9996  -16.6550  -46.7476 H         1 UNK         0.0600 
    147 H147       -5.4802  -17.9141  -47.8553 H         1 UNK         0.0600 
    148 H148       -5.9124  -18.3301  -46.2026 H         1 UNK         0.0600 
    149 H149       -4.7178  -17.1594  -44.4220 H         1 UNK         0.3000 
    150 H150       -3.9370  -15.6653  -42.6903 H         1 UNK         0.0600 
    151 H151       -1.7209  -17.7621  -42.3218 H         1 UNK         0.0600 
    152 H152       -3.4421  -18.1136  -42.4128 H         1 UNK         0.0600 
    153 H153       -2.8100  -17.1786  -41.0671 H         1 UNK         0.0600 
    154 H154       -1.0008  -15.4469  -42.3422 H         1 UNK         0.3000 
    155 H155       -0.0902  -13.0559  -42.9446 H         1 UNK         0.0600 
    156 H156       -1.8541  -11.2152  -41.2521 H         1 UNK         0.0600 
    157 H157       -1.5065  -11.0260  -42.9681 H         1 UNK         0.0600 
    158 H158       -0.2129  -10.8617  -41.7940 H         1 UNK         0.0600 
    159 H159       -0.4942  -12.8907  -40.0611 H         1 UNK         0.3000 
    160 H160        1.3572  -13.8726  -38.8526 H         1 UNK         0.0600 
    161 H161       -0.3902  -16.4085  -39.0383 H         1 UNK         0.0600 
    162 H162       -0.9434  -14.8375  -38.4712 H         1 UNK         0.0600 
    163 H163        0.2524  -15.7270  -37.5452 H         1 UNK         0.0600 
    164 H164        2.3070  -16.1080  -40.3741 H         1 UNK         0.3000 
    165 H165        5.1920  -16.4916  -38.4319 H         1 UNK         0.0600 
    166 H166        3.8567  -18.2517  -37.2745 H         1 UNK         0.0600 
    167 H167        3.0915  -18.6985  -38.7948 H         1 UNK         0.0600 
    168 H168        4.8226  -18.9486  -38.5656 H         1 UNK         0.0600 
    169 H169        4.1428  -17.7771  -40.8088 H         1 UNK         0.3000 
    170 H170        4.4955  -15.6117  -43.0660 H         1 UNK         0.0600 
    171 H171        6.8378  -14.8893  -43.0255 H         1 UNK         0.0600 
    172 H172        7.3981  -16.5236  -42.7041 H         1 UNK         0.0600 
    173 H173        6.6507  -16.1293  -44.2526 H         1 UNK         0.0600 
    174 H174        3.9343  -17.6599  -43.5687 H         1 UNK         0.3000 
    175 H175        5.4299  -20.8846  -43.2158 H         1 UNK         0.0600 
    176 H176        3.0396  -21.3782  -42.7735 H         1 UNK         0.0600 
    177 H177        3.7602  -20.5688  -41.3906 H         1 UNK         0.0600 
    178 H178        2.7085  -19.6729  -42.4830 H         1 UNK         0.0600 
    179 H179        3.6908  -19.0805  -44.8676 H         1 UNK         0.3000 
    180 H180        4.8014  -20.7078  -47.8254 H         1 UNK         0.0600 
    181 H181        1.9648  -20.6520  -46.6760 H         1 UNK         0.0600 
    182 H182        2.8299  -22.0974  -47.1790 H         1 UNK         0.0600 
    183 H183        2.4086  -20.8783  -48.3677 H         1 UNK         0.0600 
    184 H184        2.9990  -18.5359  -47.4003 H         1 UNK         0.3000 
    185 H185        5.4962  -15.9747  -47.6531 H         1 UNK         0.0600 
    186 H186        4.1450  -15.4566  -49.6999 H         1 UNK         0.0600 
    187 H187        5.2818  -16.7685  -49.9714 H         1 UNK         0.0600 
    188 H188        3.5763  -17.1260  -49.7440 H         1 UNK         0.0600 
    189 H189        2.5489  -16.4542  -47.5056 H         1 UNK         0.3000 
    190 H190       -4.2099  -20.1637  -48.1737 H         1 UNK         0.3000 
    191 H191       -4.6556  -22.3370  -49.8430 H         1 UNK         0.0600 
    192 H192       -6.3628  -20.6237  -49.1707 H         1 UNK         0.0600 
    193 H193       -6.9705  -22.2485  -48.8903 H         1 UNK         0.0600 
    194 H194       -6.3929  -21.2825  -47.5391 H         1 UNK         0.0600 
    195 H195       -3.7836  -22.4408  -46.4571 H         1 UNK         0.3000 
    196 H196       -4.5933  -25.1770  -45.9552 H         1 UNK         0.0600 
    197 H197       -3.2467  -24.8577  -43.8775 H         1 UNK         0.0600 
    198 H198       -4.3451  -23.5108  -44.1289 H         1 UNK         0.0600 
    199 H199       -2.6290  -23.3297  -44.4942 H         1 UNK         0.0600 
    200 H200       -1.8550  -23.7360  -47.6217 H         1 UNK         0.3000 
    201 H201       -0.0031  -25.9187  -47.0182 H         1 UNK         0.0600 
    202 H202        1.5826  -24.6033  -48.3293 H         1 UNK         0.0600 
    203 H203        0.3139  -23.5474  -48.9269 H         1 UNK         0.0600 
    204 H204        0.7473  -23.5288  -47.2175 H         1 UNK         0.0600 
    205 H205       -2.1174  -24.9269  -49.7554 H         1 UNK         0.3000 
    206 H206       -1.8826  -27.5131  -51.0086 H         1 UNK         0.0600 
    207 H207        0.2428  -26.5191  -51.8780 H         1 UNK         0.0600 
    208 H208       -0.9276  -26.6095  -53.1783 H         1 UNK         0.0600 
    209 H209       -0.6131  -25.0677  -52.3890 H         1 UNK         0.0600 
    210 H210       -3.4160  -27.8016  -52.6624 H         1 UNK         0.3000 
    211 H211       -5.7903  -26.2178  -52.5802 H         1 UNK         0.0600 
    212 H212       -4.8982  -28.3895  -54.5530 H         1 UNK         0.0600 
    213 H213       -6.5346  -27.7619  -54.3961 H         1 UNK         0.0600 
    214 H214       -5.8101  -28.6494  -53.0652 H         1 UNK         0.0600 
    215 H215       -2.9616  -26.1967  -54.7120 H         1 UNK         0.3000 
    216 H216       -3.9985  -24.4811  -56.7589 H         1 UNK         0.0600 
    217 H217       -1.5809  -24.1515  -57.3057 H         1 UNK         0.0600 
    218 H218       -1.9545  -25.8520  -57.0751 H         1 UNK         0.0600 
    219 H219       -1.1182  -24.9529  -55.8090 H         1 UNK         0.0600 
    220 H220       -2.4011  -23.8667  -53.6281 H         1 UNK         0.3000 
    221 H221       -2.2623  -20.9940  -53.9203 H         1 UNK         0.0600 
    222 H222       -2.0583  -22.7597  -51.4260 H         1 UNK         0.0600 
    223 H223       -0.7101  -22.2358  -52.4327 H         1 UNK         0.0600 
    224 H224       -1.6443  -21.0568  -51.5294 H         1 UNK         0.0600 
    225 H225       -4.6143  -23.2982  -52.5585 H         1 UNK         0.3000 
    226 H226       -6.4098  -21.3877  -51.4411 H         1 UNK         0.0600 
    227 H227       -7.9804  -23.2409  -51.3179 H         1 UNK         0.0600 
    228 H228       -7.0905  -24.1709  -52.5091 H         1 UNK         0.0600 
    229 H229       -6.3874  -23.8691  -50.9228 H         1 UNK         0.0600 
    230 H230       -6.1529  -22.7882  -54.7155 H         1 UNK         0.3000 
    231 H231       -8.4598  -21.4551  -55.7963 H         1 UNK         0.0600 
    232 H232       -5.9959  -22.6290  -57.1913 H         1 UNK         0.0600 
    233 H233       -7.4998  -22.1682  -57.9784 H         1 UNK         0.0600 
    234 H234       -7.4860  -23.4929  -56.8232 H         1 UNK         0.0600 
    235 H235       -4.9607  -20.6535  -55.7258 H         1 UNK         0.3000 
    236 H236       -5.1374  -18.3162  -57.3296 H         1 UNK         0.0600 
    237 H237       -3.0405  -19.5972  -56.9995 H         1 UNK         0.0600 
    238 H238       -2.8118  -17.9216  -56.5246 H         1 UNK         0.0600 
    239 H239       -3.0135  -19.1593  -55.2913 H         1 UNK         0.0600 
    240 H240       -5.3935  -18.7456  -53.7930 H         1 UNK         0.3000 
    241 H241       -6.4612  -16.0513  -53.4743 H         1 UNK         0.0600 
    242 H242       -5.4219  -19.1176  -51.7667 H         1 UNK         0.3800 
    243 H243       -6.7805  -19.0405  -50.6594 H         1 UNK         0.3800 
    244 H244       -3.9791  -15.6799  -53.3571 H         1 UNK         0.0800 
    245 H245       -3.8622  -16.8219  -52.0572 H         1 UNK         0.0800 
    246 H246       -4.7340  -16.5189  -49.7552 H         1 UNK         0.0800 
    247 H247       -5.0747  -14.9929  -48.9909 H         1 UNK         0.0800 
@<TRIPOS>BOND
     1    1    2 1    
     2    1  127 1    
     3    1  128 1    
     4    1  129 1    
     5    2    3 2    
     6    2    4 am   BACKBONE|DICT|INTERRES
     7    4    5 1    
     8    4  130 1    
     9    5    6 1    
    10    5   65 1    
    11    5  131 1    
    12    6    7 1    
    13    6  132 1    
    14    6  133 1    
    15    7    8 1    
    16    8    9 1    
    17    8  134 1    
    18    8  135 1    
    19    9   10 ar   
    20    9   14 ar   
    21   10   11 ar   
    22   10  136 1    
    23   11   12 ar   
    24   11  126 1    
    25   12   13 ar   
    26   12  137 1    
    27   13   14 ar   
    28   13   15 1    
    29   14  138 1    
    30   15   16 1    
    31   15  139 1    
    32   15  140 1    
    33   16   17 1    
    34   17   18 1    
    35   17  141 1    
    36   17  142 1    
    37   18   19 1    
    38   18   67 1    
    39   18  143 1    
    40   19   20 am   BACKBONE|DICT|INTERRES
    41   19  144 1    
    42   20   21 2    
    43   20   22 1    
    44   22   23 1    
    45   22   24 1    
    46   22  145 1    
    47   23  146 1    
    48   23  147 1    
    49   23  148 1    
    50   24   25 am   BACKBONE|DICT|INTERRES
    51   24  149 1    
    52   25   26 2    
    53   25   27 1    
    54   27   28 1    
    55   27   29 1    
    56   27  150 1    
    57   28  151 1    
    58   28  152 1    
    59   28  153 1    
    60   29   30 am   BACKBONE|DICT|INTERRES
    61   29  154 1    
    62   30   31 2    
    63   30   32 1    
    64   32   33 1    
    65   32   34 1    
    66   32  155 1    
    67   33  156 1    
    68   33  157 1    
    69   33  158 1    
    70   34   35 am   BACKBONE|DICT|INTERRES
    71   34  159 1    
    72   35   36 2    
    73   35   37 1    
    74   37   38 1    
    75   37   39 1    
    76   37  160 1    
    77   38  161 1    
    78   38  162 1    
    79   38  163 1    
    80   39   40 am   BACKBONE|DICT|INTERRES
    81   39  164 1    
    82   40   41 2    
    83   40   42 1    
    84   42   43 1    
    85   42   44 1    
    86   42  165 1    
    87   43  166 1    
    88   43  167 1    
    89   43  168 1    
    90   44   45 am   BACKBONE|DICT|INTERRES
    91   44  169 1    
    92   45   46 2    
    93   45   47 1    
    94   47   48 1    
    95   47   49 1    
    96   47  170 1    
    97   48  171 1    
    98   48  172 1    
    99   48  173 1    
   100   49   50 am   BACKBONE|DICT|INTERRES
   101   49  174 1    
   102   50   51 2    
   103   50   52 1    
   104   52   53 1    
   105   52   54 1    
   106   52  175 1    
   107   53  176 1    
   108   53  177 1    
   109   53  178 1    
   110   54   55 am   BACKBONE|DICT|INTERRES
   111   54  179 1    
   112   55   56 2    
   113   55   57 1    
   114   57   58 1    
   115   57   59 1    
   116   57  180 1    
   117   58  181 1    
   118   58  182 1    
   119   58  183 1    
   120   59   60 am   BACKBONE|DICT|INTERRES
   121   59  184 1    
   122   60   61 2    
   123   60   62 1    
   124   62   63 1    
   125   62   64 1    
   126   62  185 1    
   127   63  186 1    
   128   63  187 1    
   129   63  188 1    
   130   64   65 am   BACKBONE|DICT|INTERRES
   131   64  189 1    
   132   65   66 2    
   133   67   68 2    
   134   67   69 am   BACKBONE|DICT|INTERRES
   135   69   70 1    
   136   69  190 1    
   137   70   71 1    
   138   70   72 1    
   139   70  191 1    
   140   71  192 1    
   141   71  193 1    
   142   71  194 1    
   143   72   73 2    
   144   72   74 am   BACKBONE|DICT|INTERRES
   145   74   75 1    
   146   74  195 1    
   147   75   76 1    
   148   75   77 1    
   149   75  196 1    
   150   76  197 1    
   151   76  198 1    
   152   76  199 1    
   153   77   78 2    
   154   77   79 am   BACKBONE|DICT|INTERRES
   155   79   80 1    
   156   79  200 1    
   157   80   81 1    
   158   80   82 1    
   159   80  201 1    
   160   81  202 1    
   161   81  203 1    
   162   81  204 1    
   163   82   83 2    
   164   82   84 am   BACKBONE|DICT|INTERRES
   165   84   85 1    
   166   84  205 1    
   167   85   86 1    
   168   85   87 1    
   169   85  206 1    
   170   86  207 1    
   171   86  208 1    
   172   86  209 1    
   173   87   88 2    
   174   87   89 am   BACKBONE|DICT|INTERRES
   175   89   90 1    
   176   89  210 1    
   177   90   91 1    
   178   90   92 1    
   179   90  211 1    
   180   91  212 1    
   181   91  213 1    
   182   91  214 1    
   183   92   93 2    
   184   92   94 am   BACKBONE|DICT|INTERRES
   185   94   95 1    
   186   94  215 1    
   187   95   96 1    
   188   95   97 1    
   189   95  216 1    
   190   96  217 1    
   191   96  218 1    
   192   96  219 1    
   193   97   98 2    
   194   97   99 am   BACKBONE|DICT|INTERRES
   195   99  100 1    
   196   99  220 1    
   197  100  101 1    
   198  100  102 1    
   199  100  221 1    
   200  101  222 1    
   201  101  223 1    
   202  101  224 1    
   203  102  103 2    
   204  102  104 am   BACKBONE|DICT|INTERRES
   205  104  105 1    
   206  104  225 1    
   207  105  106 1    
   208  105  107 1    
   209  105  226 1    
   210  106  227 1    
   211  106  228 1    
   212  106  229 1    
   213  107  108 2    
   214  107  109 am   BACKBONE|DICT|INTERRES
   215  109  110 1    
   216  109  230 1    
   217  110  111 1    
   218  110  112 1    
   219  110  231 1    
   220  111  232 1    
   221  111  233 1    
   222  111  234 1    
   223  112  113 2    
   224  112  114 am   BACKBONE|DICT|INTERRES
   225  114  115 1    
   226  114  235 1    
   227  115  116 1    
   228  115  117 1    
   229  115  236 1    
   230  116  237 1    
   231  116  238 1    
   232  116  239 1    
   233  117  118 2    
   234  117  119 am   BACKBONE|DICT|INTERRES
   235  119  120 1    
   236  119  240 1    
   237  120  121 1    
   238  120  124 1    
   239  120  241 1    
   240  121  122 am   BACKBONE|DICT|INTERRES
   241  121  123 2    
   242  122  242 1    
   243  122  243 1    
   244  124  125 1    
   245  124  244 1    
   246  124  245 1    
   247  125  126 1    
   248  126  246 1    
   249  126  247 1    
@<TRIPOS>SUBSTRUCTURE
     1 UNK         1 GROUP             0       ****    0 ROOT    
