@<TRIPOS>MOLECULE
3R540
247   249    1
SMALL
USER_CHARGES


@<TRIPOS>ATOM
      1 CA         -2.4181  -15.3124  -52.7101 C.3       0 UNK        -0.1800 
      2 C          -1.6173  -14.7073  -51.5673 C.2       0 UNK         0.5000 
      3 O          -1.1298  -13.5825  -51.6881 O.2       0 UNK        -0.5000 
      4 N          -1.4750  -15.4501  -50.4629 N.am      1 UNK        -0.5000 
      5 CA         -0.7695  -15.0176  -49.2492 C.3       1 UNK         0.1400 
      6 C6         -0.6029  -16.1563  -48.2086 C.3       23 UNK        -0.0398 
      7 S7          0.0485  -17.7170  -48.8677 S.3       23 UNK        -0.2404 
      8 C8          1.7963  -17.3326  -49.1868 C.3       23 UNK        -0.0205 
      9 C9          2.4167  -18.4962  -49.9388 C.ar      23 UNK        -0.0193 
     10 C10         2.3044  -18.5688  -51.3300 C.ar      23 UNK        -0.1150 
     11 C11         2.7318  -19.7086  -52.0157 C.ar      23 UNK        -0.0193 
     12 C12         3.2790  -20.7758  -51.2975 C.ar      23 UNK        -0.1150 
     13 C13         3.4133  -20.7095  -49.9071 C.ar      23 UNK        -0.0193 
     14 C14         3.0129  -19.5473  -49.2382 C.ar      23 UNK        -0.1150 
     15 C15         3.9568  -21.9183  -49.1467 C.3       23 UNK        -0.0205 
     16 S16         3.0359  -22.3422  -47.6229 S.3       23 UNK        -0.2404 
     17 C17         1.2964  -22.0877  -48.1118 C.3       23 UNK        -0.0398 
     18 CA          0.2799  -22.8292  -47.2157 C.3       11 UNK         0.1400 
     19 N           0.4817  -22.5541  -45.7859 N.am      11 UNK        -0.5000 
     20 C          -0.2094  -23.0793  -44.7628 C.2       10 UNK         0.5000 
     21 O          -1.1678  -23.8397  -44.9209 O.2       10 UNK        -0.5000 
     22 CA          0.1840  -22.6489  -43.3324 C.3       10 UNK         0.1400 
     23 CB          0.4237  -23.8657  -42.4167 C.3       10 UNK        -0.1800 
     24 N           1.2970  -21.6878  -43.2625 N.am      10 UNK        -0.5000 
     25 C           2.5930  -21.8989  -43.5439 C.2       9 UNK         0.5000 
     26 O           3.0514  -22.9857  -43.8939 O.2       9 UNK        -0.5000 
     27 CA          3.5376  -20.6876  -43.4543 C.3       9 UNK         0.1400 
     28 CB          3.7469  -20.0613  -44.8418 C.3       9 UNK        -0.1800 
     29 N           3.0616  -19.6545  -42.5342 N.am      9 UNK        -0.5000 
     30 C           3.2938  -19.6732  -41.2153 C.2       8 UNK         0.5000 
     31 O           3.8510  -20.6041  -40.6317 O.2       8 UNK        -0.5000 
     32 CA          2.8592  -18.4336  -40.4154 C.3       8 UNK         0.1400 
     33 CB          3.8183  -17.2612  -40.6749 C.3       8 UNK        -0.1800 
     34 N           1.4866  -18.0157  -40.6954 N.am      8 UNK        -0.5000 
     35 C           0.3982  -18.6929  -40.3049 C.2       7 UNK         0.5000 
     36 O           0.4379  -19.7638  -39.6982 O.2       7 UNK        -0.5000 
     37 CA         -0.9676  -18.0667  -40.6394 C.3       7 UNK         0.1400 
     38 CB         -1.3200  -16.9603  -39.6333 C.3       7 UNK        -0.1800 
     39 N          -1.0280  -17.5227  -41.9935 N.am      7 UNK        -0.5000 
     40 C          -0.9918  -18.2621  -43.1105 C.2       6 UNK         0.5000 
     41 O          -0.9153  -19.4907  -43.1281 O.2       6 UNK        -0.5000 
     42 CA         -1.0105  -17.4851  -44.4360 C.3       6 UNK         0.1400 
     43 CB         -2.4172  -16.9217  -44.6987 C.3       6 UNK        -0.1800 
     44 N          -0.0408  -16.3914  -44.4564 N.am      6 UNK        -0.5000 
     45 C           1.2786  -16.5052  -44.2505 C.2       5 UNK         0.5000 
     46 O           1.8593  -17.5728  -44.0616 O.2       5 UNK        -0.5000 
     47 CA          2.0755  -15.1924  -44.1868 C.3       5 UNK         0.1400 
     48 CB          2.4019  -14.6751  -45.5963 C.3       5 UNK        -0.1800 
     49 N           1.3732  -14.1550  -43.4301 N.am      5 UNK        -0.5000 
     50 C           1.1299  -14.2061  -42.1127 C.2       4 UNK         0.5000 
     51 O           1.4786  -15.1362  -41.3863 O.2       4 UNK        -0.5000 
     52 CA          0.3287  -13.0351  -41.5169 C.3       4 UNK         0.1400 
     53 CB          1.2293  -11.8086  -41.3061 C.3       4 UNK        -0.1800 
     54 N          -0.8140  -12.6643  -42.3521 N.am      4 UNK        -0.5000 
     55 C          -1.8957  -13.4355  -42.5277 C.2       3 UNK         0.5000 
     56 O          -2.0577  -14.5228  -41.9717 O.2       3 UNK        -0.5000 
     57 CA         -2.9544  -12.9233  -43.5256 C.3       3 UNK         0.1400 
     58 CB         -3.9253  -11.9565  -42.8312 C.3       3 UNK        -0.1800 
     59 N          -2.4004  -12.2788  -44.7246 N.am      3 UNK        -0.5000 
     60 C          -1.5533  -12.8658  -45.5800 C.2       2 UNK         0.5000 
     61 O          -1.0654  -13.9814  -45.3907 O.2       2 UNK        -0.5000 
     62 CA         -1.1511  -12.0739  -46.8398 C.3       2 UNK         0.1400 
     63 CB         -0.0263  -11.0816  -46.5069 C.3       2 UNK        -0.1800 
     64 N          -0.6774  -12.9893  -47.8808 N.am      2 UNK        -0.5000 
     65 C          -1.4725  -13.8300  -48.5560 C.2       1 UNK         0.5000 
     66 O          -2.7038  -13.7455  -48.5690 O.2       1 UNK        -0.5000 
     67 C          -1.1427  -22.4847  -47.6934 C.2       11 UNK         0.5000 
     68 O          -1.6364  -23.1081  -48.6319 O.2       11 UNK        -0.5000 
     69 N          -1.7848  -21.5148  -47.0287 N.am      12 UNK        -0.5000 
     70 CA         -3.1694  -21.1049  -47.2518 C.3       12 UNK         0.1400 
     71 CB         -3.4945  -19.9450  -46.3035 C.3       12 UNK        -0.1800 
     72 C          -4.1854  -22.2519  -47.0963 C.2       12 UNK         0.5000 
     73 O          -5.1817  -22.2728  -47.8185 O.2       12 UNK        -0.5000 
     74 N          -3.8869  -23.1962  -46.1946 N.am      13 UNK        -0.5000 
     75 CA         -4.6406  -24.4308  -46.0063 C.3       13 UNK         0.1400 
     76 CB         -4.7777  -24.7119  -44.5014 C.3       13 UNK        -0.1800 
     77 C          -3.9507  -25.6079  -46.7150 C.2       13 UNK         0.5000 
     78 O          -4.6215  -26.3715  -47.4093 O.2       13 UNK        -0.5000 
     79 N          -2.6302  -25.7435  -46.5220 N.am      14 UNK        -0.5000 
     80 CA         -1.8508  -26.9112  -46.9415 C.3       14 UNK         0.1400 
     81 CB         -0.4985  -26.9003  -46.2120 C.3       14 UNK        -0.1800 
     82 C          -1.6430  -27.0370  -48.4628 C.2       14 UNK         0.5000 
     83 O          -1.5539  -28.1596  -48.9617 O.2       14 UNK        -0.5000 
     84 N          -1.5595  -25.9020  -49.1667 N.am      15 UNK        -0.5000 
     85 CA         -1.3150  -25.8196  -50.6099 C.3       15 UNK         0.1400 
     86 CB          0.0616  -25.1680  -50.8354 C.3       15 UNK        -0.1800 
     87 C          -2.4204  -25.0350  -51.3428 C.2       15 UNK         0.5000 
     88 O          -2.3026  -24.8235  -52.5498 O.2       15 UNK        -0.5000 
     89 N          -3.4588  -24.6059  -50.6074 N.am      16 UNK        -0.5000 
     90 CA         -4.5691  -23.7517  -51.0447 C.3       16 UNK         0.1400 
     91 CB         -5.4389  -24.4687  -52.0984 C.3       16 UNK        -0.1800 
     92 C          -4.1145  -22.3487  -51.5046 C.2       16 UNK         0.5000 
     93 O          -4.7661  -21.7365  -52.3514 O.2       16 UNK        -0.5000 
     94 N          -3.0178  -21.8385  -50.9253 N.am      17 UNK        -0.5000 
     95 CA         -2.3736  -20.5715  -51.2950 C.3       17 UNK         0.1400 
     96 CB         -0.9490  -20.5487  -50.7263 C.3       17 UNK        -0.1800 
     97 C          -3.1615  -19.2958  -50.9104 C.2       17 UNK         0.5000 
     98 O          -2.6533  -18.1868  -51.0776 O.2       17 UNK        -0.5000 
     99 N          -4.3983  -19.4522  -50.4216 N.am      18 UNK        -0.5000 
    100 CA        -5.3546  -18.3895  -50.1140 C.3       18 UNK         0.1400 
    101 CB        -6.3451  -18.9178  -49.0613 C.3       18 UNK        -0.1800 
    102 C         -6.0679  -17.8795  -51.3865 C.2       18 UNK         0.5000 
    103 O         -7.2975  -17.8270  -51.4285 O.2       18 UNK        -0.5000 
    104 N         -5.2774  -17.5453  -52.4141 N.am      19 UNK        -0.5000 
    105 CA        -5.6508  -17.0151  -53.7314 C.3       19 UNK         0.1400 
    106 CB        -6.4416  -15.6970  -53.6024 C.3       19 UNK        -0.1800 
    107 C         -6.3512  -18.0123  -54.6794 C.2       19 UNK         0.5000 
    108 O         -6.5536  -17.6689  -55.8455 O.2       19 UNK        -0.5000 
    109 N         -6.6764  -19.2273  -54.2123 N.am      20 UNK        -0.5000 
    110 CA        -7.1157  -20.3377  -55.0632 C.3       20 UNK         0.1400 
    111 CB        -7.7782  -21.4292  -54.2086 C.3       20 UNK        -0.1800 
    112 C         -5.9280  -20.8845  -55.8766 C.2       20 UNK         0.5000 
    113 O         -6.0269  -21.0255  -57.0963 O.2       20 UNK        -0.5000 
    114 N         -4.8049  -21.0922  -55.1834 N.am      21 UNK        -0.5000 
    115 CA        -3.4600  -21.1577  -55.7394 C.3       21 UNK         0.1400 
    116 CB        -2.7675  -22.4261  -55.2150 C.3       21 UNK        -0.1800 
    117 C         -2.6969  -19.8986  -55.2888 C.2       21 UNK         0.5000 
    118 O         -3.1426  -19.1987  -54.3752 O.2       21 UNK        -0.5000 
    119 N         -1.5500  -19.6390  -55.9264 N.am      22 UNK        -0.5000 
    120 CA        -0.5960  -18.5647  -55.5800 C.3       22 UNK         0.1400 
    121 C         -1.1004  -17.1090  -55.8304 C.2       22 UNK         0.5000 
    122 N         -2.2344  -16.8973  -56.4868 N.am      22 UNK        -0.7600 
    123 O         -0.4286  -16.1490  -55.4642 O.2       22 UNK        -0.5000 
    124 C124        0.0185  -18.7404  -54.1597 C.3       23 UNK        -0.0398 
    125 S125        0.8944  -20.3370  -53.9879 S.3       23 UNK        -0.2404 
    126 C126        2.5754  -19.8083  -53.5258 C.3       23 UNK        -0.0205 
    127 H127       -2.2523  -14.7592  -53.6347 H         1 UNK         0.0600 
    128 H128       -2.1303  -16.3488  -52.8863 H         1 UNK         0.0600 
    129 H129       -3.4813  -15.2774  -52.4773 H         1 UNK         0.0600 
    130 H130       -1.8708  -16.3852  -50.4416 H         1 UNK         0.3000 
    131 H131        0.2238  -14.6871  -49.5583 H         1 UNK         0.0600 
    132 H132        0.0352  -15.8408  -47.3823 H         1 UNK         0.0800 
    133 H133       -1.5707  -16.3981  -47.7681 H         1 UNK         0.0800 
    134 H134        1.8813  -16.4196  -49.7769 H         1 UNK         0.0800 
    135 H135        2.3162  -17.1561  -48.2439 H         1 UNK         0.0800 
    136 H136        1.8392  -17.7573  -51.8706 H         1 UNK         0.1150 
    137 H137        3.5848  -21.6691  -51.8240 H         1 UNK         0.1150 
    138 H138        3.0952  -19.4912  -48.1619 H         1 UNK         0.1150 
    139 H139        3.9559  -22.7990  -49.7908 H         1 UNK         0.0800 
    140 H140        4.9988  -21.7298  -48.8861 H         1 UNK         0.0800 
    141 H141        1.1838  -22.4011  -49.1512 H         1 UNK         0.0800 
    142 H142        1.0934  -21.0159  -48.0889 H         1 UNK         0.0800 
    143 H143        0.4197  -23.9008  -47.3626 H         1 UNK         0.0600 
    144 H144        1.2714  -21.9673  -45.5619 H         1 UNK         0.3000 
    145 H145       -0.6845  -22.1214  -42.9372 H         1 UNK         0.0600 
    146 H146        0.6850  -23.5529  -41.4057 H         1 UNK         0.0600 
    147 H147       -0.4747  -24.4798  -42.3436 H         1 UNK         0.0600 
    148 H148        1.2222  -24.5077  -42.7888 H         1 UNK         0.0600 
    149 H149        1.0201  -20.7471  -43.0087 H         1 UNK         0.3000 
    150 H150        4.5080  -21.0494  -43.1073 H         1 UNK         0.0600 
    151 H151        4.2681  -20.7541  -45.5020 H         1 UNK         0.0600 
    152 H152        4.3546  -19.1582  -44.7822 H         1 UNK         0.0600 
    153 H153        2.8012  -19.7974  -45.3170 H         1 UNK         0.0600 
    154 H154        2.5949  -18.8526  -42.9546 H         1 UNK         0.3000 
    155 H155        2.9239  -18.6861  -39.3549 H         1 UNK         0.0600 
    156 H156        3.7657  -16.9188  -41.7090 H         1 UNK         0.0600 
    157 H157        4.8514  -17.5475  -40.4744 H         1 UNK         0.0600 
    158 H158        3.5858  -16.4133  -40.0304 H         1 UNK         0.0600 
    159 H159        1.3707  -17.1156  -41.1510 H         1 UNK         0.3000 
    160 H160       -1.7223  -18.8519  -40.5582 H         1 UNK         0.0600 
    161 H161       -2.3219  -16.5699  -39.8131 H         1 UNK         0.0600 
    162 H162       -0.6218  -16.1243  -39.6929 H         1 UNK         0.0600 
    163 H163       -1.2959  -17.3384  -38.6106 H         1 UNK         0.0600 
    164 H164       -1.1088  -16.5159  -42.0761 H         1 UNK         0.3000 
    165 H165       -0.7536  -18.1781  -45.2396 H         1 UNK         0.0600 
    166 H166       -2.4967  -16.4867  -45.6932 H         1 UNK         0.0600 
    167 H167       -3.1783  -17.6972  -44.6171 H         1 UNK         0.0600 
    168 H168       -2.6793  -16.1456  -43.9814 H         1 UNK         0.0600 
    169 H169       -0.4176  -15.4633  -44.6428 H         1 UNK         0.3000 
    170 H170        3.0180  -15.4029  -43.6771 H         1 UNK         0.0600 
    171 H171        2.9106  -15.4396  -46.1851 H         1 UNK         0.0600 
    172 H172        1.5038  -14.3844  -46.1400 H         1 UNK         0.0600 
    173 H173        3.0602  -13.8074  -45.5528 H         1 UNK         0.0600 
    174 H174        0.9918  -13.3870  -43.9609 H         1 UNK         0.3000 
    175 H175       -0.0480  -13.3517  -40.5417 H         1 UNK         0.0600 
    176 H176        0.6869  -11.0025  -40.8117 H         1 UNK         0.0600 
    177 H177        2.0847  -12.0572  -40.6764 H         1 UNK         0.0600 
    178 H178        1.6171  -11.4230  -42.2497 H         1 UNK         0.0600 
    179 H179       -0.7592  -11.7876  -42.8489 H         1 UNK         0.3000 
    180 H180       -3.5264  -13.7907  -43.8610 H         1 UNK         0.0600 
    181 H181       -3.4238  -11.0423  -42.5113 H         1 UNK         0.0600 
    182 H182       -4.3676  -12.4156  -41.9460 H         1 UNK         0.0600 
    183 H183       -4.7449  -11.6766  -43.4933 H         1 UNK         0.0600 
    184 H184       -2.7447  -11.3530  -44.9348 H         1 UNK         0.3000 
    185 H185       -2.0196  -11.5252  -47.2100 H         1 UNK         0.0600 
    186 H186        0.8589  -11.5884  -46.1198 H         1 UNK         0.0600 
    187 H187        0.2717  -10.5145  -47.3890 H         1 UNK         0.0600 
    188 H188       -0.3477  -10.3611  -45.7538 H         1 UNK         0.0600 
    189 H189        0.3204  -13.1345  -47.9122 H         1 UNK         0.3000 
    190 H190       -1.2977  -21.0594  -46.2713 H         1 UNK         0.3000 
    191 H191       -3.2468  -20.7406  -48.2751 H         1 UNK         0.0600 
    192 H192       -3.2555  -20.1915  -45.2681 H         1 UNK         0.0600 
    193 H193       -4.5508  -19.6801  -46.3365 H         1 UNK         0.0600 
    194 H194       -2.9276  -19.0572  -46.5828 H         1 UNK         0.0600 
    195 H195       -3.0208  -23.1159  -45.6758 H         1 UNK         0.3000 
    196 H196       -5.6460  -24.3303  -46.4210 H         1 UNK         0.0600 
    197 H197       -5.3290  -25.6364  -44.3251 H         1 UNK         0.0600 
    198 H198       -5.3203  -23.9097  -44.0012 H         1 UNK         0.0600 
    199 H199       -3.8058  -24.8101  -44.0156 H         1 UNK         0.0600 
    200 H200       -2.1467  -25.0735  -45.9295 H         1 UNK         0.3000 
    201 H201       -2.3931  -27.8022  -46.6177 H         1 UNK         0.0600 
    202 H202       -0.6338  -26.8920  -45.1302 H         1 UNK         0.0600 
    203 H203        0.0989  -26.0295  -46.4792 H         1 UNK         0.0600 
    204 H204        0.0865  -27.7871  -46.4591 H         1 UNK         0.0600 
    205 H205       -1.6430  -25.0092  -48.6904 H         1 UNK         0.3000 
    206 H206       -1.2976  -26.8161  -51.0551 H         1 UNK         0.0600 
    207 H207        0.8476  -25.7125  -50.3121 H         1 UNK         0.0600 
    208 H208        0.3233  -25.1592  -51.8941 H         1 UNK         0.0600 
    209 H209        0.0792  -24.1353  -50.4872 H         1 UNK         0.0600 
    210 H210       -3.4562  -24.8465  -49.6270 H         1 UNK         0.3000 
    211 H211       -5.1919  -23.5936  -50.1640 H         1 UNK         0.0600 
    212 H212       -4.9206  -24.5690  -53.0526 H         1 UNK         0.0600 
    213 H213       -6.3594  -23.9153  -52.2860 H         1 UNK         0.0600 
    214 H214       -5.7245  -25.4657  -51.7633 H         1 UNK         0.0600 
    215 H215       -2.5470  -22.3912  -50.2152 H         1 UNK         0.3000 
    216 H216       -2.2800  -20.5677  -52.3802 H         1 UNK         0.0600 
    217 H217       -0.3845  -19.7092  -51.1313 H         1 UNK         0.0600 
    218 H218       -0.3996  -21.4551  -50.9806 H         1 UNK         0.0600 
    219 H219       -0.9526  -20.4397  -49.6438 H         1 UNK         0.0600 
    220 H220       -4.7591  -20.3941  -50.3838 H         1 UNK         0.3000 
    221 H221       -4.8184  -17.5435  -49.6789 H         1 UNK         0.0600 
    222 H222       -6.9286  -19.7568  -49.4427 H         1 UNK         0.0600 
    223 H223       -5.8271  -19.2558  -48.1665 H         1 UNK         0.0600 
    224 H224       -7.0451  -18.1398  -48.7543 H         1 UNK         0.0600 
    225 H225       -4.2813  -17.6896  -52.2836 H         1 UNK         0.3000 
    226 H226       -4.7034  -16.7762  -54.2171 H         1 UNK         0.0600 
    227 H227       -5.9253  -14.9851  -52.9587 H         1 UNK         0.0600 
    228 H228       -6.5655  -15.2208  -54.5756 H         1 UNK         0.0600 
    229 H229       -7.4390  -15.8587  -53.1934 H         1 UNK         0.0600 
    230 H230       -6.4793  -19.4365  -53.2448 H         1 UNK         0.3000 
    231 H231       -7.8634  -19.9652  -55.7668 H         1 UNK         0.0600 
    232 H232       -8.6554  -21.0422  -53.6900 H         1 UNK         0.0600 
    233 H233       -7.0989  -21.8305  -53.4583 H         1 UNK         0.0600 
    234 H234       -8.1083  -22.2623  -54.8302 H         1 UNK         0.0600 
    235 H235       -4.8316  -20.9671  -54.1755 H         1 UNK         0.3000 
    236 H236       -3.4885  -21.1829  -56.8305 H         1 UNK         0.0600 
    237 H237       -1.7773  -22.5449  -55.6559 H         1 UNK         0.0600 
    238 H238       -2.6394  -22.3997  -54.1326 H         1 UNK         0.0600 
    239 H239       -3.3420  -23.3198  -55.4589 H         1 UNK         0.0600 
    240 H240       -1.2574  -20.2516  -56.6740 H         1 UNK         0.3000 
    241 H241        0.2221  -18.6784  -56.2920 H         1 UNK         0.0600 
    242 H242       -2.5357  -15.9524  -56.6629 H         1 UNK         0.3800 
    243 H243       -2.7948  -17.6718  -56.8023 H         1 UNK         0.3800 
    244 H244       -0.7517  -18.6754  -53.3904 H         1 UNK         0.0800 
    245 H245        0.7147  -17.9295  -53.9456 H         1 UNK         0.0800 
    246 H246        2.8273  -18.8586  -53.9995 H         1 UNK         0.0800 
    247 H247        3.2854  -20.5353  -53.9228 H         1 UNK         0.0800 
@<TRIPOS>BOND
     1    1    2 1    
     2    1  127 1    
     3    1  128 1    
     4    1  129 1    
     5    2    3 2    
     6    2    4 am   BACKBONE|DICT|INTERRES
     7    4    5 1    
     8    4  130 1    
     9    5    6 1    
    10    5   65 1    
    11    5  131 1    
    12    6    7 1    
    13    6  132 1    
    14    6  133 1    
    15    7    8 1    
    16    8    9 1    
    17    8  134 1    
    18    8  135 1    
    19    9   10 ar   
    20    9   14 ar   
    21   10   11 ar   
    22   10  136 1    
    23   11   12 ar   
    24   11  126 1    
    25   12   13 ar   
    26   12  137 1    
    27   13   14 ar   
    28   13   15 1    
    29   14  138 1    
    30   15   16 1    
    31   15  139 1    
    32   15  140 1    
    33   16   17 1    
    34   17   18 1    
    35   17  141 1    
    36   17  142 1    
    37   18   19 1    
    38   18   67 1    
    39   18  143 1    
    40   19   20 am   BACKBONE|DICT|INTERRES
    41   19  144 1    
    42   20   21 2    
    43   20   22 1    
    44   22   23 1    
    45   22   24 1    
    46   22  145 1    
    47   23  146 1    
    48   23  147 1    
    49   23  148 1    
    50   24   25 am   BACKBONE|DICT|INTERRES
    51   24  149 1    
    52   25   26 2    
    53   25   27 1    
    54   27   28 1    
    55   27   29 1    
    56   27  150 1    
    57   28  151 1    
    58   28  152 1    
    59   28  153 1    
    60   29   30 am   BACKBONE|DICT|INTERRES
    61   29  154 1    
    62   30   31 2    
    63   30   32 1    
    64   32   33 1    
    65   32   34 1    
    66   32  155 1    
    67   33  156 1    
    68   33  157 1    
    69   33  158 1    
    70   34   35 am   BACKBONE|DICT|INTERRES
    71   34  159 1    
    72   35   36 2    
    73   35   37 1    
    74   37   38 1    
    75   37   39 1    
    76   37  160 1    
    77   38  161 1    
    78   38  162 1    
    79   38  163 1    
    80   39   40 am   BACKBONE|DICT|INTERRES
    81   39  164 1    
    82   40   41 2    
    83   40   42 1    
    84   42   43 1    
    85   42   44 1    
    86   42  165 1    
    87   43  166 1    
    88   43  167 1    
    89   43  168 1    
    90   44   45 am   BACKBONE|DICT|INTERRES
    91   44  169 1    
    92   45   46 2    
    93   45   47 1    
    94   47   48 1    
    95   47   49 1    
    96   47  170 1    
    97   48  171 1    
    98   48  172 1    
    99   48  173 1    
   100   49   50 am   BACKBONE|DICT|INTERRES
   101   49  174 1    
   102   50   51 2    
   103   50   52 1    
   104   52   53 1    
   105   52   54 1    
   106   52  175 1    
   107   53  176 1    
   108   53  177 1    
   109   53  178 1    
   110   54   55 am   BACKBONE|DICT|INTERRES
   111   54  179 1    
   112   55   56 2    
   113   55   57 1    
   114   57   58 1    
   115   57   59 1    
   116   57  180 1    
   117   58  181 1    
   118   58  182 1    
   119   58  183 1    
   120   59   60 am   BACKBONE|DICT|INTERRES
   121   59  184 1    
   122   60   61 2    
   123   60   62 1    
   124   62   63 1    
   125   62   64 1    
   126   62  185 1    
   127   63  186 1    
   128   63  187 1    
   129   63  188 1    
   130   64   65 am   BACKBONE|DICT|INTERRES
   131   64  189 1    
   132   65   66 2    
   133   67   68 2    
   134   67   69 am   BACKBONE|DICT|INTERRES
   135   69   70 1    
   136   69  190 1    
   137   70   71 1    
   138   70   72 1    
   139   70  191 1    
   140   71  192 1    
   141   71  193 1    
   142   71  194 1    
   143   72   73 2    
   144   72   74 am   BACKBONE|DICT|INTERRES
   145   74   75 1    
   146   74  195 1    
   147   75   76 1    
   148   75   77 1    
   149   75  196 1    
   150   76  197 1    
   151   76  198 1    
   152   76  199 1    
   153   77   78 2    
   154   77   79 am   BACKBONE|DICT|INTERRES
   155   79   80 1    
   156   79  200 1    
   157   80   81 1    
   158   80   82 1    
   159   80  201 1    
   160   81  202 1    
   161   81  203 1    
   162   81  204 1    
   163   82   83 2    
   164   82   84 am   BACKBONE|DICT|INTERRES
   165   84   85 1    
   166   84  205 1    
   167   85   86 1    
   168   85   87 1    
   169   85  206 1    
   170   86  207 1    
   171   86  208 1    
   172   86  209 1    
   173   87   88 2    
   174   87   89 am   BACKBONE|DICT|INTERRES
   175   89   90 1    
   176   89  210 1    
   177   90   91 1    
   178   90   92 1    
   179   90  211 1    
   180   91  212 1    
   181   91  213 1    
   182   91  214 1    
   183   92   93 2    
   184   92   94 am   BACKBONE|DICT|INTERRES
   185   94   95 1    
   186   94  215 1    
   187   95   96 1    
   188   95   97 1    
   189   95  216 1    
   190   96  217 1    
   191   96  218 1    
   192   96  219 1    
   193   97   98 2    
   194   97   99 am   BACKBONE|DICT|INTERRES
   195   99  100 1    
   196   99  220 1    
   197  100  101 1    
   198  100  102 1    
   199  100  221 1    
   200  101  222 1    
   201  101  223 1    
   202  101  224 1    
   203  102  103 2    
   204  102  104 am   BACKBONE|DICT|INTERRES
   205  104  105 1    
   206  104  225 1    
   207  105  106 1    
   208  105  107 1    
   209  105  226 1    
   210  106  227 1    
   211  106  228 1    
   212  106  229 1    
   213  107  108 2    
   214  107  109 am   BACKBONE|DICT|INTERRES
   215  109  110 1    
   216  109  230 1    
   217  110  111 1    
   218  110  112 1    
   219  110  231 1    
   220  111  232 1    
   221  111  233 1    
   222  111  234 1    
   223  112  113 2    
   224  112  114 am   BACKBONE|DICT|INTERRES
   225  114  115 1    
   226  114  235 1    
   227  115  116 1    
   228  115  117 1    
   229  115  236 1    
   230  116  237 1    
   231  116  238 1    
   232  116  239 1    
   233  117  118 2    
   234  117  119 am   BACKBONE|DICT|INTERRES
   235  119  120 1    
   236  119  240 1    
   237  120  121 1    
   238  120  124 1    
   239  120  241 1    
   240  121  122 am   BACKBONE|DICT|INTERRES
   241  121  123 2    
   242  122  242 1    
   243  122  243 1    
   244  124  125 1    
   245  124  244 1    
   246  124  245 1    
   247  125  126 1    
   248  126  246 1    
   249  126  247 1    
@<TRIPOS>SUBSTRUCTURE
     1 UNK         1 GROUP             0       ****    0 ROOT    
