@<TRIPOS>MOLECULE
3R540
247   249    1
SMALL
USER_CHARGES


@<TRIPOS>ATOM
      1 CA         -0.1959   -8.9456  -46.2227 C.3       0 UNK        -0.1800 
      2 C           0.6131  -10.2299  -46.1196 C.2       0 UNK         0.5000 
      3 O           0.8958  -10.6862  -45.0128 O.2       0 UNK        -0.5000 
      4 N           1.0084  -10.8002  -47.2673 N.am      1 UNK        -0.5000 
      5 CA          1.7191  -12.0838  -47.4215 C.3       1 UNK         0.1400 
      6 C6          0.8885  -13.3065  -46.9389 C.3       23 UNK        -0.0398 
      7 S7         -0.7704  -13.4265  -47.6863 S.3       23 UNK        -0.2404 
      8 C8         -0.9509  -15.2310  -47.8407 C.3       23 UNK        -0.0205 
      9 C9         -0.3742  -15.7528  -49.1475 C.ar      23 UNK        -0.0193 
     10 C10        -1.1240  -15.6480  -50.3215 C.ar      23 UNK        -0.1150 
     11 C11        -0.6225  -16.1288  -51.5332 C.ar      23 UNK        -0.0193 
     12 C12         0.6391  -16.7281  -51.5621 C.ar      23 UNK        -0.1150 
     13 C13         1.4049  -16.8413  -50.3962 C.ar      23 UNK        -0.0193 
     14 C14         0.8920  -16.3459  -49.1903 C.ar      23 UNK        -0.1150 
     15 C15         2.7983  -17.4635  -50.4726 C.3       23 UNK        -0.0205 
     16 S16         3.1645  -18.6582  -49.1433 S.3       23 UNK        -0.2404 
     17 C17         1.7929  -19.8434  -49.3389 C.3       23 UNK        -0.0398 
     18 CA          2.1292  -21.2649  -48.8239 C.3       11 UNK         0.1400 
     19 N           2.4404  -21.2683  -47.3891 N.am      11 UNK        -0.5000 
     20 C           3.0829  -22.2478  -46.7408 C.2       10 UNK         0.5000 
     21 O           3.5181  -23.2600  -47.2908 O.2       10 UNK        -0.5000 
     22 CA          3.2441  -22.0807  -45.2176 C.3       10 UNK         0.1400 
     23 CB          4.4158  -21.1410  -44.8944 C.3       10 UNK        -0.1800 
     24 N           2.0298  -21.5976  -44.5537 N.am      10 UNK        -0.5000 
     25 C           0.8842  -22.2890  -44.4596 C.2       9 UNK         0.5000 
     26 O           0.7203  -23.4096  -44.9417 O.2       9 UNK        -0.5000 
     27 CA         -0.2870  -21.6072  -43.7272 C.3       9 UNK         0.1400 
     28 CB         -0.1080  -21.6902  -42.2041 C.3       9 UNK        -0.1800 
     29 N          -0.4558  -20.2118  -44.1255 N.am      9 UNK        -0.5000 
     30 C          -0.8468  -19.8191  -45.3445 C.2       8 UNK         0.5000 
     31 O          -1.2008  -20.5964  -46.2303 O.2       8 UNK        -0.5000 
     32 CA         -0.7994  -18.3103  -45.6439 C.3       8 UNK         0.1400 
     33 CB         -2.0975  -17.6271  -45.1914 C.3       8 UNK        -0.1800 
     34 N           0.3589  -17.6418  -45.0470 N.am      8 UNK        -0.5000 
     35 C           1.6310  -17.9544  -45.3326 C.2       7 UNK         0.5000 
     36 O           1.9490  -18.8319  -46.1294 O.2       7 UNK        -0.5000 
     37 CA          2.7329  -17.2110  -44.5646 C.3       7 UNK         0.1400 
     38 CB          2.9842  -15.8290  -45.1733 C.3       7 UNK        -0.1800 
     39 N           2.4205  -17.0924  -43.1428 N.am      7 UNK        -0.5000 
     40 C           2.3775  -18.1346  -42.3013 C.2       6 UNK         0.5000 
     41 O           2.6777  -19.2861  -42.6184 O.2       6 UNK        -0.5000 
     42 CA          1.8448  -17.8483  -40.8880 C.3       6 UNK         0.1400 
     43 CB          2.9512  -17.2852  -39.9834 C.3       6 UNK        -0.1800 
     44 N           0.7041  -16.9305  -40.9191 N.am      6 UNK        -0.5000 
     45 C          -0.5013  -17.2644  -41.4038 C.2       5 UNK         0.5000 
     46 O          -0.7730  -18.3846  -41.8350 O.2       5 UNK        -0.5000 
     47 CA         -1.5794  -16.1663  -41.4452 C.3       5 UNK         0.1400 
     48 CB         -2.3997  -16.1720  -40.1470 C.3       5 UNK        -0.1800 
     49 N          -1.0517  -14.8213  -41.6731 N.am      5 UNK        -0.5000 
     50 C          -0.4023  -14.4148  -42.7726 C.2       4 UNK         0.5000 
     51 O          -0.1431  -15.1549  -43.7223 O.2       4 UNK        -0.5000 
     52 CA          0.0376  -12.9354  -42.8243 C.3       4 UNK         0.1400 
     53 CB         -0.4405  -12.0944  -41.6198 C.3       4 UNK        -0.1800 
     54 N           1.4837  -12.7497  -42.9984 N.am      4 UNK        -0.5000 
     55 C           2.4672  -13.3225  -42.2866 C.2       3 UNK         0.5000 
     56 O           2.2765  -14.2189  -41.4630 O.2       3 UNK        -0.5000 
     57 CA          3.8978  -12.7928  -42.5079 C.3       3 UNK         0.1400 
     58 CB          4.9828  -13.8472  -42.2153 C.3       3 UNK        -0.1800 
     59 N           4.0890  -12.2343  -43.8488 N.am      3 UNK        -0.5000 
     60 C           4.7827  -11.1237  -44.1320 C.2       2 UNK         0.5000 
     61 O           5.3364  -10.4360  -43.2730 O.2       2 UNK        -0.5000 
     62 CA          4.8709  -10.6738  -45.6087 C.3       2 UNK         0.1400 
     63 CB          6.1312  -11.2408  -46.2906 C.3       2 UNK        -0.1800 
     64 N           3.6584  -10.9268  -46.4008 N.am      2 UNK        -0.5000 
     65 C           3.1300  -12.0992  -46.7792 C.2       1 UNK         0.5000 
     66 O           3.6952  -13.1745  -46.5899 O.2       1 UNK        -0.5000 
     67 C           0.9694  -22.2225  -49.1746 C.2       11 UNK         0.5000 
     68 O           0.7935  -22.5463  -50.3492 O.2       11 UNK        -0.5000 
     69 N           0.1797  -22.6198  -48.1654 N.am      12 UNK        -0.5000 
     70 CA         -1.0780  -23.3690  -48.2513 C.3       12 UNK         0.1400 
     71 CB         -0.8842  -24.7494  -48.9107 C.3       12 UNK        -0.1800 
     72 C          -2.2230  -22.5541  -48.8887 C.2       12 UNK         0.5000 
     73 O          -3.2244  -23.1266  -49.3124 O.2       12 UNK        -0.5000 
     74 N          -2.0987  -21.2203  -48.8834 N.am      13 UNK        -0.5000 
     75 CA         -3.1442  -20.2812  -49.2891 C.3       13 UNK         0.1400 
     76 CB         -2.5390  -18.8761  -49.4239 C.3       13 UNK        -0.1800 
     77 C          -4.3351  -20.2760  -48.3084 C.2       13 UNK         0.5000 
     78 O          -5.4481  -19.9333  -48.7042 O.2       13 UNK        -0.5000 
     79 N          -4.0817  -20.6846  -47.0569 N.am      14 UNK        -0.5000 
     80 CA         -5.0857  -20.9007  -46.0161 C.3       14 UNK         0.1400 
     81 CB         -4.3856  -20.8528  -44.6475 C.3       14 UNK        -0.1800 
     82 C          -5.8665  -22.2248  -46.1709 C.2       14 UNK         0.5000 
     83 O          -6.8674  -22.4056  -45.4752 O.2       14 UNK        -0.5000 
     84 N          -5.4015  -23.1384  -47.0373 N.am      15 UNK        -0.5000 
     85 CA         -6.0363  -24.4338  -47.2931 C.3       15 UNK         0.1400 
     86 CB         -5.0054  -25.3832  -47.9287 C.3       15 UNK        -0.1800 
     87 C          -7.2821  -24.3056  -48.1914 C.2       15 UNK         0.5000 
     88 O          -7.5556  -23.2332  -48.7385 O.2       15 UNK        -0.5000 
     89 N          -8.0034  -25.4243  -48.3516 N.am      16 UNK        -0.5000 
     90 CA         -9.1626  -25.5667  -49.2356 C.3       16 UNK         0.1400 
     91 CB         -9.6946  -27.0049  -49.1469 C.3       16 UNK        -0.1800 
     92 C          -8.8161  -25.2019  -50.6913 C.2       16 UNK         0.5000 
     93 O          -7.8358  -25.7206  -51.2324 O.2       16 UNK        -0.5000 
     94 N          -9.5884  -24.2665  -51.2628 N.am      17 UNK        -0.5000 
     95 CA         -9.4036  -23.6530  -52.5860 C.3       17 UNK         0.1400 
     96 CB         -9.6747  -24.6867  -53.6997 C.3       17 UNK        -0.1800 
     97 C          -8.0369  -22.9507  -52.7631 C.2       17 UNK         0.5000 
     98 O          -7.5636  -22.8175  -53.8927 O.2       17 UNK        -0.5000 
     99 N          -7.3995  -22.5588  -51.6467 N.am      18 UNK        -0.5000 
    100 CA        -6.0395  -22.0161  -51.5473 C.3       18 UNK         0.1400 
    101 CB        -5.9843  -20.6052  -52.1683 C.3       18 UNK        -0.1800 
    102 C         -4.9728  -22.9749  -52.1227 C.2       18 UNK         0.5000 
    103 O         -3.9845  -22.5250  -52.7078 O.2       18 UNK        -0.5000 
    104 N         -5.2352  -24.2879  -52.0133 N.am      19 UNK        -0.5000 
    105 CA        -4.4781  -25.3993  -52.6005 C.3       19 UNK         0.1400 
    106 CB        -3.0677  -25.4867  -51.9817 C.3       19 UNK        -0.1800 
    107 C         -4.4469  -25.3836  -54.1473 C.2       19 UNK         0.5000 
    108 O         -3.6038  -26.0543  -54.7437 O.2       19 UNK        -0.5000 
    109 N         -5.3570  -24.6134  -54.7673 N.am      20 UNK        -0.5000 
    110 CA        -5.5152  -24.3660  -56.2045 C.3       20 UNK         0.1400 
    111 CB        -5.9036  -25.6636  -56.9429 C.3       20 UNK        -0.1800 
    112 C         -4.3192  -23.6424  -56.8648 C.2       20 UNK         0.5000 
    113 O         -4.2253  -23.6352  -58.0938 O.2       20 UNK        -0.5000 
    114 N         -3.4329  -23.0413  -56.0587 N.am      21 UNK        -0.5000 
    115 CA        -2.1965  -22.4015  -56.5179 C.3       21 UNK         0.1400 
    116 CB        -1.0779  -23.4593  -56.5721 C.3       21 UNK        -0.1800 
    117 C         -1.7766  -21.1916  -55.6617 C.2       21 UNK         0.5000 
    118 O         -0.7416  -20.5902  -55.9527 O.2       21 UNK        -0.5000 
    119 N         -2.5589  -20.8522  -54.6281 N.am      22 UNK        -0.5000 
    120 CA        -2.2039  -19.8937  -53.5699 C.3       22 UNK         0.1400 
    121 C         -1.0629  -20.4376  -52.6643 C.2       22 UNK         0.5000 
    122 N         -1.2158  -21.6496  -52.1481 N.am      22 UNK        -0.7600 
    123 O         -0.0418  -19.7942  -52.4478 O.2       22 UNK        -0.5000 
    124 C124       -1.9993  -18.4390  -54.0859 C.3       23 UNK        -0.0398 
    125 S125       -2.7485  -17.2014  -52.9704 S.3       23 UNK        -0.2404 
    126 C126       -1.4316  -15.9542  -52.8100 C.3       23 UNK        -0.0205 
    127 H127       -0.3583   -8.6503  -47.2595 H         1 UNK         0.0600 
    128 H128        0.3231   -8.1336  -45.7137 H         1 UNK         0.0600 
    129 H129       -1.1690   -9.0790  -45.7504 H         1 UNK         0.0600 
    130 H130        0.7521  -10.3553  -48.1378 H         1 UNK         0.3000 
    131 H131        1.8860  -12.2049  -48.4928 H         1 UNK         0.0600 
    132 H132        0.7665  -13.2902  -45.8554 H         1 UNK         0.0800 
    133 H133        1.4249  -14.2272  -47.1693 H         1 UNK         0.0800 
    134 H134       -0.4778  -15.7175  -46.9880 H         1 UNK         0.0800 
    135 H135       -2.0104  -15.4854  -47.7869 H         1 UNK         0.0800 
    136 H136       -2.0997  -15.1833  -50.2936 H         1 UNK         0.1150 
    137 H137        1.0281  -17.1011  -52.4991 H         1 UNK         0.1150 
    138 H138        1.4783  -16.4270  -48.2861 H         1 UNK         0.1150 
    139 H139        2.9389  -17.9671  -51.4304 H         1 UNK         0.0800 
    140 H140        3.5376  -16.6628  -50.4348 H         1 UNK         0.0800 
    141 H141        0.9178  -19.4415  -48.8246 H         1 UNK         0.0800 
    142 H142        1.5364  -19.8798  -50.3983 H         1 UNK         0.0800 
    143 H143        3.0093  -21.6206  -49.3635 H         1 UNK         0.0600 
    144 H144        2.1816  -20.4265  -46.8739 H         1 UNK         0.3000 
    145 H145        3.4785  -23.0629  -44.8020 H         1 UNK         0.0600 
    146 H146        4.5834  -21.0746  -43.8193 H         1 UNK         0.0600 
    147 H147        4.2384  -20.1325  -45.2682 H         1 UNK         0.0600 
    148 H148        5.3408  -21.5004  -45.3468 H         1 UNK         0.0600 
    149 H149        2.0883  -20.6861  -44.1135 H         1 UNK         0.3000 
    150 H150       -1.2003  -22.1458  -43.9884 H         1 UNK         0.0600 
    151 H151        0.7711  -21.1387  -41.8696 H         1 UNK         0.0600 
    152 H152       -0.9748  -21.2811  -41.6846 H         1 UNK         0.0600 
    153 H153        0.0083  -22.7249  -41.8796 H         1 UNK         0.0600 
    154 H154       -0.2537  -19.5069  -43.4239 H         1 UNK         0.3000 
    155 H155       -0.7083  -18.1935  -46.7247 H         1 UNK         0.0600 
    156 H156       -2.9483  -17.9983  -45.7639 H         1 UNK         0.0600 
    157 H157       -2.0572  -16.5475  -45.3332 H         1 UNK         0.0600 
    158 H158       -2.3036  -17.8176  -44.1387 H         1 UNK         0.0600 
    159 H159        0.1739  -16.8669  -44.4145 H         1 UNK         0.3000 
    160 H160        3.6528  -17.7907  -44.6652 H         1 UNK         0.0600 
    161 H161        2.1598  -15.1443  -44.9818 H         1 UNK         0.0600 
    162 H162        3.1140  -15.8973  -46.2543 H         1 UNK         0.0600 
    163 H163        3.8922  -15.3811  -44.7752 H         1 UNK         0.0600 
    164 H164        2.1206  -16.1869  -42.8059 H         1 UNK         0.3000 
    165 H165        1.5094  -18.7953  -40.4592 H         1 UNK         0.0600 
    166 H166        2.5805  -17.0992  -38.9754 H         1 UNK         0.0600 
    167 H167        3.7792  -17.9902  -39.9007 H         1 UNK         0.0600 
    168 H168        3.3578  -16.3506  -40.3696 H         1 UNK         0.0600 
    169 H169        0.8780  -15.9722  -40.6449 H         1 UNK         0.3000 
    170 H170       -2.2538  -16.3975  -42.2711 H         1 UNK         0.0600 
    171 H171       -2.8301  -17.1572  -39.9615 H         1 UNK         0.0600 
    172 H172       -1.7872  -15.9132  -39.2824 H         1 UNK         0.0600 
    173 H173       -3.2262  -15.4630  -40.1986 H         1 UNK         0.0600 
    174 H174       -1.2032  -14.1495  -40.9351 H         1 UNK         0.3000 
    175 H175       -0.4390  -12.5267  -43.7156 H         1 UNK         0.0600 
    176 H176        0.0096  -12.4271  -40.6835 H         1 UNK         0.0600 
    177 H177       -0.1767  -11.0452  -41.7549 H         1 UNK         0.0600 
    178 H178       -1.5249  -12.1341  -41.5093 H         1 UNK         0.0600 
    179 H179        1.7255  -12.0227  -43.6631 H         1 UNK         0.3000 
    180 H180        4.0118  -11.9947  -41.7718 H         1 UNK         0.0600 
    181 H181        4.9161  -14.2045  -41.1870 H         1 UNK         0.0600 
    182 H182        5.9819  -13.4310  -42.3450 H         1 UNK         0.0600 
    183 H183        4.8947  -14.7146  -42.8672 H         1 UNK         0.0600 
    184 H184        3.7133  -12.7654  -44.6275 H         1 UNK         0.3000 
    185 H185        4.9772   -9.5880  -45.5903 H         1 UNK         0.0600 
    186 H186        7.0317  -10.9145  -45.7690 H         1 UNK         0.0600 
    187 H187        6.1407  -12.3308  -46.2964 H         1 UNK         0.0600 
    188 H188        6.2107  -10.8976  -47.3220 H         1 UNK         0.0600 
    189 H189        3.0916  -10.1089  -46.5760 H         1 UNK         0.3000 
    190 H190        0.4175  -22.2945  -47.2376 H         1 UNK         0.3000 
    191 H191       -1.3816  -23.5440  -47.2182 H         1 UNK         0.0600 
    192 H192       -1.7723  -25.3687  -48.7808 H         1 UNK         0.0600 
    193 H193       -0.0472  -25.2863  -48.4647 H         1 UNK         0.0600 
    194 H194       -0.7016  -24.6679  -49.9823 H         1 UNK         0.0600 
    195 H195       -1.2935  -20.8302  -48.4140 H         1 UNK         0.3000 
    196 H196       -3.5097  -20.5944  -50.2675 H         1 UNK         0.0600 
    197 H197       -3.2717  -18.1745  -49.8246 H         1 UNK         0.0600 
    198 H198       -1.6848  -18.8714  -50.1016 H         1 UNK         0.0600 
    199 H199       -2.2059  -18.4857  -48.4634 H         1 UNK         0.0600 
    200 H200       -3.1207  -20.8996  -46.8125 H         1 UNK         0.3000 
    201 H201       -5.8126  -20.0869  -46.0569 H         1 UNK         0.0600 
    202 H202       -5.0979  -21.0022  -43.8351 H         1 UNK         0.0600 
    203 H203       -3.9077  -19.8886  -44.4794 H         1 UNK         0.0600 
    204 H204       -3.6217  -21.6261  -44.5603 H         1 UNK         0.0600 
    205 H205       -4.6196  -22.9011  -47.6336 H         1 UNK         0.3000 
    206 H206       -6.3485  -24.8582  -46.3366 H         1 UNK         0.0600 
    207 H207       -4.0607  -25.3710  -47.3848 H         1 UNK         0.0600 
    208 H208       -5.3648  -26.4125  -47.9248 H         1 UNK         0.0600 
    209 H209       -4.8009  -25.1203  -48.9668 H         1 UNK         0.0600 
    210 H210       -7.6964  -26.2674  -47.8894 H         1 UNK         0.3000 
    211 H211       -9.9388  -24.8902  -48.8722 H         1 UNK         0.0600 
    212 H212       -8.9458  -27.7314  -49.4656 H         1 UNK         0.0600 
    213 H213      -10.5708  -27.1365  -49.7831 H         1 UNK         0.0600 
    214 H214       -9.9932  -27.2543  -48.1285 H         1 UNK         0.0600 
    215 H215      -10.3512  -23.8855  -50.7197 H         1 UNK         0.3000 
    216 H216      -10.1577  -22.8694  -52.6698 H         1 UNK         0.0600 
    217 H217      -10.6405  -25.1725  -53.5608 H         1 UNK         0.0600 
    218 H218       -8.9093  -25.4631  -53.7270 H         1 UNK         0.0600 
    219 H219       -9.6916  -24.2117  -54.6813 H         1 UNK         0.0600 
    220 H220       -7.8409  -22.7438  -50.7518 H         1 UNK         0.3000 
    221 H221       -5.8238  -21.9279  -50.4827 H         1 UNK         0.0600 
    222 H222       -5.0619  -20.0943  -51.9017 H         1 UNK         0.0600 
    223 H223       -6.0434  -20.6360  -53.2567 H         1 UNK         0.0600 
    224 H224       -6.8030  -19.9842  -51.8049 H         1 UNK         0.0600 
    225 H225       -6.1017  -24.5620  -51.5625 H         1 UNK         0.3000 
    226 H226       -5.0170  -26.3058  -52.3217 H         1 UNK         0.0600 
    227 H227       -3.1199  -25.5065  -50.8937 H         1 UNK         0.0600 
    228 H228       -2.5551  -26.3960  -52.2965 H         1 UNK         0.0600 
    229 H229       -2.4409  -24.6429  -52.2704 H         1 UNK         0.0600 
    230 H230       -6.0028  -24.0873  -54.1876 H         1 UNK         0.3000 
    231 H231       -6.3576  -23.6787  -56.2926 H         1 UNK         0.0600 
    232 H232       -6.1853  -25.4581  -57.9761 H         1 UNK         0.0600 
    233 H233       -6.7569  -26.1470  -56.4670 H         1 UNK         0.0600 
    234 H234       -5.0813  -26.3790  -56.9662 H         1 UNK         0.0600 
    235 H235       -3.5658  -23.1197  -55.0596 H         1 UNK         0.3000 
    236 H236       -2.3462  -22.0075  -57.5251 H         1 UNK         0.0600 
    237 H237       -1.3380  -24.2763  -57.2454 H         1 UNK         0.0600 
    238 H238       -0.1424  -23.0305  -56.9334 H         1 UNK         0.0600 
    239 H239       -0.8869  -23.8862  -55.5868 H         1 UNK         0.0600 
    240 H240       -3.3760  -21.4106  -54.4242 H         1 UNK         0.3000 
    241 H241       -3.0788  -19.8837  -52.9231 H         1 UNK         0.0600 
    242 H242       -2.0748  -22.1656  -52.3030 H         1 UNK         0.3800 
    243 H243       -0.4806  -22.0317  -51.5584 H         1 UNK         0.3800 
    244 H244       -2.4897  -18.3121  -55.0517 H         1 UNK         0.0800 
    245 H245       -0.9460  -18.2211  -54.2673 H         1 UNK         0.0800 
    246 H246       -1.8949  -14.9665  -52.8017 H         1 UNK         0.0800 
    247 H247       -0.7826  -15.9674  -53.6866 H         1 UNK         0.0800 
@<TRIPOS>BOND
     1    1    2 1    
     2    1  127 1    
     3    1  128 1    
     4    1  129 1    
     5    2    3 2    
     6    2    4 am   BACKBONE|DICT|INTERRES
     7    4    5 1    
     8    4  130 1    
     9    5    6 1    
    10    5   65 1    
    11    5  131 1    
    12    6    7 1    
    13    6  132 1    
    14    6  133 1    
    15    7    8 1    
    16    8    9 1    
    17    8  134 1    
    18    8  135 1    
    19    9   10 ar   
    20    9   14 ar   
    21   10   11 ar   
    22   10  136 1    
    23   11   12 ar   
    24   11  126 1    
    25   12   13 ar   
    26   12  137 1    
    27   13   14 ar   
    28   13   15 1    
    29   14  138 1    
    30   15   16 1    
    31   15  139 1    
    32   15  140 1    
    33   16   17 1    
    34   17   18 1    
    35   17  141 1    
    36   17  142 1    
    37   18   19 1    
    38   18   67 1    
    39   18  143 1    
    40   19   20 am   BACKBONE|DICT|INTERRES
    41   19  144 1    
    42   20   21 2    
    43   20   22 1    
    44   22   23 1    
    45   22   24 1    
    46   22  145 1    
    47   23  146 1    
    48   23  147 1    
    49   23  148 1    
    50   24   25 am   BACKBONE|DICT|INTERRES
    51   24  149 1    
    52   25   26 2    
    53   25   27 1    
    54   27   28 1    
    55   27   29 1    
    56   27  150 1    
    57   28  151 1    
    58   28  152 1    
    59   28  153 1    
    60   29   30 am   BACKBONE|DICT|INTERRES
    61   29  154 1    
    62   30   31 2    
    63   30   32 1    
    64   32   33 1    
    65   32   34 1    
    66   32  155 1    
    67   33  156 1    
    68   33  157 1    
    69   33  158 1    
    70   34   35 am   BACKBONE|DICT|INTERRES
    71   34  159 1    
    72   35   36 2    
    73   35   37 1    
    74   37   38 1    
    75   37   39 1    
    76   37  160 1    
    77   38  161 1    
    78   38  162 1    
    79   38  163 1    
    80   39   40 am   BACKBONE|DICT|INTERRES
    81   39  164 1    
    82   40   41 2    
    83   40   42 1    
    84   42   43 1    
    85   42   44 1    
    86   42  165 1    
    87   43  166 1    
    88   43  167 1    
    89   43  168 1    
    90   44   45 am   BACKBONE|DICT|INTERRES
    91   44  169 1    
    92   45   46 2    
    93   45   47 1    
    94   47   48 1    
    95   47   49 1    
    96   47  170 1    
    97   48  171 1    
    98   48  172 1    
    99   48  173 1    
   100   49   50 am   BACKBONE|DICT|INTERRES
   101   49  174 1    
   102   50   51 2    
   103   50   52 1    
   104   52   53 1    
   105   52   54 1    
   106   52  175 1    
   107   53  176 1    
   108   53  177 1    
   109   53  178 1    
   110   54   55 am   BACKBONE|DICT|INTERRES
   111   54  179 1    
   112   55   56 2    
   113   55   57 1    
   114   57   58 1    
   115   57   59 1    
   116   57  180 1    
   117   58  181 1    
   118   58  182 1    
   119   58  183 1    
   120   59   60 am   BACKBONE|DICT|INTERRES
   121   59  184 1    
   122   60   61 2    
   123   60   62 1    
   124   62   63 1    
   125   62   64 1    
   126   62  185 1    
   127   63  186 1    
   128   63  187 1    
   129   63  188 1    
   130   64   65 am   BACKBONE|DICT|INTERRES
   131   64  189 1    
   132   65   66 2    
   133   67   68 2    
   134   67   69 am   BACKBONE|DICT|INTERRES
   135   69   70 1    
   136   69  190 1    
   137   70   71 1    
   138   70   72 1    
   139   70  191 1    
   140   71  192 1    
   141   71  193 1    
   142   71  194 1    
   143   72   73 2    
   144   72   74 am   BACKBONE|DICT|INTERRES
   145   74   75 1    
   146   74  195 1    
   147   75   76 1    
   148   75   77 1    
   149   75  196 1    
   150   76  197 1    
   151   76  198 1    
   152   76  199 1    
   153   77   78 2    
   154   77   79 am   BACKBONE|DICT|INTERRES
   155   79   80 1    
   156   79  200 1    
   157   80   81 1    
   158   80   82 1    
   159   80  201 1    
   160   81  202 1    
   161   81  203 1    
   162   81  204 1    
   163   82   83 2    
   164   82   84 am   BACKBONE|DICT|INTERRES
   165   84   85 1    
   166   84  205 1    
   167   85   86 1    
   168   85   87 1    
   169   85  206 1    
   170   86  207 1    
   171   86  208 1    
   172   86  209 1    
   173   87   88 2    
   174   87   89 am   BACKBONE|DICT|INTERRES
   175   89   90 1    
   176   89  210 1    
   177   90   91 1    
   178   90   92 1    
   179   90  211 1    
   180   91  212 1    
   181   91  213 1    
   182   91  214 1    
   183   92   93 2    
   184   92   94 am   BACKBONE|DICT|INTERRES
   185   94   95 1    
   186   94  215 1    
   187   95   96 1    
   188   95   97 1    
   189   95  216 1    
   190   96  217 1    
   191   96  218 1    
   192   96  219 1    
   193   97   98 2    
   194   97   99 am   BACKBONE|DICT|INTERRES
   195   99  100 1    
   196   99  220 1    
   197  100  101 1    
   198  100  102 1    
   199  100  221 1    
   200  101  222 1    
   201  101  223 1    
   202  101  224 1    
   203  102  103 2    
   204  102  104 am   BACKBONE|DICT|INTERRES
   205  104  105 1    
   206  104  225 1    
   207  105  106 1    
   208  105  107 1    
   209  105  226 1    
   210  106  227 1    
   211  106  228 1    
   212  106  229 1    
   213  107  108 2    
   214  107  109 am   BACKBONE|DICT|INTERRES
   215  109  110 1    
   216  109  230 1    
   217  110  111 1    
   218  110  112 1    
   219  110  231 1    
   220  111  232 1    
   221  111  233 1    
   222  111  234 1    
   223  112  113 2    
   224  112  114 am   BACKBONE|DICT|INTERRES
   225  114  115 1    
   226  114  235 1    
   227  115  116 1    
   228  115  117 1    
   229  115  236 1    
   230  116  237 1    
   231  116  238 1    
   232  116  239 1    
   233  117  118 2    
   234  117  119 am   BACKBONE|DICT|INTERRES
   235  119  120 1    
   236  119  240 1    
   237  120  121 1    
   238  120  124 1    
   239  120  241 1    
   240  121  122 am   BACKBONE|DICT|INTERRES
   241  121  123 2    
   242  122  242 1    
   243  122  243 1    
   244  124  125 1    
   245  124  244 1    
   246  124  245 1    
   247  125  126 1    
   248  126  246 1    
   249  126  247 1    
@<TRIPOS>SUBSTRUCTURE
     1 UNK         1 GROUP             0       ****    0 ROOT    
