@<TRIPOS>MOLECULE
3R540
247   249    1
SMALL
USER_CHARGES


@<TRIPOS>ATOM
      1 CA          2.5233   -9.7605  -52.7452 C.3       0 UNK        -0.1800 
      2 C           3.2026  -10.2016  -51.4564 C.2       0 UNK         0.5000 
      3 O           4.2388   -9.6474  -51.0894 O.2       0 UNK        -0.5000 
      4 N           2.6234  -11.1953  -50.7702 N.am      1 UNK        -0.5000 
      5 CA          3.1379  -11.7615  -49.5150 C.3       1 UNK         0.1400 
      6 C6          2.4913  -13.1306  -49.1921 C.3       23 UNK        -0.0398 
      7 S7          2.9304  -14.3999  -50.4231 S.3       23 UNK        -0.2404 
      8 C8          1.5566  -15.5723  -50.2195 C.3       23 UNK        -0.0205 
      9 C9          1.9592  -16.9523  -50.7094 C.ar      23 UNK        -0.0193 
     10 C10         1.7732  -17.3167  -52.0466 C.ar      23 UNK        -0.1150 
     11 C11         2.1846  -18.5739  -52.5018 C.ar      23 UNK        -0.0193 
     12 C12         2.7814  -19.4672  -51.6069 C.ar      23 UNK        -0.1150 
     13 C13         2.9867  -19.1058  -50.2731 C.ar      23 UNK        -0.0193 
     14 C14         2.5612  -17.8528  -49.8266 C.ar      23 UNK        -0.1150 
     15 C15         3.7234  -20.0411  -49.3300 C.3       23 UNK        -0.0205 
     16 S16         2.5835  -21.0931  -48.3895 S.3       23 UNK        -0.2404 
     17 C17         3.7954  -21.9997  -47.3652 C.3       23 UNK        -0.0398 
     18 CA          3.2659  -23.2777  -46.6675 C.3       11 UNK         0.1400 
     19 N           2.3917  -22.9745  -45.5265 N.am      11 UNK        -0.5000 
     20 C           2.1699  -23.8303  -44.5160 C.2       10 UNK         0.5000 
     21 O           2.6959  -24.9417  -44.4468 O.2       10 UNK        -0.5000 
     22 CA          1.1906  -23.4058  -43.4023 C.3       10 UNK         0.1400 
     23 CB          1.9611  -22.8313  -42.2042 C.3       10 UNK        -0.1800 
     24 N           0.1707  -22.4411  -43.8114 N.am      10 UNK        -0.5000 
     25 C          -0.7202  -22.6106  -44.7965 C.2       9 UNK         0.5000 
     26 O          -0.7837  -23.6174  -45.5007 O.2       9 UNK        -0.5000 
     27 CA         -1.6993  -21.4531  -45.0531 C.3       9 UNK         0.1400 
     28 CB         -2.9070  -21.6041  -44.1146 C.3       9 UNK        -0.1800 
     29 N          -1.1672  -20.0887  -44.9234 N.am      9 UNK        -0.5000 
     30 C           0.0354  -19.6040  -45.2759 C.2       8 UNK         0.5000 
     31 O           0.9743  -20.2929  -45.6716 O.2       8 UNK        -0.5000 
     32 CA          0.2316  -18.0790  -45.1595 C.3       8 UNK         0.1400 
     33 CB         -0.0373  -17.3944  -46.5095 C.3       8 UNK        -0.1800 
     34 N          -0.6082  -17.4557  -44.1355 N.am      8 UNK        -0.5000 
     35 C          -0.4694  -17.6372  -42.8143 C.2       7 UNK         0.5000 
     36 O           0.3988  -18.3474  -42.3062 O.2       7 UNK        -0.5000 
     37 CA         -1.4897  -16.9211  -41.9137 C.3       7 UNK         0.1400 
     38 CB         -1.1107  -15.4443  -41.7150 C.3       7 UNK        -0.1800 
     39 N          -2.8382  -17.0128  -42.4729 N.am      7 UNK        -0.5000 
     40 C          -3.6525  -18.0646  -42.3042 C.2       6 UNK         0.5000 
     41 O          -3.3789  -19.0304  -41.5917 O.2       6 UNK        -0.5000 
     42 CA         -4.9990  -18.0444  -43.0563 C.3       6 UNK         0.1400 
     43 CB         -6.1116  -17.5006  -42.1473 C.3       6 UNK        -0.1800 
     44 N          -4.9705  -17.2593  -44.2917 N.am      6 UNK        -0.5000 
     45 C          -4.2692  -17.5842  -45.3867 C.2       5 UNK         0.5000 
     46 O          -3.5743  -18.5920  -45.4809 O.2       5 UNK        -0.5000 
     47 CA         -4.2847  -16.5690  -46.5425 C.3       5 UNK         0.1400 
     48 CB         -5.4938  -16.8020  -47.4582 C.3       5 UNK        -0.1800 
     49 N          -4.2773  -15.1752  -46.0887 N.am      5 UNK        -0.5000 
     50 C          -3.3147  -14.6298  -45.3346 C.2       4 UNK         0.5000 
     51 O          -2.3252  -15.2507  -44.9378 O.2       4 UNK        -0.5000 
     52 CA         -3.5405  -13.1777  -44.8809 C.3       4 UNK         0.1400 
     53 CB         -4.3761  -13.1570  -43.5910 C.3       4 UNK        -0.1800 
     54 N          -2.2772  -12.4866  -44.6306 N.am      4 UNK        -0.5000 
     55 C          -1.4149  -12.1167  -45.5832 C.2       3 UNK         0.5000 
     56 O          -1.6178  -12.2578  -46.7933 O.2       3 UNK        -0.5000 
     57 CA         -0.1023  -11.4889  -45.0982 C.3       3 UNK         0.1400 
     58 CB          0.9112  -12.5749  -44.6957 C.3       3 UNK        -0.1800 
     59 N           0.4499  -10.6834  -46.1794 N.am      3 UNK        -0.5000 
     60 C           1.1751   -9.5685  -46.0430 C.2       2 UNK         0.5000 
     61 O           1.4776   -9.0803  -44.9523 O.2       2 UNK        -0.5000 
     62 CA          1.6369   -8.9006  -47.3582 C.3       2 UNK         0.1400 
     63 CB          2.7607   -7.8635  -47.1499 C.3       2 UNK        -0.1800 
     64 N           2.0124   -9.8760  -48.3916 N.am      2 UNK        -0.5000 
     65 C           2.9794  -10.8058  -48.3126 C.2       1 UNK         0.5000 
     66 O           3.7253  -10.9426  -47.3420 O.2       1 UNK        -0.5000 
     67 C           2.6392  -24.2775  -47.6678 C.2       11 UNK         0.5000 
     68 O           3.3699  -24.8675  -48.4653 O.2       11 UNK        -0.5000 
     69 N           1.3124  -24.4480  -47.6131 N.am      12 UNK        -0.5000 
     70 CA          0.5268  -25.2929  -48.5070 C.3       12 UNK         0.1400 
     71 CB         -0.1205  -24.4077  -49.5892 C.3       12 UNK        -0.1800 
     72 C          -0.5086  -26.0784  -47.6878 C.2       12 UNK         0.5000 
     73 O          -1.6560  -26.2089  -48.1152 O.2       12 UNK        -0.5000 
     74 N          -0.0938  -26.5646  -46.5081 N.am      13 UNK        -0.5000 
     75 CA         -0.9371  -27.1105  -45.4362 C.3       13 UNK         0.1400 
     76 CB         -0.0355  -27.5199  -44.2617 C.3       13 UNK        -0.1800 
     77 C          -1.8716  -28.2753  -45.8226 C.2       13 UNK         0.5000 
     78 O          -2.8689  -28.4945  -45.1344 O.2       13 UNK        -0.5000 
     79 N          -1.5558  -28.9862  -46.9139 N.am      14 UNK        -0.5000 
     80 CA         -2.4031  -30.0235  -47.5075 C.3       14 UNK         0.1400 
     81 CB         -1.6068  -30.7588  -48.5962 C.3       14 UNK        -0.1800 
     82 C          -3.7247  -29.4722  -48.0836 C.2       14 UNK         0.5000 
     83 O          -4.7320  -30.1810  -48.0649 O.2       14 UNK        -0.5000 
     84 N          -3.6976  -28.2238  -48.5688 N.am      15 UNK        -0.5000 
     85 CA         -4.8629  -27.4802  -49.0488 C.3       15 UNK         0.1400 
     86 CB         -4.5284  -26.8544  -50.4128 C.3       15 UNK        -0.1800 
     87 C          -5.2701  -26.3824  -48.0508 C.2       15 UNK         0.5000 
     88 O          -6.4614  -26.1104  -47.9037 O.2       15 UNK        -0.5000 
     89 N          -4.2691  -25.7653  -47.4033 N.am      16 UNK        -0.5000 
     90 CA         -4.3459  -24.6558  -46.4464 C.3       16 UNK         0.1400 
     91 CB         -5.1318  -25.0660  -45.1843 C.3       16 UNK        -0.1800 
     92 C          -4.8456  -23.3319  -47.0663 C.2       16 UNK         0.5000 
     93 O          -5.2720  -22.4385  -46.3349 O.2       16 UNK        -0.5000 
     94 N          -4.7811  -23.2238  -48.4002 N.am      17 UNK        -0.5000 
     95 CA         -5.2053  -22.0501  -49.1592 C.3       17 UNK         0.1400 
     96 CB         -5.6833  -22.4945  -50.5501 C.3       17 UNK        -0.1800 
     97 C          -4.0791  -21.0117  -49.2716 C.2       17 UNK         0.5000 
     98 O          -4.3175  -19.8336  -49.0065 O.2       17 UNK        -0.5000 
     99 N          -2.8812  -21.4695  -49.6739 N.am      18 UNK        -0.5000 
    100 CA        -1.6620  -20.6823  -49.8997 C.3       18 UNK         0.1400 
    101 CB        -1.0080  -20.3264  -48.5510 C.3       18 UNK        -0.1800 
    102 C         -1.9230  -19.4598  -50.8039 C.2       18 UNK         0.5000 
    103 O         -2.1695  -19.6378  -51.9972 O.2       18 UNK        -0.5000 
    104 N         -1.9433  -18.2554  -50.2154 N.am      19 UNK        -0.5000 
    105 CA        -2.2450  -16.9872  -50.8812 C.3       19 UNK         0.1400 
    106 CB        -2.1404  -15.8413  -49.8632 C.3       19 UNK        -0.1800 
    107 C         -3.6208  -16.9554  -51.5781 C.2       19 UNK         0.5000 
    108 O         -3.7533  -16.2876  -52.6031 O.2       19 UNK        -0.5000 
    109 N         -4.6068  -17.6968  -51.0485 N.am      20 UNK        -0.5000 
    110 CA        -5.9383  -17.8252  -51.6478 C.3       20 UNK         0.1400 
    111 CB        -6.9216  -18.4060  -50.6201 C.3       20 UNK        -0.1800 
    112 C         -5.9468  -18.6652  -52.9402 C.2       20 UNK         0.5000 
    113 O         -6.8295  -18.4652  -53.7754 O.2       20 UNK        -0.5000 
    114 N         -4.9738  -19.5749  -53.0916 N.am      21 UNK        -0.5000 
    115 CA        -4.7615  -20.3460  -54.3158 C.3       21 UNK         0.1400 
    116 CB        -4.1686  -21.7216  -53.9711 C.3       21 UNK        -0.1800 
    117 C         -3.8512  -19.5837  -55.2919 C.2       21 UNK         0.5000 
    118 O         -4.1364  -19.5543  -56.4899 O.2       21 UNK        -0.5000 
    119 N         -2.7778  -18.9832  -54.7626 N.am      22 UNK        -0.5000 
    120 CA        -1.7925  -18.2058  -55.5288 C.3       22 UNK         0.1400 
    121 C         -2.3276  -16.8557  -56.0849 C.2       22 UNK         0.5000 
    122 N         -3.2419  -16.1723  -55.4088 N.am      22 UNK        -0.7600 
    123 O         -1.9077  -16.4236  -57.1549 O.2       22 UNK        -0.5000 
    124 C124       -0.4917  -17.9846  -54.7213 C.3       23 UNK        -0.0398 
    125 S125        0.3690  -19.5525  -54.3601 S.3       23 UNK        -0.2404 
    126 C126        2.0408  -18.9544  -53.9680 C.3       23 UNK        -0.0205 
    127 H127        3.2027   -9.8841  -53.5885 H         1 UNK         0.0600 
    128 H128        1.6219  -10.3396  -52.9476 H         1 UNK         0.0600 
    129 H129        2.2447   -8.7086  -52.6815 H         1 UNK         0.0600 
    130 H130        1.7883  -11.6290  -51.1374 H         1 UNK         0.3000 
    131 H131        4.2115  -11.9211  -49.6398 H         1 UNK         0.0600 
    132 H132        1.4052  -13.0373  -49.1331 H         1 UNK         0.0800 
    133 H133        2.8223  -13.4978  -48.2184 H         1 UNK         0.0800 
    134 H134        0.6865  -15.2099  -50.7684 H         1 UNK         0.0800 
    135 H135        1.2669  -15.6259  -49.1687 H         1 UNK         0.0800 
    136 H136        1.3312  -16.6124  -52.7366 H         1 UNK         0.1150 
    137 H137        3.1152  -20.4346  -51.9555 H         1 UNK         0.1150 
    138 H138        2.7274  -17.5670  -48.7974 H         1 UNK         0.1150 
    139 H139        4.4147  -20.6696  -49.8937 H         1 UNK         0.0800 
    140 H140        4.3328  -19.4599  -48.6360 H         1 UNK         0.0800 
    141 H141        4.1958  -21.3117  -46.6194 H         1 UNK         0.0800 
    142 H142        4.6416  -22.2686  -47.9998 H         1 UNK         0.0800 
    143 H143        4.1462  -23.7819  -46.2623 H         1 UNK         0.0600 
    144 H144        1.9123  -22.0776  -45.5429 H         1 UNK         0.3000 
    145 H145        0.6684  -24.3057  -43.0723 H         1 UNK         0.0600 
    146 H146        1.2938  -22.6245  -41.3673 H         1 UNK         0.0600 
    147 H147        2.7161  -23.5344  -41.8497 H         1 UNK         0.0600 
    148 H148        2.4718  -21.9033  -42.4645 H         1 UNK         0.0600 
    149 H149        0.1648  -21.5580  -43.3218 H         1 UNK         0.3000 
    150 H150       -2.0589  -21.5583  -46.0775 H         1 UNK         0.0600 
    151 H151       -3.2962  -22.6224  -44.1305 H         1 UNK         0.0600 
    152 H152       -3.7260  -20.9495  -44.4092 H         1 UNK         0.0600 
    153 H153       -2.6450  -21.3702  -43.0822 H         1 UNK         0.0600 
    154 H154       -1.8724  -19.3962  -44.6972 H         1 UNK         0.3000 
    155 H155        1.2754  -17.9029  -44.8916 H         1 UNK         0.0600 
    156 H156       -1.0707  -17.5311  -46.8282 H         1 UNK         0.0600 
    157 H157        0.6072  -17.8015  -47.2894 H         1 UNK         0.0600 
    158 H158        0.1557  -16.3227  -46.4548 H         1 UNK         0.0600 
    159 H159       -1.3164  -16.8048  -44.4637 H         1 UNK         0.3000 
    160 H160       -1.4725  -17.4034  -40.9339 H         1 UNK         0.0600 
    161 H161       -1.8214  -14.9404  -41.0599 H         1 UNK         0.0600 
    162 H162       -1.0795  -14.8981  -42.6576 H         1 UNK         0.0600 
    163 H163       -0.1257  -15.3558  -41.2553 H         1 UNK         0.0600 
    164 H164       -3.1078  -16.2855  -43.1204 H         1 UNK         0.3000 
    165 H165       -5.2438  -19.0761  -43.3181 H         1 UNK         0.0600 
    166 H166       -7.0840  -17.5558  -42.6371 H         1 UNK         0.0600 
    167 H167       -6.1807  -18.0795  -41.2253 H         1 UNK         0.0600 
    168 H168       -5.9325  -16.4611  -41.8697 H         1 UNK         0.0600 
    169 H169       -5.5075  -16.4051  -44.3001 H         1 UNK         0.3000 
    170 H170       -3.3765  -16.7383  -47.1219 H         1 UNK         0.0600 
    171 H171       -5.5423  -17.8426  -47.7791 H         1 UNK         0.0600 
    172 H172       -6.4332  -16.5733  -46.9539 H         1 UNK         0.0600 
    173 H173       -5.4343  -16.1873  -48.3565 H         1 UNK         0.0600 
    174 H174       -5.0668  -14.6085  -46.3632 H         1 UNK         0.3000 
    175 H175       -4.0819  -12.6424  -45.6639 H         1 UNK         0.0600 
    176 H176       -3.8744  -13.6814  -42.7763 H         1 UNK         0.0600 
    177 H177       -4.5690  -12.1354  -43.2629 H         1 UNK         0.0600 
    178 H178       -5.3450  -13.6349  -43.7412 H         1 UNK         0.0600 
    179 H179       -2.0193  -12.3645  -43.6626 H         1 UNK         0.3000 
    180 H180       -0.3217  -10.8528  -44.2379 H         1 UNK         0.0600 
    181 H181        1.1460  -13.2338  -45.5329 H         1 UNK         0.0600 
    182 H182        0.5228  -13.1962  -43.8879 H         1 UNK         0.0600 
    183 H183        1.8448  -12.1332  -44.3466 H         1 UNK         0.0600 
    184 H184        0.1809  -10.9930  -47.1044 H         1 UNK         0.3000 
    185 H185        0.7680   -8.3659  -47.7442 H         1 UNK         0.0600 
    186 H186        2.4331   -7.0592  -46.4903 H         1 UNK         0.0600 
    187 H187        3.6489   -8.3107  -46.7028 H         1 UNK         0.0600 
    188 H188        3.0552   -7.4070  -48.0949 H         1 UNK         0.0600 
    189 H189        1.4637   -9.8486  -49.2395 H         1 UNK         0.3000 
    190 H190        0.7836  -23.9645  -46.8941 H         1 UNK         0.3000 
    191 H191        1.1644  -26.0325  -48.9948 H         1 UNK         0.0600 
    192 H192       -0.8068  -23.6833  -49.1497 H         1 UNK         0.0600 
    193 H193       -0.6836  -25.0074  -50.3054 H         1 UNK         0.0600 
    194 H194        0.6337  -23.8551  -50.1498 H         1 UNK         0.0600 
    195 H195        0.8720  -26.4041  -46.2600 H         1 UNK         0.3000 
    196 H196       -1.5809  -26.2960  -45.0981 H         1 UNK         0.0600 
    197 H197       -0.6247  -27.9026  -43.4273 H         1 UNK         0.0600 
    198 H198        0.5367  -26.6713  -43.8880 H         1 UNK         0.0600 
    199 H199        0.6702  -28.2994  -44.5514 H         1 UNK         0.0600 
    200 H200       -0.7154  -28.7400  -47.4154 H         1 UNK         0.3000 
    201 H201       -2.6571  -30.7416  -46.7250 H         1 UNK         0.0600 
    202 H202       -0.7072  -31.2175  -48.1856 H         1 UNK         0.0600 
    203 H203       -1.3051  -30.0847  -49.3989 H         1 UNK         0.0600 
    204 H204       -2.2018  -31.5562  -49.0434 H         1 UNK         0.0600 
    205 H205       -2.8276  -27.7042  -48.5118 H         1 UNK         0.3000 
    206 H206       -5.7186  -28.1458  -49.1799 H         1 UNK         0.0600 
    207 H207       -4.3014  -27.6240  -51.1508 H         1 UNK         0.0600 
    208 H208       -5.3696  -26.2751  -50.7958 H         1 UNK         0.0600 
    209 H209       -3.6675  -26.1870  -50.3524 H         1 UNK         0.0600 
    210 H210       -3.3172  -26.0340  -47.6479 H         1 UNK         0.3000 
    211 H211       -3.3173  -24.4644  -46.1388 H         1 UNK         0.0600 
    212 H212       -6.1909  -25.2136  -45.3958 H         1 UNK         0.0600 
    213 H213       -5.0599  -24.3027  -44.4093 H         1 UNK         0.0600 
    214 H214       -4.7405  -25.9922  -44.7627 H         1 UNK         0.0600 
    215 H215       -4.4259  -24.0099  -48.9223 H         1 UNK         0.3000 
    216 H216       -6.0487  -21.5747  -48.6532 H         1 UNK         0.0600 
    217 H217       -5.9822  -21.6386  -51.1563 H         1 UNK         0.0600 
    218 H218       -6.5479  -23.1542  -50.4737 H         1 UNK         0.0600 
    219 H219       -4.9048  -23.0298  -51.0943 H         1 UNK         0.0600 
    220 H220       -2.8057  -22.4501  -49.8967 H         1 UNK         0.3000 
    221 H221       -0.9654  -21.3193  -50.4469 H         1 UNK         0.0600 
    222 H222       -1.6904  -19.7898  -47.8910 H         1 UNK         0.0600 
    223 H223       -0.6830  -21.2278  -48.0316 H         1 UNK         0.0600 
    224 H224       -0.1198  -19.7098  -48.6939 H         1 UNK         0.0600 
    225 H225       -1.7843  -18.2162  -49.2206 H         1 UNK         0.3000 
    226 H226       -1.4788  -16.8363  -51.6429 H         1 UNK         0.0600 
    227 H227       -2.9827  -15.8383  -49.1730 H         1 UNK         0.0600 
    228 H228       -1.2259  -15.9032  -49.2743 H         1 UNK         0.0600 
    229 H229       -2.1381  -14.8755  -50.3699 H         1 UNK         0.0600 
    230 H230       -4.4176  -18.2641  -50.2269 H         1 UNK         0.3000 
    231 H231       -6.2878  -16.8245  -51.9112 H         1 UNK         0.0600 
    232 H232       -7.0028  -17.7639  -49.7443 H         1 UNK         0.0600 
    233 H233       -6.6226  -19.3985  -50.2860 H         1 UNK         0.0600 
    234 H234       -7.9222  -18.4943  -51.0454 H         1 UNK         0.0600 
    235 H235       -4.2437  -19.6318  -52.3926 H         1 UNK         0.3000 
    236 H236       -5.7176  -20.5165  -54.8154 H         1 UNK         0.0600 
    237 H237       -3.9438  -22.2866  -54.8765 H         1 UNK         0.0600 
    238 H238       -3.2440  -21.6390  -53.3994 H         1 UNK         0.0600 
    239 H239       -4.8732  -22.3153  -53.3907 H         1 UNK         0.0600 
    240 H240       -2.5780  -19.1140  -53.7750 H         1 UNK         0.3000 
    241 H241       -1.5300  -18.8038  -56.4041 H         1 UNK         0.0600 
    242 H242       -3.5829  -15.3039  -55.7884 H         1 UNK         0.3800 
    243 H243       -3.5300  -16.4496  -54.4747 H         1 UNK         0.3800 
    244 H244        0.1918  -17.3395  -55.2762 H         1 UNK         0.0800 
    245 H245       -0.7081  -17.4744  -53.7828 H         1 UNK         0.0800 
    246 H246        2.7525  -19.7429  -54.2172 H         1 UNK         0.0800 
    247 H247        2.3038  -18.1079  -54.6037 H         1 UNK         0.0800 
@<TRIPOS>BOND
     1    1    2 1    
     2    1  127 1    
     3    1  128 1    
     4    1  129 1    
     5    2    3 2    
     6    2    4 am   BACKBONE|DICT|INTERRES
     7    4    5 1    
     8    4  130 1    
     9    5    6 1    
    10    5   65 1    
    11    5  131 1    
    12    6    7 1    
    13    6  132 1    
    14    6  133 1    
    15    7    8 1    
    16    8    9 1    
    17    8  134 1    
    18    8  135 1    
    19    9   10 ar   
    20    9   14 ar   
    21   10   11 ar   
    22   10  136 1    
    23   11   12 ar   
    24   11  126 1    
    25   12   13 ar   
    26   12  137 1    
    27   13   14 ar   
    28   13   15 1    
    29   14  138 1    
    30   15   16 1    
    31   15  139 1    
    32   15  140 1    
    33   16   17 1    
    34   17   18 1    
    35   17  141 1    
    36   17  142 1    
    37   18   19 1    
    38   18   67 1    
    39   18  143 1    
    40   19   20 am   BACKBONE|DICT|INTERRES
    41   19  144 1    
    42   20   21 2    
    43   20   22 1    
    44   22   23 1    
    45   22   24 1    
    46   22  145 1    
    47   23  146 1    
    48   23  147 1    
    49   23  148 1    
    50   24   25 am   BACKBONE|DICT|INTERRES
    51   24  149 1    
    52   25   26 2    
    53   25   27 1    
    54   27   28 1    
    55   27   29 1    
    56   27  150 1    
    57   28  151 1    
    58   28  152 1    
    59   28  153 1    
    60   29   30 am   BACKBONE|DICT|INTERRES
    61   29  154 1    
    62   30   31 2    
    63   30   32 1    
    64   32   33 1    
    65   32   34 1    
    66   32  155 1    
    67   33  156 1    
    68   33  157 1    
    69   33  158 1    
    70   34   35 am   BACKBONE|DICT|INTERRES
    71   34  159 1    
    72   35   36 2    
    73   35   37 1    
    74   37   38 1    
    75   37   39 1    
    76   37  160 1    
    77   38  161 1    
    78   38  162 1    
    79   38  163 1    
    80   39   40 am   BACKBONE|DICT|INTERRES
    81   39  164 1    
    82   40   41 2    
    83   40   42 1    
    84   42   43 1    
    85   42   44 1    
    86   42  165 1    
    87   43  166 1    
    88   43  167 1    
    89   43  168 1    
    90   44   45 am   BACKBONE|DICT|INTERRES
    91   44  169 1    
    92   45   46 2    
    93   45   47 1    
    94   47   48 1    
    95   47   49 1    
    96   47  170 1    
    97   48  171 1    
    98   48  172 1    
    99   48  173 1    
   100   49   50 am   BACKBONE|DICT|INTERRES
   101   49  174 1    
   102   50   51 2    
   103   50   52 1    
   104   52   53 1    
   105   52   54 1    
   106   52  175 1    
   107   53  176 1    
   108   53  177 1    
   109   53  178 1    
   110   54   55 am   BACKBONE|DICT|INTERRES
   111   54  179 1    
   112   55   56 2    
   113   55   57 1    
   114   57   58 1    
   115   57   59 1    
   116   57  180 1    
   117   58  181 1    
   118   58  182 1    
   119   58  183 1    
   120   59   60 am   BACKBONE|DICT|INTERRES
   121   59  184 1    
   122   60   61 2    
   123   60   62 1    
   124   62   63 1    
   125   62   64 1    
   126   62  185 1    
   127   63  186 1    
   128   63  187 1    
   129   63  188 1    
   130   64   65 am   BACKBONE|DICT|INTERRES
   131   64  189 1    
   132   65   66 2    
   133   67   68 2    
   134   67   69 am   BACKBONE|DICT|INTERRES
   135   69   70 1    
   136   69  190 1    
   137   70   71 1    
   138   70   72 1    
   139   70  191 1    
   140   71  192 1    
   141   71  193 1    
   142   71  194 1    
   143   72   73 2    
   144   72   74 am   BACKBONE|DICT|INTERRES
   145   74   75 1    
   146   74  195 1    
   147   75   76 1    
   148   75   77 1    
   149   75  196 1    
   150   76  197 1    
   151   76  198 1    
   152   76  199 1    
   153   77   78 2    
   154   77   79 am   BACKBONE|DICT|INTERRES
   155   79   80 1    
   156   79  200 1    
   157   80   81 1    
   158   80   82 1    
   159   80  201 1    
   160   81  202 1    
   161   81  203 1    
   162   81  204 1    
   163   82   83 2    
   164   82   84 am   BACKBONE|DICT|INTERRES
   165   84   85 1    
   166   84  205 1    
   167   85   86 1    
   168   85   87 1    
   169   85  206 1    
   170   86  207 1    
   171   86  208 1    
   172   86  209 1    
   173   87   88 2    
   174   87   89 am   BACKBONE|DICT|INTERRES
   175   89   90 1    
   176   89  210 1    
   177   90   91 1    
   178   90   92 1    
   179   90  211 1    
   180   91  212 1    
   181   91  213 1    
   182   91  214 1    
   183   92   93 2    
   184   92   94 am   BACKBONE|DICT|INTERRES
   185   94   95 1    
   186   94  215 1    
   187   95   96 1    
   188   95   97 1    
   189   95  216 1    
   190   96  217 1    
   191   96  218 1    
   192   96  219 1    
   193   97   98 2    
   194   97   99 am   BACKBONE|DICT|INTERRES
   195   99  100 1    
   196   99  220 1    
   197  100  101 1    
   198  100  102 1    
   199  100  221 1    
   200  101  222 1    
   201  101  223 1    
   202  101  224 1    
   203  102  103 2    
   204  102  104 am   BACKBONE|DICT|INTERRES
   205  104  105 1    
   206  104  225 1    
   207  105  106 1    
   208  105  107 1    
   209  105  226 1    
   210  106  227 1    
   211  106  228 1    
   212  106  229 1    
   213  107  108 2    
   214  107  109 am   BACKBONE|DICT|INTERRES
   215  109  110 1    
   216  109  230 1    
   217  110  111 1    
   218  110  112 1    
   219  110  231 1    
   220  111  232 1    
   221  111  233 1    
   222  111  234 1    
   223  112  113 2    
   224  112  114 am   BACKBONE|DICT|INTERRES
   225  114  115 1    
   226  114  235 1    
   227  115  116 1    
   228  115  117 1    
   229  115  236 1    
   230  116  237 1    
   231  116  238 1    
   232  116  239 1    
   233  117  118 2    
   234  117  119 am   BACKBONE|DICT|INTERRES
   235  119  120 1    
   236  119  240 1    
   237  120  121 1    
   238  120  124 1    
   239  120  241 1    
   240  121  122 am   BACKBONE|DICT|INTERRES
   241  121  123 2    
   242  122  242 1    
   243  122  243 1    
   244  124  125 1    
   245  124  244 1    
   246  124  245 1    
   247  125  126 1    
   248  126  246 1    
   249  126  247 1    
@<TRIPOS>SUBSTRUCTURE
     1 UNK         1 GROUP             0       ****    0 ROOT    
