@<TRIPOS>MOLECULE
3R540
247   249    1
SMALL
USER_CHARGES


@<TRIPOS>ATOM
      1 CA          6.3134  -11.9030  -52.3307 C.3       0 UNK        -0.1800 
      2 C           4.9920  -12.0700  -51.5925 C.2       0 UNK         0.5000 
      3 O           3.9599  -11.6207  -52.0914 O.2       0 UNK        -0.5000 
      4 N           5.0351  -12.7183  -50.4194 N.am      1 UNK        -0.5000 
      5 CA          3.9242  -12.9885  -49.4922 C.3       1 UNK         0.1400 
      6 C6          2.7262  -13.7455  -50.1333 C.3       23 UNK        -0.0398 
      7 S7          3.2025  -15.3789  -50.7985 S.3       23 UNK        -0.2404 
      8 C8          2.8029  -16.4773  -49.3995 C.3       23 UNK        -0.0205 
      9 C9          2.0240  -17.7086  -49.8391 C.ar      23 UNK        -0.0193 
     10 C10         0.7592  -17.5729  -50.4202 C.ar      23 UNK        -0.1150 
     11 C11         0.0057  -18.6995  -50.7607 C.ar      23 UNK        -0.0193 
     12 C12         0.5329  -19.9726  -50.5210 C.ar      23 UNK        -0.1150 
     13 C13         1.8052  -20.1253  -49.9592 C.ar      23 UNK        -0.0193 
     14 C14         2.5475  -18.9871  -49.6272 C.ar      23 UNK        -0.1150 
     15 C15         2.3710  -21.5234  -49.7244 C.3       23 UNK        -0.0205 
     16 S16         3.0084  -21.8016  -48.0323 S.3       23 UNK        -0.2404 
     17 C17         1.5901  -21.3303  -46.9847 C.3       23 UNK        -0.0398 
     18 CA          0.6981  -22.5132  -46.5381 C.3       11 UNK         0.1400 
     19 N          -0.1909  -22.1092  -45.4460 N.am      11 UNK        -0.5000 
     20 C          -1.0490  -22.9043  -44.7922 C.2       10 UNK         0.5000 
     21 O          -1.1450  -24.1170  -44.9778 O.2       10 UNK        -0.5000 
     22 CA         -1.9977  -22.2112  -43.7993 C.3       10 UNK         0.1400 
     23 CB         -1.3076  -21.9816  -42.4465 C.3       10 UNK        -0.1800 
     24 N          -2.4973  -20.9388  -44.3235 N.am      10 UNK        -0.5000 
     25 C          -3.3791  -20.8320  -45.3282 C.2       9 UNK         0.5000 
     26 O          -3.8932  -21.7984  -45.8903 O.2       9 UNK        -0.5000 
     27 CA         -3.7107  -19.4079  -45.8139 C.3       9 UNK         0.1400 
     28 CB         -4.7902  -18.7675  -44.9295 C.3       9 UNK        -0.1800 
     29 N          -2.5373  -18.5341  -45.8590 N.am      9 UNK        -0.5000 
     30 C          -1.4913  -18.7299  -46.6733 C.2       8 UNK         0.5000 
     31 O          -1.4047  -19.6756  -47.4533 O.2       8 UNK        -0.5000 
     32 CA         -0.3204  -17.7397  -46.5493 C.3       8 UNK         0.1400 
     33 CB         -0.6210  -16.4501  -47.3200 C.3       8 UNK        -0.1800 
     34 N           0.0219  -17.3911  -45.1700 N.am      8 UNK        -0.5000 
     35 C           0.3668  -18.2569  -44.2053 C.2       7 UNK         0.5000 
     36 O           0.3207  -19.4810  -44.3391 O.2       7 UNK        -0.5000 
     37 CA          0.8540  -17.6358  -42.8787 C.3       7 UNK         0.1400 
     38 CB          1.5797  -18.6457  -41.9664 C.3       7 UNK        -0.1800 
     39 N           1.6741  -16.4394  -43.0974 N.am      7 UNK        -0.5000 
     40 C           2.8263  -16.3517  -43.7831 C.2       6 UNK         0.5000 
     41 O           3.4313  -17.3241  -44.2353 O.2       6 UNK        -0.5000 
     42 CA          3.3861  -14.9386  -44.0431 C.3       6 UNK         0.1400 
     43 CB          3.4349  -14.6496  -45.5529 C.3       6 UNK        -0.1800 
     44 N           2.5860  -13.8977  -43.3936 N.am      6 UNK        -0.5000 
     45 C           2.8469  -13.3713  -42.1890 C.2       5 UNK         0.5000 
     46 O           3.8540  -13.6351  -41.5317 O.2       5 UNK        -0.5000 
     47 CA          1.7931  -12.4117  -41.6005 C.3       5 UNK         0.1400 
     48 CB          2.2155  -10.9482  -41.7966 C.3       5 UNK        -0.1800 
     49 N           0.4531  -12.6178  -42.1600 N.am      5 UNK        -0.5000 
     50 C          -0.3261  -13.6701  -41.8660 C.2       4 UNK         0.5000 
     51 O           0.0097  -14.5650  -41.0907 O.2       4 UNK        -0.5000 
     52 CA         -1.6830  -13.7817  -42.5884 C.3       4 UNK         0.1400 
     53 CB         -2.7953  -13.1437  -41.7434 C.3       4 UNK        -0.1800 
     54 N          -1.7003  -13.1908  -43.9273 N.am      4 UNK        -0.5000 
     55 C          -0.9259  -13.5691  -44.9521 C.2       3 UNK         0.5000 
     56 O          -0.0827  -14.4658  -44.8673 O.2       3 UNK        -0.5000 
     57 CA         -1.0814  -12.8024  -46.2843 C.3       3 UNK         0.1400 
     58 CB         -2.1963  -11.7325  -46.2745 C.3       3 UNK        -0.1800 
     59 N           0.1862  -12.2072  -46.7204 N.am      3 UNK        -0.5000 
     60 C           0.9673  -11.3722  -46.0165 C.2       2 UNK         0.5000 
     61 O           0.6990  -10.9878  -44.8771 O.2       2 UNK        -0.5000 
     62 CA          2.2724  -10.9145  -46.6951 C.3       2 UNK         0.1400 
     63 CB          3.3655  -10.5243  -45.6806 C.3       2 UNK        -0.1800 
     64 N           2.7805  -11.9496  -47.5990 N.am      2 UNK        -0.5000 
     65 C           3.4598  -11.7241  -48.7302 C.2       1 UNK         0.5000 
     66 O           3.7254  -10.5932  -49.1445 O.2       1 UNK        -0.5000 
     67 C          -0.0972  -23.1133  -47.7168 C.2       11 UNK         0.5000 
     68 O           0.2324  -24.2045  -48.1830 O.2       11 UNK        -0.5000 
     69 N          -1.1569  -22.4109  -48.1416 N.am      12 UNK        -0.5000 
     70 CA         -2.0906  -22.8590  -49.1690 C.3       12 UNK         0.1400 
     71 CB         -3.0805  -21.7392  -49.5005 C.3       12 UNK        -0.1800 
     72 C          -2.8426  -24.1337  -48.7646 C.2       12 UNK         0.5000 
     73 O          -2.9020  -25.0654  -49.5639 O.2       12 UNK        -0.5000 
     74 N          -3.3805  -24.1741  -47.5361 N.am      13 UNK        -0.5000 
     75 CA         -4.0998  -25.3232  -46.9772 C.3       13 UNK         0.1400 
     76 CB         -4.6590  -24.9714  -45.5917 C.3       13 UNK        -0.1800 
     77 C          -3.2441  -26.6013  -46.9128 C.2       13 UNK         0.5000 
     78 O          -3.7236  -27.6687  -47.2966 O.2       13 UNK        -0.5000 
     79 N          -1.9755  -26.4605  -46.5025 N.am      14 UNK        -0.5000 
     80 CA         -0.9721  -27.5299  -46.4977 C.3       14 UNK         0.1400 
     81 CB          0.2933  -27.0301  -45.7847 C.3       14 UNK        -0.1800 
     82 C          -0.6276  -28.0585  -47.9063 C.2       14 UNK         0.5000 
     83 O          -0.2341  -29.2173  -48.0403 O.2       14 UNK        -0.5000 
     84 N          -0.8168  -27.2150  -48.9279 N.am      15 UNK        -0.5000 
     85 CA         -0.6626  -27.5282  -50.3473 C.3       15 UNK         0.1400 
     86 CB         -0.0134  -26.3172  -51.0394 C.3       15 UNK        -0.1800 
     87 C          -1.9991  -27.9336  -51.0119 C.2       15 UNK         0.5000 
     88 O          -2.0932  -27.9025  -52.2388 O.2       15 UNK        -0.5000 
     89 N          -3.0024  -28.3137  -50.2044 N.am      16 UNK        -0.5000 
     90 CA         -4.3468  -28.7581  -50.5928 C.3       16 UNK         0.1400 
     91 CB         -4.2938  -30.0274  -51.4702 C.3       16 UNK        -0.1800 
     92 C          -5.2077  -27.6273  -51.1938 C.2       16 UNK         0.5000 
     93 O          -5.8991  -27.8308  -52.1932 O.2       16 UNK        -0.5000 
     94 N          -5.1545  -26.4584  -50.5419 N.am      17 UNK        -0.5000 
     95 CA         -5.8732  -25.2152  -50.8424 C.3       17 UNK         0.1400 
     96 CB         -7.4018  -25.4115  -50.7697 C.3       17 UNK        -0.1800 
     97 C          -5.4021  -24.5415  -52.1469 C.2       17 UNK         0.5000 
     98 O          -6.2028  -23.9115  -52.8408 O.2       17 UNK        -0.5000 
     99 N          -4.1034  -24.6702  -52.4503 N.am      18 UNK        -0.5000 
    100 CA        -3.4535  -24.0876  -53.6229 C.3       18 UNK         0.1400 
    101 CB        -2.0445  -24.6814  -53.7728 C.3       18 UNK        -0.1800 
    102 C         -3.4052  -22.5517  -53.5311 C.2       18 UNK         0.5000 
    103 O         -2.5898  -22.0136  -52.7810 O.2       18 UNK        -0.5000 
    104 N         -4.2953  -21.8903  -54.2852 N.am      19 UNK        -0.5000 
    105 CA        -4.4723  -20.4360  -54.3774 C.3       19 UNK         0.1400 
    106 CB        -3.2373  -19.7755  -55.0267 C.3       19 UNK        -0.1800 
    107 C         -4.8635  -19.7815  -53.0351 C.2       19 UNK         0.5000 
    108 O         -4.4424  -18.6590  -52.7582 O.2       19 UNK        -0.5000 
    109 N         -5.6864  -20.4855  -52.2400 N.am      20 UNK        -0.5000 
    110 CA        -6.0827  -20.1558  -50.8614 C.3       20 UNK         0.1400 
    111 CB        -6.9598  -21.2910  -50.3114 C.3       20 UNK        -0.1800 
    112 C         -6.7502  -18.7832  -50.6301 C.2       20 UNK         0.5000 
    113 O         -6.8700  -18.3614  -49.4782 O.2       20 UNK        -0.5000 
    114 N         -7.1113  -18.0768  -51.7100 N.am      21 UNK        -0.5000 
    115 CA        -7.5080  -16.6655  -51.7205 C.3       21 UNK         0.1400 
    116 CB        -7.8654  -16.2657  -53.1603 C.3       21 UNK        -0.1800 
    117 C         -6.4420  -15.7059  -51.1405 C.2       21 UNK         0.5000 
    118 O         -6.7915  -14.5941  -50.7420 O.2       21 UNK        -0.5000 
    119 N         -5.1797  -16.1548  -51.0704 N.am      22 UNK        -0.5000 
    120 CA        -4.0914  -15.5169  -50.3127 C.3       22 UNK         0.1400 
    121 C         -4.3114  -15.4333  -48.7693 C.2       22 UNK         0.5000 
    122 N         -5.2140  -16.2077  -48.1756 N.am      22 UNK        -0.7600 
    123 O         -3.6574  -14.6371  -48.1020 O.2       22 UNK        -0.5000 
    124 C124       -2.7172  -16.1516  -50.6520 C.3       23 UNK        -0.0398 
    125 S125       -2.6107  -17.9277  -50.2194 S.3       23 UNK        -0.2404 
    126 C126       -1.3682  -18.5456  -51.4005 C.3       23 UNK        -0.0205 
    127 H127        7.1439  -12.3526  -51.7859 H         1 UNK         0.0600 
    128 H128        6.5329  -10.8446  -52.4716 H         1 UNK         0.0600 
    129 H129        6.2568  -12.3741  -53.3121 H         1 UNK         0.0600 
    130 H130        5.9354  -13.0364  -50.0898 H         1 UNK         0.3000 
    131 H131        4.3520  -13.6459  -48.7331 H         1 UNK         0.0600 
    132 H132        1.9146  -13.8813  -49.4179 H         1 UNK         0.0800 
    133 H133        2.2872  -13.1646  -50.9446 H         1 UNK         0.0800 
    134 H134        3.7349  -16.7627  -48.9092 H         1 UNK         0.0800 
    135 H135        2.2166  -15.9560  -48.6437 H         1 UNK         0.0800 
    136 H136        0.3546  -16.5864  -50.5949 H         1 UNK         0.1150 
    137 H137       -0.0493  -20.8464  -50.7791 H         1 UNK         0.1150 
    138 H138        3.5270  -19.1009  -49.1844 H         1 UNK         0.1150 
    139 H139        1.6208  -22.2837  -49.9458 H         1 UNK         0.0800 
    140 H140        3.1843  -21.6892  -50.4318 H         1 UNK         0.0800 
    141 H141        1.0005  -20.5590  -47.4758 H         1 UNK         0.0800 
    142 H142        2.0129  -20.8472  -46.1026 H         1 UNK         0.0800 
    143 H143        1.3443  -23.2993  -46.1421 H         1 UNK         0.0600 
    144 H144       -0.1585  -21.1279  -45.1825 H         1 UNK         0.3000 
    145 H145       -2.8515  -22.8709  -43.6332 H         1 UNK         0.0600 
    146 H146       -1.9871  -21.5211  -41.7293 H         1 UNK         0.0600 
    147 H147       -0.9730  -22.9267  -42.0170 H         1 UNK         0.0600 
    148 H148       -0.4325  -21.3389  -42.5413 H         1 UNK         0.0600 
    149 H149       -2.0710  -20.0988  -43.9608 H         1 UNK         0.3000 
    150 H150       -4.1060  -19.4878  -46.8292 H         1 UNK         0.0600 
    151 H151       -5.6852  -19.3903  -44.8955 H         1 UNK         0.0600 
    152 H152       -5.0890  -17.7931  -45.3160 H         1 UNK         0.0600 
    153 H153       -4.4448  -18.6316  -43.9040 H         1 UNK         0.0600 
    154 H154       -2.5251  -17.7411  -45.2357 H         1 UNK         0.3000 
    155 H155        0.5596  -18.2056  -46.9969 H         1 UNK         0.0600 
    156 H156        0.2152  -15.7532  -47.2760 H         1 UNK         0.0600 
    157 H157       -1.5047  -15.9483  -46.9266 H         1 UNK         0.0600 
    158 H158       -0.8090  -16.6626  -48.3682 H         1 UNK         0.0600 
    159 H159        0.0827  -16.3967  -44.9693 H         1 UNK         0.3000 
    160 H160       -0.0408  -17.3003  -42.3528 H         1 UNK         0.0600 
    161 H161        2.4447  -19.0906  -42.4589 H         1 UNK         0.0600 
    162 H162        0.9141  -19.4597  -41.6789 H         1 UNK         0.0600 
    163 H163        1.9236  -18.1700  -41.0479 H         1 UNK         0.0600 
    164 H164        1.2748  -15.5781  -42.7507 H         1 UNK         0.3000 
    165 H165        4.4094  -14.9208  -43.6626 H         1 UNK         0.0600 
    166 H166        2.4362  -14.6224  -45.9897 H         1 UNK         0.0600 
    167 H167        3.9259  -13.6969  -45.7457 H         1 UNK         0.0600 
    168 H168        4.0040  -15.4141  -46.0837 H         1 UNK         0.0600 
    169 H169        1.7156  -13.6547  -43.8503 H         1 UNK         0.3000 
    170 H170        1.7447  -12.6018  -40.5261 H         1 UNK         0.0600 
    171 H171        3.1747  -10.7528  -41.3158 H         1 UNK         0.0600 
    172 H172        2.3236  -10.6955  -42.8502 H         1 UNK         0.0600 
    173 H173        1.4878  -10.2643  -41.3596 H         1 UNK         0.0600 
    174 H174        0.1417  -11.9479  -42.8532 H         1 UNK         0.3000 
    175 H175       -1.9054  -14.8452  -42.6976 H         1 UNK         0.0600 
    176 H176       -2.6456  -12.0695  -41.6267 H         1 UNK         0.0600 
    177 H177       -3.7745  -13.2999  -42.1963 H         1 UNK         0.0600 
    178 H178       -2.8276  -13.5812  -40.7446 H         1 UNK         0.0600 
    179 H179       -2.3451  -12.4278  -44.0735 H         1 UNK         0.3000 
    180 H180       -1.3482  -13.5462  -47.0349 H         1 UNK         0.0600 
    181 H181       -2.0055  -10.9415  -45.5482 H         1 UNK         0.0600 
    182 H182       -3.1666  -12.1758  -46.0465 H         1 UNK         0.0600 
    183 H183       -2.2881  -11.2624  -47.2537 H         1 UNK         0.0600 
    184 H184        0.4787  -12.4508  -47.6547 H         1 UNK         0.3000 
    185 H185        2.0108  -10.0270  -47.2750 H         1 UNK         0.0600 
    186 H186        4.2765  -10.2009  -46.1839 H         1 UNK         0.0600 
    187 H187        3.0379   -9.6971  -45.0499 H         1 UNK         0.0600 
    188 H188        3.6219  -11.3574  -45.0255 H         1 UNK         0.0600 
    189 H189        2.6183  -12.9002  -47.3007 H         1 UNK         0.3000 
    190 H190       -1.3286  -21.4876  -47.7470 H         1 UNK         0.3000 
    191 H191       -1.5160  -23.0803  -50.0710 H         1 UNK         0.0600 
    192 H192       -2.5605  -20.8644  -49.8867 H         1 UNK         0.0600 
    193 H193       -3.7836  -22.0634  -50.2680 H         1 UNK         0.0600 
    194 H194       -3.6559  -21.4288  -48.6282 H         1 UNK         0.0600 
    195 H195       -3.3263  -23.3473  -46.9478 H         1 UNK         0.3000 
    196 H196       -4.9465  -25.5287  -47.6348 H         1 UNK         0.0600 
    197 H197       -5.2113  -25.8111  -45.1682 H         1 UNK         0.0600 
    198 H198       -5.3459  -24.1269  -45.6467 H         1 UNK         0.0600 
    199 H199       -3.8652  -24.7138  -44.8909 H         1 UNK         0.0600 
    200 H200       -1.6679  -25.5508  -46.1674 H         1 UNK         0.3000 
    201 H201       -1.3791  -28.3658  -45.9254 H         1 UNK         0.0600 
    202 H202        0.0759  -26.7329  -44.7586 H         1 UNK         0.0600 
    203 H203        0.7288  -26.1708  -46.2959 H         1 UNK         0.0600 
    204 H204        1.0547  -27.8099  -45.7435 H         1 UNK         0.0600 
    205 H205       -1.1517  -26.2817  -48.7225 H         1 UNK         0.3000 
    206 H206        0.0136  -28.3772  -50.4636 H         1 UNK         0.0600 
    207 H207        0.9594  -26.0925  -50.6017 H         1 UNK         0.0600 
    208 H208        0.1454  -26.5004  -52.1026 H         1 UNK         0.0600 
    209 H209       -0.6299  -25.4242  -50.9429 H         1 UNK         0.0600 
    210 H210       -2.8452  -28.2599  -49.2052 H         1 UNK         0.3000 
    211 H211       -4.8415  -29.0382  -49.6616 H         1 UNK         0.0600 
    212 H212       -3.8796  -29.8255  -52.4582 H         1 UNK         0.0600 
    213 H213       -5.2927  -30.4397  -51.6166 H         1 UNK         0.0600 
    214 H214       -3.6884  -30.8045  -51.0037 H         1 UNK         0.0600 
    215 H215       -4.4508  -26.3693  -49.8179 H         1 UNK         0.3000 
    216 H216       -5.6071  -24.5228  -50.0435 H         1 UNK         0.0600 
    217 H217       -7.6952  -25.8795  -49.8302 H         1 UNK         0.0600 
    218 H218       -7.7718  -26.0324  -51.5857 H         1 UNK         0.0600 
    219 H219       -7.9211  -24.4543  -50.8296 H         1 UNK         0.0600 
    220 H220       -3.5086  -25.1618  -51.7961 H         1 UNK         0.3000 
    221 H221       -4.0284  -24.3723  -54.5066 H         1 UNK         0.0600 
    222 H222       -1.4175  -24.4523  -52.9117 H         1 UNK         0.0600 
    223 H223       -2.0813  -25.7645  -53.8865 H         1 UNK         0.0600 
    224 H224       -1.5455  -24.2795  -54.6553 H         1 UNK         0.0600 
    225 H225       -4.9525  -22.4386  -54.8235 H         1 UNK         0.3000 
    226 H226       -5.3183  -20.2740  -55.0465 H         1 UNK         0.0600 
    227 H227       -2.3596  -19.8359  -54.3824 H         1 UNK         0.0600 
    228 H228       -2.9898  -20.2489  -55.9767 H         1 UNK         0.0600 
    229 H229       -3.4193  -18.7195  -55.2296 H         1 UNK         0.0600 
    230 H230       -5.9878  -21.3904  -52.5762 H         1 UNK         0.3000 
    231 H231       -5.1654  -20.1232  -50.2735 H         1 UNK         0.0600 
    232 H232       -7.2677  -21.0925  -49.2839 H         1 UNK         0.0600 
    233 H233       -6.4186  -22.2356  -50.3045 H         1 UNK         0.0600 
    234 H234       -7.8636  -21.4240  -50.9071 H         1 UNK         0.0600 
    235 H235       -6.9430  -18.4970  -52.6117 H         1 UNK         0.3000 
    236 H236       -8.4024  -16.5692  -51.1020 H         1 UNK         0.0600 
    237 H237       -8.6753  -16.8812  -53.5522 H         1 UNK         0.0600 
    238 H238       -8.1961  -15.2273  -53.2077 H         1 UNK         0.0600 
    239 H239       -7.0094  -16.3689  -53.8286 H         1 UNK         0.0600 
    240 H240       -4.9647  -17.0666  -51.4604 H         1 UNK         0.3000 
    241 H241       -4.0524  -14.4809  -50.6541 H         1 UNK         0.0600 
    242 H242       -5.7544  -16.8844  -48.7036 H         1 UNK         0.3800 
    243 H243       -5.3525  -16.1243  -47.1828 H         1 UNK         0.3800 
    244 H244       -1.9117  -15.6118  -50.1531 H         1 UNK         0.0800 
    245 H245       -2.5325  -16.0358  -51.7204 H         1 UNK         0.0800 
    246 H246       -1.7159  -19.5068  -51.7823 H         1 UNK         0.0800 
    247 H247       -1.3001  -17.8915  -52.2699 H         1 UNK         0.0800 
@<TRIPOS>BOND
     1    1    2 1    
     2    1  127 1    
     3    1  128 1    
     4    1  129 1    
     5    2    3 2    
     6    2    4 am   BACKBONE|DICT|INTERRES
     7    4    5 1    
     8    4  130 1    
     9    5    6 1    
    10    5   65 1    
    11    5  131 1    
    12    6    7 1    
    13    6  132 1    
    14    6  133 1    
    15    7    8 1    
    16    8    9 1    
    17    8  134 1    
    18    8  135 1    
    19    9   10 ar   
    20    9   14 ar   
    21   10   11 ar   
    22   10  136 1    
    23   11   12 ar   
    24   11  126 1    
    25   12   13 ar   
    26   12  137 1    
    27   13   14 ar   
    28   13   15 1    
    29   14  138 1    
    30   15   16 1    
    31   15  139 1    
    32   15  140 1    
    33   16   17 1    
    34   17   18 1    
    35   17  141 1    
    36   17  142 1    
    37   18   19 1    
    38   18   67 1    
    39   18  143 1    
    40   19   20 am   BACKBONE|DICT|INTERRES
    41   19  144 1    
    42   20   21 2    
    43   20   22 1    
    44   22   23 1    
    45   22   24 1    
    46   22  145 1    
    47   23  146 1    
    48   23  147 1    
    49   23  148 1    
    50   24   25 am   BACKBONE|DICT|INTERRES
    51   24  149 1    
    52   25   26 2    
    53   25   27 1    
    54   27   28 1    
    55   27   29 1    
    56   27  150 1    
    57   28  151 1    
    58   28  152 1    
    59   28  153 1    
    60   29   30 am   BACKBONE|DICT|INTERRES
    61   29  154 1    
    62   30   31 2    
    63   30   32 1    
    64   32   33 1    
    65   32   34 1    
    66   32  155 1    
    67   33  156 1    
    68   33  157 1    
    69   33  158 1    
    70   34   35 am   BACKBONE|DICT|INTERRES
    71   34  159 1    
    72   35   36 2    
    73   35   37 1    
    74   37   38 1    
    75   37   39 1    
    76   37  160 1    
    77   38  161 1    
    78   38  162 1    
    79   38  163 1    
    80   39   40 am   BACKBONE|DICT|INTERRES
    81   39  164 1    
    82   40   41 2    
    83   40   42 1    
    84   42   43 1    
    85   42   44 1    
    86   42  165 1    
    87   43  166 1    
    88   43  167 1    
    89   43  168 1    
    90   44   45 am   BACKBONE|DICT|INTERRES
    91   44  169 1    
    92   45   46 2    
    93   45   47 1    
    94   47   48 1    
    95   47   49 1    
    96   47  170 1    
    97   48  171 1    
    98   48  172 1    
    99   48  173 1    
   100   49   50 am   BACKBONE|DICT|INTERRES
   101   49  174 1    
   102   50   51 2    
   103   50   52 1    
   104   52   53 1    
   105   52   54 1    
   106   52  175 1    
   107   53  176 1    
   108   53  177 1    
   109   53  178 1    
   110   54   55 am   BACKBONE|DICT|INTERRES
   111   54  179 1    
   112   55   56 2    
   113   55   57 1    
   114   57   58 1    
   115   57   59 1    
   116   57  180 1    
   117   58  181 1    
   118   58  182 1    
   119   58  183 1    
   120   59   60 am   BACKBONE|DICT|INTERRES
   121   59  184 1    
   122   60   61 2    
   123   60   62 1    
   124   62   63 1    
   125   62   64 1    
   126   62  185 1    
   127   63  186 1    
   128   63  187 1    
   129   63  188 1    
   130   64   65 am   BACKBONE|DICT|INTERRES
   131   64  189 1    
   132   65   66 2    
   133   67   68 2    
   134   67   69 am   BACKBONE|DICT|INTERRES
   135   69   70 1    
   136   69  190 1    
   137   70   71 1    
   138   70   72 1    
   139   70  191 1    
   140   71  192 1    
   141   71  193 1    
   142   71  194 1    
   143   72   73 2    
   144   72   74 am   BACKBONE|DICT|INTERRES
   145   74   75 1    
   146   74  195 1    
   147   75   76 1    
   148   75   77 1    
   149   75  196 1    
   150   76  197 1    
   151   76  198 1    
   152   76  199 1    
   153   77   78 2    
   154   77   79 am   BACKBONE|DICT|INTERRES
   155   79   80 1    
   156   79  200 1    
   157   80   81 1    
   158   80   82 1    
   159   80  201 1    
   160   81  202 1    
   161   81  203 1    
   162   81  204 1    
   163   82   83 2    
   164   82   84 am   BACKBONE|DICT|INTERRES
   165   84   85 1    
   166   84  205 1    
   167   85   86 1    
   168   85   87 1    
   169   85  206 1    
   170   86  207 1    
   171   86  208 1    
   172   86  209 1    
   173   87   88 2    
   174   87   89 am   BACKBONE|DICT|INTERRES
   175   89   90 1    
   176   89  210 1    
   177   90   91 1    
   178   90   92 1    
   179   90  211 1    
   180   91  212 1    
   181   91  213 1    
   182   91  214 1    
   183   92   93 2    
   184   92   94 am   BACKBONE|DICT|INTERRES
   185   94   95 1    
   186   94  215 1    
   187   95   96 1    
   188   95   97 1    
   189   95  216 1    
   190   96  217 1    
   191   96  218 1    
   192   96  219 1    
   193   97   98 2    
   194   97   99 am   BACKBONE|DICT|INTERRES
   195   99  100 1    
   196   99  220 1    
   197  100  101 1    
   198  100  102 1    
   199  100  221 1    
   200  101  222 1    
   201  101  223 1    
   202  101  224 1    
   203  102  103 2    
   204  102  104 am   BACKBONE|DICT|INTERRES
   205  104  105 1    
   206  104  225 1    
   207  105  106 1    
   208  105  107 1    
   209  105  226 1    
   210  106  227 1    
   211  106  228 1    
   212  106  229 1    
   213  107  108 2    
   214  107  109 am   BACKBONE|DICT|INTERRES
   215  109  110 1    
   216  109  230 1    
   217  110  111 1    
   218  110  112 1    
   219  110  231 1    
   220  111  232 1    
   221  111  233 1    
   222  111  234 1    
   223  112  113 2    
   224  112  114 am   BACKBONE|DICT|INTERRES
   225  114  115 1    
   226  114  235 1    
   227  115  116 1    
   228  115  117 1    
   229  115  236 1    
   230  116  237 1    
   231  116  238 1    
   232  116  239 1    
   233  117  118 2    
   234  117  119 am   BACKBONE|DICT|INTERRES
   235  119  120 1    
   236  119  240 1    
   237  120  121 1    
   238  120  124 1    
   239  120  241 1    
   240  121  122 am   BACKBONE|DICT|INTERRES
   241  121  123 2    
   242  122  242 1    
   243  122  243 1    
   244  124  125 1    
   245  124  244 1    
   246  124  245 1    
   247  125  126 1    
   248  126  246 1    
   249  126  247 1    
@<TRIPOS>SUBSTRUCTURE
     1 UNK         1 GROUP             0       ****    0 ROOT    
