@<TRIPOS>MOLECULE
3R540
247   249    1
SMALL
USER_CHARGES


@<TRIPOS>ATOM
      1 CA          2.5880  -12.1137  -43.4693 C.3       0 UNK        -0.1800 
      2 C           1.8619  -13.0845  -44.3882 C.2       0 UNK         0.5000 
      3 O           0.8697  -13.6873  -43.9775 O.2       0 UNK        -0.5000 
      4 N           2.3394  -13.2232  -45.6340 N.am      1 UNK        -0.5000 
      5 CA          1.7907  -14.1104  -46.6703 C.3       1 UNK         0.1400 
      6 C6          2.6733  -14.1017  -47.9465 C.3       23 UNK        -0.0398 
      7 S7          2.3052  -15.4861  -49.0802 S.3       23 UNK        -0.2404 
      8 C8          3.8678  -16.4231  -49.1048 C.3       23 UNK        -0.0205 
      9 C9          3.6732  -17.8616  -49.5756 C.ar      23 UNK        -0.0193 
     10 C10         3.0720  -18.1390  -50.8087 C.ar      23 UNK        -0.1150 
     11 C11         2.9204  -19.4583  -51.2488 C.ar      23 UNK        -0.0193 
     12 C12         3.3858  -20.5058  -50.4492 C.ar      23 UNK        -0.1150 
     13 C13         3.9690  -20.2466  -49.2088 C.ar      23 UNK        -0.0193 
     14 C14         4.1186  -18.9236  -48.7827 C.ar      23 UNK        -0.1150 
     15 C15         4.4631  -21.3899  -48.3378 C.3       23 UNK        -0.0205 
     16 S16         3.3850  -21.6525  -46.8975 S.3       23 UNK        -0.2404 
     17 C17         2.1850  -22.9112  -47.4584 C.3       23 UNK        -0.0398 
     18 CA          0.7228  -22.6196  -47.0257 C.3       11 UNK         0.1400 
     19 N           0.6198  -22.1939  -45.6168 N.am      11 UNK        -0.5000 
     20 C          -0.5114  -21.9179  -44.9559 C.2       10 UNK         0.5000 
     21 O          -1.6194  -21.9457  -45.4891 O.2       10 UNK        -0.5000 
     22 CA         -0.4303  -21.5185  -43.4687 C.3       10 UNK         0.1400 
     23 CB         -0.8312  -22.7004  -42.5651 C.3       10 UNK        -0.1800 
     24 N           0.8230  -20.9019  -43.0078 N.am      10 UNK        -0.5000 
     25 C           2.0272  -21.4691  -42.8417 C.2       9 UNK         0.5000 
     26 O           2.3203  -22.5935  -43.2497 O.2       9 UNK        -0.5000 
     27 CA          3.0603  -20.6134  -42.0842 C.3       9 UNK         0.1400 
     28 CB          4.2316  -21.4252  -41.4924 C.3       9 UNK        -0.1800 
     29 N           3.5166  -19.4926  -42.9041 N.am      9 UNK        -0.5000 
     30 C           4.3318  -19.5056  -43.9683 C.2       8 UNK         0.5000 
     31 O           4.9825  -20.4794  -44.3416 O.2       8 UNK        -0.5000 
     32 CA          4.4578  -18.1743  -44.7258 C.3       8 UNK         0.1400 
     33 CB          3.1411  -17.8379  -45.4498 C.3       8 UNK        -0.1800 
     34 N           4.7769  -17.1006  -43.7901 N.am      8 UNK        -0.5000 
     35 C           5.9976  -16.5975  -43.5693 C.2       7 UNK         0.5000 
     36 O           6.9926  -16.8857  -44.2351 O.2       7 UNK        -0.5000 
     37 CA          6.1326  -15.6143  -42.3861 C.3       7 UNK         0.1400 
     38 CB          5.8762  -14.1754  -42.8590 C.3       7 UNK        -0.1800 
     39 N           5.2220  -15.9240  -41.2792 N.am      7 UNK        -0.5000 
     40 C           5.2709  -17.0419  -40.5403 C.2       6 UNK         0.5000 
     41 O           6.1835  -17.8650  -40.6181 O.2       6 UNK        -0.5000 
     42 CA          4.1006  -17.3151  -39.5686 C.3       6 UNK         0.1400 
     43 CB          4.5322  -17.0234  -38.1230 C.3       6 UNK        -0.1800 
     44 N           2.8376  -16.6077  -39.8317 N.am      6 UNK        -0.5000 
     45 C           2.1505  -16.5861  -40.9820 C.2       5 UNK         0.5000 
     46 O           2.5780  -17.0623  -42.0341 O.2       5 UNK        -0.5000 
     47 CA          0.7673  -15.9101  -40.9521 C.3       5 UNK         0.1400 
     48 CB          0.8638  -14.4434  -40.4986 C.3       5 UNK        -0.1800 
     49 N           0.1138  -15.9424  -42.2589 N.am      5 UNK        -0.5000 
     50 C          -0.3982  -17.0224  -42.8664 C.2       4 UNK         0.5000 
     51 O          -0.3732  -18.1590  -42.3867 O.2       4 UNK        -0.5000 
     52 CA         -1.0305  -16.7768  -44.2547 C.3       4 UNK         0.1400 
     53 CB         -2.0568  -17.8533  -44.6546 C.3       4 UNK        -0.1800 
     54 N          -1.5980  -15.4312  -44.3981 N.am      4 UNK        -0.5000 
     55 C          -2.5621  -14.8605  -43.6580 C.2       3 UNK         0.5000 
     56 O          -3.2345  -15.4660  -42.8227 O.2       3 UNK        -0.5000 
     57 CA         -2.7841  -13.3452  -43.8415 C.3       3 UNK         0.1400 
     58 CB         -2.3962  -12.5927  -42.5574 C.3       3 UNK        -0.1800 
     59 N          -1.9900  -12.7978  -44.9427 N.am      3 UNK        -0.5000 
     60 C          -2.4587  -12.5210  -46.1662 C.2       2 UNK         0.5000 
     61 O          -3.6407  -12.6399  -46.4904 O.2       2 UNK        -0.5000 
     62 CA         -1.4324  -12.0407  -47.2142 C.3       2 UNK         0.1400 
     63 CB         -1.4166  -10.5060  -47.2837 C.3       2 UNK        -0.1800 
     64 N          -0.0661  -12.5194  -46.9790 N.am      2 UNK        -0.5000 
     65 C           0.3092  -13.8072  -46.9932 C.2       1 UNK         0.5000 
     66 O          -0.4736  -14.7377  -47.1796 O.2       1 UNK        -0.5000 
     67 C           0.0182  -21.6753  -48.0234 C.2       11 UNK         0.5000 
     68 O          -0.6079  -22.1456  -48.9733 O.2       11 UNK        -0.5000 
     69 N           0.0831  -20.3663  -47.7564 N.am      12 UNK        -0.5000 
     70 CA         -0.5461  -19.3221  -48.5614 C.3       12 UNK         0.1400 
     71 CB         -0.0106  -17.9669  -48.0916 C.3       12 UNK        -0.1800 
     72 C          -2.0884  -19.3340  -48.5202 C.2       12 UNK         0.5000 
     73 O          -2.7139  -18.8051  -49.4395 O.2       12 UNK        -0.5000 
     74 N          -2.6892  -19.9369  -47.4806 N.am      13 UNK        -0.5000 
     75 CA         -4.1433  -19.9975  -47.3002 C.3       13 UNK         0.1400 
     76 CB         -4.4818  -20.5019  -45.8897 C.3       13 UNK        -0.1800 
     77 C          -4.8439  -20.8688  -48.3560 C.2       13 UNK         0.5000 
     78 O          -5.9922  -20.5938  -48.7008 O.2       13 UNK        -0.5000 
     79 N          -4.1370  -21.8756  -48.8873 N.am      14 UNK        -0.5000 
     80 CA         -4.6369  -22.7570  -49.9423 C.3       14 UNK         0.1400 
     81 CB         -3.7070  -23.9699  -50.0743 C.3       14 UNK        -0.1800 
     82 C          -4.8426  -22.0373  -51.2920 C.2       14 UNK         0.5000 
     83 O          -5.6924  -22.4608  -52.0746 O.2       14 UNK        -0.5000 
     84 N          -4.1069  -20.9394  -51.5259 N.am      15 UNK        -0.5000 
     85 CA         -4.2894  -20.0748  -52.6919 C.3       15 UNK         0.1400 
     86 CB         -3.0082  -19.2739  -52.9540 C.3       15 UNK        -0.1800 
     87 C          -5.5103  -19.1471  -52.5650 C.2       15 UNK         0.5000 
     88 O          -6.0916  -18.7812  -53.5868 O.2       15 UNK        -0.5000 
     89 N          -5.8849  -18.7918  -51.3278 N.am      16 UNK        -0.5000 
     90 CA         -7.1079  -18.0462  -51.0249 C.3       16 UNK         0.1400 
     91 CB         -6.9632  -17.3587  -49.6582 C.3       16 UNK        -0.1800 
     92 C          -8.3507  -18.9564  -51.0571 C.2       16 UNK         0.5000 
     93 O          -9.4251  -18.5076  -51.4595 O.2       16 UNK        -0.5000 
     94 N          -8.1762  -20.2175  -50.6404 N.am      17 UNK        -0.5000 
     95 CA         -9.1739  -21.2832  -50.7009 C.3       17 UNK         0.1400 
     96 CB         -8.6926  -22.4509  -49.8232 C.3       17 UNK        -0.1800 
     97 C          -9.4462  -21.7654  -52.1411 C.2       17 UNK         0.5000 
     98 O          -8.7362  -21.3974  -53.0803 O.2       17 UNK        -0.5000 
     99 N         -10.4630  -22.6275  -52.2760 N.am      18 UNK        -0.5000 
    100 CA       -10.9512  -23.1999  -53.5360 C.3       18 UNK         0.1400 
    101 CB       -12.2249  -24.0096  -53.2452 C.3       18 UNK        -0.1800 
    102 C         -9.9320  -24.0611  -54.3132 C.2       18 UNK         0.5000 
    103 O        -10.1467  -24.3113  -55.5001 O.2       18 UNK        -0.5000 
    104 N         -8.8452  -24.4900  -53.6536 N.am      19 UNK        -0.5000 
    105 CA        -7.7101  -25.1751  -54.2780 C.3       19 UNK         0.1400 
    106 CB        -6.7785  -25.7219  -53.1852 C.3       19 UNK        -0.1800 
    107 C         -6.9354  -24.2780  -55.2662 C.2       19 UNK         0.5000 
    108 O         -6.3952  -24.7932  -56.2456 O.2       19 UNK        -0.5000 
    109 N         -6.9275  -22.9601  -55.0075 N.am      20 UNK        -0.5000 
    110 CA        -6.4068  -21.8816  -55.8555 C.3       20 UNK         0.1400 
    111 CB        -7.2576  -21.7532  -57.1358 C.3       20 UNK        -0.1800 
    112 C         -4.8931  -21.9567  -56.1584 C.2       20 UNK         0.5000 
    113 O         -4.4309  -21.3370  -57.1181 O.2       20 UNK        -0.5000 
    114 N         -4.1387  -22.6801  -55.3259 N.am      21 UNK        -0.5000 
    115 CA        -2.6890  -22.8189  -55.3846 C.3       21 UNK         0.1400 
    116 CB        -2.2986  -23.8682  -56.4401 C.3       21 UNK        -0.1800 
    117 C         -2.1969  -23.2274  -53.9924 C.2       21 UNK         0.5000 
    118 O         -2.9380  -23.8852  -53.2604 O.2       21 UNK        -0.5000 
    119 N         -0.9614  -22.8426  -53.6552 N.am      22 UNK        -0.5000 
    120 CA        -0.3523  -23.0610  -52.3297 C.3       22 UNK         0.1400 
    121 C         -0.0046  -24.5425  -51.9837 C.2       22 UNK         0.5000 
    122 N         -0.0949  -25.4860  -52.9129 N.am      22 UNK        -0.7600 
    123 O          0.3632  -24.8427  -50.8517 O.2       22 UNK        -0.5000 
    124 C124        0.8817  -22.1547  -52.0944 C.3       23 UNK        -0.0398 
    125 S125        0.5742  -20.3827  -52.4099 S.3       23 UNK        -0.2404 
    126 C126        2.2719  -19.7492  -52.5946 C.3       23 UNK        -0.0205 
    127 H127        3.4165  -11.6180  -43.9755 H         1 UNK         0.0600 
    128 H128        2.9858  -12.6405  -42.6029 H         1 UNK         0.0600 
    129 H129        1.8976  -11.3483  -43.1152 H         1 UNK         0.0600 
    130 H130        3.1516  -12.6867  -45.9038 H         1 UNK         0.3000 
    131 H131        1.8164  -15.1169  -46.2492 H         1 UNK         0.0600 
    132 H132        2.5577  -13.1637  -48.4925 H         1 UNK         0.0800 
    133 H133        3.7265  -14.1524  -47.6680 H         1 UNK         0.0800 
    134 H134        4.3149  -16.4098  -48.1104 H         1 UNK         0.0800 
    135 H135        4.5742  -15.9221  -49.7678 H         1 UNK         0.0800 
    136 H136        2.7237  -17.3231  -51.4262 H         1 UNK         0.1150 
    137 H137        3.2993  -21.5257  -50.7918 H         1 UNK         0.1150 
    138 H138        4.5904  -18.7260  -47.8314 H         1 UNK         0.1150 
    139 H139        4.5598  -22.3142  -48.9093 H         1 UNK         0.0800 
    140 H140        5.4652  -21.1509  -47.9787 H         1 UNK         0.0800 
    141 H141        2.4986  -23.8619  -47.0254 H         1 UNK         0.0800 
    142 H142        2.2576  -23.0478  -48.5393 H         1 UNK         0.0800 
    143 H143        0.1800  -23.5649  -47.0898 H         1 UNK         0.0600 
    144 H144        1.4856  -22.1842  -45.0886 H         1 UNK         0.3000 
    145 H145       -1.1887  -20.7469  -43.3294 H         1 UNK         0.0600 
    146 H146       -1.8211  -23.0743  -42.8298 H         1 UNK         0.0600 
    147 H147       -0.8680  -22.4017  -41.5175 H         1 UNK         0.0600 
    148 H148       -0.1359  -23.5356  -42.6533 H         1 UNK         0.0600 
    149 H149        0.7027  -19.9460  -42.6873 H         1 UNK         0.3000 
    150 H150        2.5342  -20.1652  -41.2397 H         1 UNK         0.0600 
    151 H151        3.8659  -22.1540  -40.7686 H         1 UNK         0.0600 
    152 H152        4.9378  -20.7761  -40.9743 H         1 UNK         0.0600 
    153 H153        4.7804  -21.9787  -42.2543 H         1 UNK         0.0600 
    154 H154        3.0785  -18.6021  -42.6729 H         1 UNK         0.3000 
    155 H155        5.2458  -18.2786  -45.4744 H         1 UNK         0.0600 
    156 H156        2.3242  -17.6531  -44.7516 H         1 UNK         0.0600 
    157 H157        2.8315  -18.6523  -46.1053 H         1 UNK         0.0600 
    158 H158        3.2560  -16.9490  -46.0669 H         1 UNK         0.0600 
    159 H159        4.0306  -16.8422  -43.1503 H         1 UNK         0.3000 
    160 H160        7.1561  -15.6780  -42.0109 H         1 UNK         0.0600 
    161 H161        4.8723  -14.0628  -43.2687 H         1 UNK         0.0600 
    162 H162        6.5816  -13.8916  -43.6411 H         1 UNK         0.0600 
    163 H163        5.9914  -13.4618  -42.0430 H         1 UNK         0.0600 
    164 H164        4.4384  -15.3026  -41.1462 H         1 UNK         0.3000 
    165 H165        3.8823  -18.3821  -39.6452 H         1 UNK         0.0600 
    166 H166        5.4491  -17.5579  -37.8700 H         1 UNK         0.0600 
    167 H167        4.7190  -15.9600  -37.9681 H         1 UNK         0.0600 
    168 H168        3.7698  -17.3391  -37.4106 H         1 UNK         0.0600 
    169 H169        2.4182  -16.1680  -39.0253 H         1 UNK         0.3000 
    170 H170        0.1432  -16.4585  -40.2440 H         1 UNK         0.0600 
    171 H171        1.2662  -14.3588  -39.4889 H         1 UNK         0.0600 
    172 H172        1.5054  -13.8607  -41.1591 H         1 UNK         0.0600 
    173 H173       -0.1187  -13.9714  -40.4888 H         1 UNK         0.0600 
    174 H174        0.1442  -15.0779  -42.7904 H         1 UNK         0.3000 
    175 H175       -0.2036  -16.8234  -44.9632 H         1 UNK         0.0600 
    176 H176       -2.8551  -17.9440  -43.9175 H         1 UNK         0.0600 
    177 H177       -2.5137  -17.6234  -45.6171 H         1 UNK         0.0600 
    178 H178       -1.5812  -18.8292  -44.7482 H         1 UNK         0.0600 
    179 H179       -1.1356  -14.8492  -45.0846 H         1 UNK         0.3000 
    180 H180       -3.8496  -13.1891  -44.0214 H         1 UNK         0.0600 
    181 H181       -2.5924  -11.5247  -42.6531 H         1 UNK         0.0600 
    182 H182       -1.3386  -12.7189  -42.3223 H         1 UNK         0.0600 
    183 H183       -2.9688  -12.9514  -41.7011 H         1 UNK         0.0600 
    184 H184       -0.9985  -12.6962  -44.7662 H         1 UNK         0.3000 
    185 H185       -1.7553  -12.4239  -48.1845 H         1 UNK         0.0600 
    186 H186       -1.0737  -10.0647  -46.3470 H         1 UNK         0.0600 
    187 H187       -0.7630  -10.1531  -48.0817 H         1 UNK         0.0600 
    188 H188       -2.4141  -10.1134  -47.4857 H         1 UNK         0.0600 
    189 H189        0.6327  -11.8166  -46.7862 H         1 UNK         0.3000 
    190 H190        0.6177  -20.0689  -46.9544 H         1 UNK         0.3000 
    191 H191       -0.2404  -19.4689  -49.5992 H         1 UNK         0.0600 
    192 H192       -0.3598  -17.1626  -48.7403 H         1 UNK         0.0600 
    193 H193        1.0784  -17.9509  -48.1062 H         1 UNK         0.0600 
    194 H194       -0.3351  -17.7344  -47.0792 H         1 UNK         0.0600 
    195 H195       -2.1273  -20.4252  -46.7922 H         1 UNK         0.3000 
    196 H196       -4.5333  -18.9821  -47.3979 H         1 UNK         0.0600 
    197 H197       -4.1943  -21.5447  -45.7541 H         1 UNK         0.0600 
    198 H198       -3.9830  -19.9130  -45.1213 H         1 UNK         0.0600 
    199 H199       -5.5544  -20.4358  -45.7033 H         1 UNK         0.0600 
    200 H200       -3.1870  -22.0237  -48.5741 H         1 UNK         0.3000 
    201 H201       -5.6119  -23.1300  -49.6261 H         1 UNK         0.0600 
    202 H202       -3.6835  -24.5493  -49.1514 H         1 UNK         0.0600 
    203 H203       -2.6858  -23.6721  -50.3042 H         1 UNK         0.0600 
    204 H204       -4.0443  -24.6377  -50.8681 H         1 UNK         0.0600 
    205 H205       -3.4470  -20.6292  -50.8257 H         1 UNK         0.3000 
    206 H206       -4.4632  -20.7040  -53.5624 H         1 UNK         0.0600 
    207 H207       -2.1773  -19.9408  -53.1771 H         1 UNK         0.0600 
    208 H208       -3.1286  -18.6124  -53.8128 H         1 UNK         0.0600 
    209 H209       -2.7299  -18.6566  -52.1000 H         1 UNK         0.0600 
    210 H210       -5.3561  -19.1393  -50.5405 H         1 UNK         0.3000 
    211 H211       -7.2429  -17.2680  -51.7791 H         1 UNK         0.0600 
    212 H212       -7.8424  -16.7536  -49.4339 H         1 UNK         0.0600 
    213 H213       -6.0984  -16.6953  -49.6401 H         1 UNK         0.0600 
    214 H214       -6.8491  -18.0800  -48.8490 H         1 UNK         0.0600 
    215 H215       -7.2696  -20.4740  -50.2677 H         1 UNK         0.3000 
    216 H216      -10.1077  -20.8958  -50.2885 H         1 UNK         0.0600 
    217 H217       -7.8261  -22.9461  -50.2603 H         1 UNK         0.0600 
    218 H218       -9.4714  -23.2044  -49.7025 H         1 UNK         0.0600 
    219 H219       -8.4182  -22.1115  -48.8241 H         1 UNK         0.0600 
    220 H220      -10.9793  -22.8919  -51.4493 H         1 UNK         0.3000 
    221 H221      -11.2199  -22.3663  -54.1880 H         1 UNK         0.0600 
    222 H222      -12.9951  -23.3861  -52.7907 H         1 UNK         0.0600 
    223 H223      -12.0249  -24.8436  -52.5715 H         1 UNK         0.0600 
    224 H224      -12.6459  -24.4230  -54.1628 H         1 UNK         0.0600 
    225 H225       -8.7466  -24.2380  -52.6818 H         1 UNK         0.3000 
    226 H226       -8.1003  -26.0233  -54.8444 H         1 UNK         0.0600 
    227 H227       -6.3917  -24.9279  -52.5473 H         1 UNK         0.0600 
    228 H228       -7.2962  -26.4399  -52.5491 H         1 UNK         0.0600 
    229 H229       -5.9212  -26.2348  -53.6233 H         1 UNK         0.0600 
    230 H230       -7.3860  -22.6423  -54.1591 H         1 UNK         0.3000 
    231 H231       -6.5475  -20.9663  -55.2795 H         1 UNK         0.0600 
    232 H232       -7.1235  -22.6099  -57.7970 H         1 UNK         0.0600 
    233 H233       -6.9893  -20.8590  -57.6994 H         1 UNK         0.0600 
    234 H234       -8.3185  -21.6769  -56.8966 H         1 UNK         0.0600 
    235 H235       -4.5716  -23.1381  -54.5315 H         1 UNK         0.3000 
    236 H236       -2.2460  -21.8542  -55.6410 H         1 UNK         0.0600 
    237 H237       -2.6258  -23.5697  -57.4361 H         1 UNK         0.0600 
    238 H238       -1.2168  -24.0003  -56.4810 H         1 UNK         0.0600 
    239 H239       -2.7429  -24.8400  -56.2205 H         1 UNK         0.0600 
    240 H240       -0.4065  -22.3141  -54.3124 H         1 UNK         0.3000 
    241 H241       -1.1007  -22.7547  -51.5989 H         1 UNK         0.0600 
    242 H242        0.1320  -26.4388  -52.6754 H         1 UNK         0.3800 
    243 H243       -0.4083  -25.2611  -53.8428 H         1 UNK         0.3800 
    244 H244        1.7142  -22.4875  -52.7164 H         1 UNK         0.0800 
    245 H245        1.2055  -22.2512  -51.0578 H         1 UNK         0.0800 
    246 H246        2.8819  -20.4556  -53.1591 H         1 UNK         0.0800 
    247 H247        2.2341  -18.8394  -53.1955 H         1 UNK         0.0800 
@<TRIPOS>BOND
     1    1    2 1    
     2    1  127 1    
     3    1  128 1    
     4    1  129 1    
     5    2    3 2    
     6    2    4 am   BACKBONE|DICT|INTERRES
     7    4    5 1    
     8    4  130 1    
     9    5    6 1    
    10    5   65 1    
    11    5  131 1    
    12    6    7 1    
    13    6  132 1    
    14    6  133 1    
    15    7    8 1    
    16    8    9 1    
    17    8  134 1    
    18    8  135 1    
    19    9   10 ar   
    20    9   14 ar   
    21   10   11 ar   
    22   10  136 1    
    23   11   12 ar   
    24   11  126 1    
    25   12   13 ar   
    26   12  137 1    
    27   13   14 ar   
    28   13   15 1    
    29   14  138 1    
    30   15   16 1    
    31   15  139 1    
    32   15  140 1    
    33   16   17 1    
    34   17   18 1    
    35   17  141 1    
    36   17  142 1    
    37   18   19 1    
    38   18   67 1    
    39   18  143 1    
    40   19   20 am   BACKBONE|DICT|INTERRES
    41   19  144 1    
    42   20   21 2    
    43   20   22 1    
    44   22   23 1    
    45   22   24 1    
    46   22  145 1    
    47   23  146 1    
    48   23  147 1    
    49   23  148 1    
    50   24   25 am   BACKBONE|DICT|INTERRES
    51   24  149 1    
    52   25   26 2    
    53   25   27 1    
    54   27   28 1    
    55   27   29 1    
    56   27  150 1    
    57   28  151 1    
    58   28  152 1    
    59   28  153 1    
    60   29   30 am   BACKBONE|DICT|INTERRES
    61   29  154 1    
    62   30   31 2    
    63   30   32 1    
    64   32   33 1    
    65   32   34 1    
    66   32  155 1    
    67   33  156 1    
    68   33  157 1    
    69   33  158 1    
    70   34   35 am   BACKBONE|DICT|INTERRES
    71   34  159 1    
    72   35   36 2    
    73   35   37 1    
    74   37   38 1    
    75   37   39 1    
    76   37  160 1    
    77   38  161 1    
    78   38  162 1    
    79   38  163 1    
    80   39   40 am   BACKBONE|DICT|INTERRES
    81   39  164 1    
    82   40   41 2    
    83   40   42 1    
    84   42   43 1    
    85   42   44 1    
    86   42  165 1    
    87   43  166 1    
    88   43  167 1    
    89   43  168 1    
    90   44   45 am   BACKBONE|DICT|INTERRES
    91   44  169 1    
    92   45   46 2    
    93   45   47 1    
    94   47   48 1    
    95   47   49 1    
    96   47  170 1    
    97   48  171 1    
    98   48  172 1    
    99   48  173 1    
   100   49   50 am   BACKBONE|DICT|INTERRES
   101   49  174 1    
   102   50   51 2    
   103   50   52 1    
   104   52   53 1    
   105   52   54 1    
   106   52  175 1    
   107   53  176 1    
   108   53  177 1    
   109   53  178 1    
   110   54   55 am   BACKBONE|DICT|INTERRES
   111   54  179 1    
   112   55   56 2    
   113   55   57 1    
   114   57   58 1    
   115   57   59 1    
   116   57  180 1    
   117   58  181 1    
   118   58  182 1    
   119   58  183 1    
   120   59   60 am   BACKBONE|DICT|INTERRES
   121   59  184 1    
   122   60   61 2    
   123   60   62 1    
   124   62   63 1    
   125   62   64 1    
   126   62  185 1    
   127   63  186 1    
   128   63  187 1    
   129   63  188 1    
   130   64   65 am   BACKBONE|DICT|INTERRES
   131   64  189 1    
   132   65   66 2    
   133   67   68 2    
   134   67   69 am   BACKBONE|DICT|INTERRES
   135   69   70 1    
   136   69  190 1    
   137   70   71 1    
   138   70   72 1    
   139   70  191 1    
   140   71  192 1    
   141   71  193 1    
   142   71  194 1    
   143   72   73 2    
   144   72   74 am   BACKBONE|DICT|INTERRES
   145   74   75 1    
   146   74  195 1    
   147   75   76 1    
   148   75   77 1    
   149   75  196 1    
   150   76  197 1    
   151   76  198 1    
   152   76  199 1    
   153   77   78 2    
   154   77   79 am   BACKBONE|DICT|INTERRES
   155   79   80 1    
   156   79  200 1    
   157   80   81 1    
   158   80   82 1    
   159   80  201 1    
   160   81  202 1    
   161   81  203 1    
   162   81  204 1    
   163   82   83 2    
   164   82   84 am   BACKBONE|DICT|INTERRES
   165   84   85 1    
   166   84  205 1    
   167   85   86 1    
   168   85   87 1    
   169   85  206 1    
   170   86  207 1    
   171   86  208 1    
   172   86  209 1    
   173   87   88 2    
   174   87   89 am   BACKBONE|DICT|INTERRES
   175   89   90 1    
   176   89  210 1    
   177   90   91 1    
   178   90   92 1    
   179   90  211 1    
   180   91  212 1    
   181   91  213 1    
   182   91  214 1    
   183   92   93 2    
   184   92   94 am   BACKBONE|DICT|INTERRES
   185   94   95 1    
   186   94  215 1    
   187   95   96 1    
   188   95   97 1    
   189   95  216 1    
   190   96  217 1    
   191   96  218 1    
   192   96  219 1    
   193   97   98 2    
   194   97   99 am   BACKBONE|DICT|INTERRES
   195   99  100 1    
   196   99  220 1    
   197  100  101 1    
   198  100  102 1    
   199  100  221 1    
   200  101  222 1    
   201  101  223 1    
   202  101  224 1    
   203  102  103 2    
   204  102  104 am   BACKBONE|DICT|INTERRES
   205  104  105 1    
   206  104  225 1    
   207  105  106 1    
   208  105  107 1    
   209  105  226 1    
   210  106  227 1    
   211  106  228 1    
   212  106  229 1    
   213  107  108 2    
   214  107  109 am   BACKBONE|DICT|INTERRES
   215  109  110 1    
   216  109  230 1    
   217  110  111 1    
   218  110  112 1    
   219  110  231 1    
   220  111  232 1    
   221  111  233 1    
   222  111  234 1    
   223  112  113 2    
   224  112  114 am   BACKBONE|DICT|INTERRES
   225  114  115 1    
   226  114  235 1    
   227  115  116 1    
   228  115  117 1    
   229  115  236 1    
   230  116  237 1    
   231  116  238 1    
   232  116  239 1    
   233  117  118 2    
   234  117  119 am   BACKBONE|DICT|INTERRES
   235  119  120 1    
   236  119  240 1    
   237  120  121 1    
   238  120  124 1    
   239  120  241 1    
   240  121  122 am   BACKBONE|DICT|INTERRES
   241  121  123 2    
   242  122  242 1    
   243  122  243 1    
   244  124  125 1    
   245  124  244 1    
   246  124  245 1    
   247  125  126 1    
   248  126  246 1    
   249  126  247 1    
@<TRIPOS>SUBSTRUCTURE
     1 UNK         1 GROUP             0       ****    0 ROOT    
