@<TRIPOS>MOLECULE
3R540
247   249    1
SMALL
USER_CHARGES


@<TRIPOS>ATOM
      1 CA          2.0530  -10.9350  -50.8666 C.3       0 UNK        -0.1800 
      2 C           1.6605  -11.6915  -52.1347 C.2       0 UNK         0.5000 
      3 O           1.3503  -11.0589  -53.1416 O.2       0 UNK        -0.5000 
      4 N           1.6543  -13.0323  -52.1397 N.am      1 UNK        -0.5000 
      5 CA          1.9637  -13.9197  -51.0096 C.3       1 UNK         0.1400 
      6 C6          2.5613  -15.2669  -51.4921 C.3       23 UNK        -0.0398 
      7 S7          3.7108  -16.0012  -50.2755 S.3       23 UNK        -0.2404 
      8 C8          4.0590  -17.6270  -51.0161 C.3       23 UNK        -0.0205 
      9 C9          2.9702  -18.6459  -50.7105 C.ar      23 UNK        -0.0193 
     10 C10         1.8780  -18.7852  -51.5693 C.ar      23 UNK        -0.1150 
     11 C11         0.8769  -19.7210  -51.3007 C.ar      23 UNK        -0.0193 
     12 C12         1.0011  -20.5608  -50.1905 C.ar      23 UNK        -0.1150 
     13 C13         2.0960  -20.4445  -49.3273 C.ar      23 UNK        -0.0193 
     14 C14         3.0688  -19.4725  -49.5861 C.ar      23 UNK        -0.1150 
     15 C15         2.2654  -21.3984  -48.1499 C.3       23 UNK        -0.0205 
     16 S16         1.4001  -20.8448  -46.6439 S.3       23 UNK        -0.2404 
     17 C17        -0.2699  -21.5236  -46.9115 C.3       23 UNK        -0.0398 
     18 CA         -0.3982  -22.9679  -46.3700 C.3       11 UNK         0.1400 
     19 N          -0.3893  -23.0082  -44.9039 N.am      11 UNK        -0.5000 
     20 C          -0.5441  -24.0921  -44.1279 C.2       10 UNK         0.5000 
     21 O          -0.6454  -25.2382  -44.5668 O.2       10 UNK        -0.5000 
     22 CA         -0.6714  -23.8557  -42.6117 C.3       10 UNK         0.1400 
     23 CB          0.6538  -24.1854  -41.9101 C.3       10 UNK        -0.1800 
     24 N          -1.0741  -22.4942  -42.2501 N.am      10 UNK        -0.5000 
     25 C          -2.1985  -21.8613  -42.6107 C.2       9 UNK         0.5000 
     26 O          -3.0679  -22.3734  -43.3176 O.2       9 UNK        -0.5000 
     27 CA         -2.3546  -20.3951  -42.1577 C.3       9 UNK         0.1400 
     28 CB         -2.9999  -20.3063  -40.7629 C.3       9 UNK        -0.1800 
     29 N          -1.1213  -19.5976  -42.2309 N.am      9 UNK        -0.5000 
     30 C           0.0113  -19.7082  -41.5191 C.2       8 UNK         0.5000 
     31 O           0.2055  -20.5662  -40.6572 O.2       8 UNK        -0.5000 
     32 CA          1.1268  -18.7001  -41.8413 C.3       8 UNK         0.1400 
     33 CB          1.8999  -19.1412  -43.0938 C.3       8 UNK        -0.1800 
     34 N           0.6181  -17.3428  -42.0317 N.am      8 UNK        -0.5000 
     35 C           0.0808  -16.5870  -41.0637 C.2       7 UNK         0.5000 
     36 O           0.0117  -16.9309  -39.8829 O.2       7 UNK        -0.5000 
     37 CA         -0.4896  -15.2214  -41.4876 C.3       7 UNK         0.1400 
     38 CB          0.6252  -14.1683  -41.5788 C.3       7 UNK        -0.1800 
     39 N          -1.2158  -15.2820  -42.7568 N.am      7 UNK        -0.5000 
     40 C          -2.3738  -15.9345  -42.9369 C.2       6 UNK         0.5000 
     41 O          -2.9772  -16.5237  -42.0400 O.2       6 UNK        -0.5000 
     42 CA         -2.9492  -15.9434  -44.3642 C.3       6 UNK         0.1400 
     43 CB         -3.6683  -14.6169  -44.6560 C.3       6 UNK        -0.1800 
     44 N          -1.9268  -16.1849  -45.3825 N.am      6 UNK        -0.5000 
     45 C          -1.2224  -17.3193  -45.5075 C.2       5 UNK         0.5000 
     46 O          -1.4049  -18.3189  -44.8123 O.2       5 UNK        -0.5000 
     47 CA         -0.0884  -17.3201  -46.5489 C.3       5 UNK         0.1400 
     48 CB         -0.6194  -17.6277  -47.9582 C.3       5 UNK        -0.1800 
     49 N           0.6554  -16.0624  -46.5665 N.am      5 UNK        -0.5000 
     50 C           1.3823  -15.5902  -45.5451 C.2       4 UNK         0.5000 
     51 O           1.5300  -16.1829  -44.4778 O.2       4 UNK        -0.5000 
     52 CA          2.0007  -14.1949  -45.7245 C.3       4 UNK         0.1400 
     53 CB          3.2939  -14.2617  -46.5510 C.3       4 UNK        -0.1800 
     54 N           1.0597  -13.2643  -46.3464 N.am      4 UNK        -0.5000 
     55 C          -0.0237  -12.7684  -45.7338 C.2       3 UNK         0.5000 
     56 O          -0.3245  -13.0220  -44.5675 O.2       3 UNK        -0.5000 
     57 CA         -0.9411  -11.8611  -46.5744 C.3       3 UNK         0.1400 
     58 CB         -0.4202  -10.4162  -46.5732 C.3       3 UNK        -0.1800 
     59 N          -1.0953  -12.3176  -47.9569 N.am      3 UNK        -0.5000 
     60 C          -1.6983  -13.4606  -48.3108 C.2       2 UNK         0.5000 
     61 O          -2.1695  -14.2650  -47.5096 O.2       2 UNK        -0.5000 
     62 CA         -1.7347  -13.7856  -49.8140 C.3       2 UNK         0.1400 
     63 CB         -2.7637  -12.8902  -50.5216 C.3       2 UNK        -0.1800 
     64 N          -0.4450  -13.6637  -50.5005 N.am      2 UNK        -0.5000 
     65 C           0.7416  -14.1365  -50.0880 C.2       1 UNK         0.5000 
     66 O           0.9011  -14.7116  -49.0148 O.2       1 UNK        -0.5000 
     67 C          -1.6251  -23.6613  -46.9957 C.2       11 UNK         0.5000 
     68 O          -1.4854  -24.2466  -48.0677 O.2       11 UNK        -0.5000 
     69 N          -2.7767  -23.6422  -46.3073 N.am      12 UNK        -0.5000 
     70 CA         -4.0017  -24.3380  -46.7109 C.3       12 UNK         0.1400 
     71 CB         -5.1305  -23.9637  -45.7400 C.3       12 UNK        -0.1800 
     72 C          -3.8555  -25.8694  -46.8133 C.2       12 UNK         0.5000 
     73 O          -4.5508  -26.4826  -47.6235 O.2       12 UNK        -0.5000 
     74 N          -2.9517  -26.4500  -46.0141 N.am      13 UNK        -0.5000 
     75 CA         -2.6146  -27.8713  -46.0397 C.3       13 UNK         0.1400 
     76 CB         -2.5328  -28.3911  -44.5956 C.3       13 UNK        -0.1800 
     77 C          -1.2848  -28.1149  -46.7718 C.2       13 UNK         0.5000 
     78 O          -1.1754  -29.0845  -47.5229 O.2       13 UNK        -0.5000 
     79 N          -0.2928  -27.2477  -46.5263 N.am      14 UNK        -0.5000 
     80 CA          1.0825  -27.4059  -46.9982 C.3       14 UNK         0.1400 
     81 CB          2.0034  -26.5014  -46.1641 C.3       14 UNK        -0.1800 
     82 C           1.2784  -27.1299  -48.4998 C.2       14 UNK         0.5000 
     83 O           2.2057  -27.6909  -49.0859 O.2       14 UNK        -0.5000 
     84 N           0.4374  -26.2711  -49.0906 N.am      15 UNK        -0.5000 
     85 CA          0.5532  -25.8430  -50.4865 C.3       15 UNK         0.1400 
     86 CB          1.1877  -24.4430  -50.5354 C.3       15 UNK        -0.1800 
     87 C          -0.7962  -25.8412  -51.2183 C.2       15 UNK         0.5000 
     88 O          -0.8341  -26.1935  -52.3979 O.2       15 UNK        -0.5000 
     89 N          -1.8647  -25.4260  -50.5217 N.am      16 UNK        -0.5000 
     90 CA         -3.1849  -25.0878  -51.0565 C.3       16 UNK         0.1400 
     91 CB         -3.9067  -26.3318  -51.6217 C.3       16 UNK        -0.1800 
     92 C          -3.0582  -23.9004  -52.0340 C.2       16 UNK         0.5000 
     93 O          -2.5408  -22.8610  -51.6238 O.2       16 UNK        -0.5000 
     94 N          -3.5016  -24.0724  -53.2890 N.am      17 UNK        -0.5000 
     95 CA         -3.3504  -23.1328  -54.4093 C.3       17 UNK         0.1400 
     96 CB         -1.8669  -23.0377  -54.8274 C.3       17 UNK        -0.1800 
     97 C          -3.9882  -21.7527  -54.1397 C.2       17 UNK         0.5000 
     98 O          -3.3694  -20.7219  -54.4084 O.2       17 UNK        -0.5000 
     99 N          -5.2202  -21.7791  -53.6065 N.am      18 UNK        -0.5000 
    100 CA        -6.0115  -20.6298  -53.1511 C.3       18 UNK         0.1400 
    101 CB        -6.3702  -19.6891  -54.3221 C.3       18 UNK        -0.1800 
    102 C         -5.3337  -19.9043  -51.9718 C.2       18 UNK         0.5000 
    103 O         -5.1045  -18.6953  -52.0302 O.2       18 UNK        -0.5000 
    104 N         -5.0193  -20.6769  -50.9208 N.am      19 UNK        -0.5000 
    105 CA        -4.3771  -20.2236  -49.6852 C.3       19 UNK         0.1400 
    106 CB        -4.2694  -21.3980  -48.7053 C.3       19 UNK        -0.1800 
    107 C         -5.1048  -19.0335  -49.0332 C.2       19 UNK         0.5000 
    108 O         -6.3361  -19.0270  -48.9797 O.2       19 UNK        -0.5000 
    109 N         -4.3145  -18.0496  -48.5833 N.am      20 UNK        -0.5000 
    110 CA        -4.7211  -16.7384  -48.0583 C.3       20 UNK         0.1400 
    111 CB        -5.7222  -16.8658  -46.8897 C.3       20 UNK        -0.1800 
    112 C         -5.2016  -15.7441  -49.1408 C.2       20 UNK         0.5000 
    113 O         -5.5649  -14.6195  -48.7967 O.2       20 UNK        -0.5000 
    114 N         -5.1626  -16.1400  -50.4210 N.am      21 UNK        -0.5000 
    115 CA        -5.4966  -15.3124  -51.5838 C.3       21 UNK         0.1400 
    116 CB        -6.9203  -15.6592  -52.0561 C.3       21 UNK        -0.1800 
    117 C         -4.4506  -15.4735  -52.7084 C.2       21 UNK         0.5000 
    118 O         -4.7285  -15.1196  -53.8550 O.2       21 UNK        -0.5000 
    119 N         -3.2755  -16.0148  -52.3605 N.am      22 UNK        -0.5000 
    120 CA        -2.1536  -16.3365  -53.2525 C.3       22 UNK         0.1400 
    121 C         -1.5720  -15.0920  -53.9795 C.2       22 UNK         0.5000 
    122 N         -1.5799  -15.0715  -55.3047 N.am      22 UNK        -0.7600 
    123 O         -1.0609  -14.1698  -53.3492 O.2       22 UNK        -0.5000 
    124 C124       -1.0319  -17.0742  -52.4793 C.3       23 UNK        -0.0398 
    125 S125       -1.6153  -18.6197  -51.7045 S.3       23 UNK        -0.2404 
    126 C126       -0.3429  -19.8211  -52.2028 C.3       23 UNK        -0.0205 
    127 H127        3.1071  -11.0912  -50.6371 H         1 UNK         0.0600 
    128 H128        1.8968   -9.8640  -50.9977 H         1 UNK         0.0600 
    129 H129        1.4551  -11.2520  -50.0129 H         1 UNK         0.0600 
    130 H130        1.3373  -13.4993  -52.9790 H         1 UNK         0.3000 
    131 H131        2.7250  -13.4299  -50.4004 H         1 UNK         0.0600 
    132 H132        1.7751  -15.9770  -51.7443 H         1 UNK         0.0800 
    133 H133        3.1342  -15.1160  -52.4083 H         1 UNK         0.0800 
    134 H134        5.0136  -17.9866  -50.6291 H         1 UNK         0.0800 
    135 H135        4.1925  -17.5225  -52.0939 H         1 UNK         0.0800 
    136 H136        1.8054  -18.1604  -52.4465 H         1 UNK         0.1150 
    137 H137        0.2434  -21.3086  -50.0123 H         1 UNK         0.1150 
    138 H138        3.9180  -19.3749  -48.9244 H         1 UNK         0.1150 
    139 H139        1.9297  -22.3985  -48.4246 H         1 UNK         0.0800 
    140 H140        3.3258  -21.4995  -47.9144 H         1 UNK         0.0800 
    141 H141       -0.5030  -21.4733  -47.9738 H         1 UNK         0.0800 
    142 H142       -0.9917  -20.8665  -46.4225 H         1 UNK         0.0800 
    143 H143        0.4696  -23.5371  -46.7059 H         1 UNK         0.0600 
    144 H144       -0.3037  -22.1157  -44.4412 H         1 UNK         0.3000 
    145 H145       -1.4395  -24.5371  -42.2412 H         1 UNK         0.0600 
    146 H146        0.5560  -24.1095  -40.8269 H         1 UNK         0.0600 
    147 H147        0.9750  -25.2032  -42.1363 H         1 UNK         0.0600 
    148 H148        1.4519  -23.5107  -42.2228 H         1 UNK         0.0600 
    149 H149       -0.4402  -21.9786  -41.6441 H         1 UNK         0.3000 
    150 H150       -3.0411  -19.9253  -42.8640 H         1 UNK         0.0600 
    151 H151       -3.9695  -20.8054  -40.7516 H         1 UNK         0.0600 
    152 H152       -3.1645  -19.2681  -40.4734 H         1 UNK         0.0600 
    153 H153       -2.3838  -20.7754  -39.9955 H         1 UNK         0.0600 
    154 H154       -1.1323  -18.9033  -42.9734 H         1 UNK         0.3000 
    155 H155        1.8211  -18.6876  -40.9986 H         1 UNK         0.0600 
    156 H156        2.7502  -18.4858  -43.2828 H         1 UNK         0.0600 
    157 H157        1.2674  -19.1290  -43.9821 H         1 UNK         0.0600 
    158 H158        2.2884  -20.1541  -42.9808 H         1 UNK         0.0600 
    159 H159        0.7101  -16.9497  -42.9653 H         1 UNK         0.3000 
    160 H160       -1.1918  -14.9017  -40.7149 H         1 UNK         0.0600 
    161 H161        0.2168  -13.1807  -41.7939 H         1 UNK         0.0600 
    162 H162        1.3455  -14.4095  -42.3608 H         1 UNK         0.0600 
    163 H163        1.1725  -14.0959  -40.6383 H         1 UNK         0.0600 
    164 H164       -0.8095  -14.7767  -43.5365 H         1 UNK         0.3000 
    165 H165       -3.6802  -16.7518  -44.4268 H         1 UNK         0.0600 
    166 H166       -4.1009  -14.6069  -45.6552 H         1 UNK         0.0600 
    167 H167       -4.4804  -14.4495  -43.9477 H         1 UNK         0.0600 
    168 H168       -2.9900  -13.7665  -44.5847 H         1 UNK         0.0600 
    169 H169       -1.7525  -15.4258  -46.0356 H         1 UNK         0.3000 
    170 H170        0.6129  -18.1062  -46.2692 H         1 UNK         0.0600 
    171 H171       -1.1557  -18.5768  -47.9759 H         1 UNK         0.0600 
    172 H172       -1.2964  -16.8507  -48.3135 H         1 UNK         0.0600 
    173 H173        0.1987  -17.7079  -48.6754 H         1 UNK         0.0600 
    174 H174        0.6255  -15.5225  -47.4298 H         1 UNK         0.3000 
    175 H175        2.2553  -13.8124  -44.7337 H         1 UNK         0.0600 
    176 H176        3.1148  -14.6391  -47.5575 H         1 UNK         0.0600 
    177 H177        3.7574  -13.2791  -46.6390 H         1 UNK         0.0600 
    178 H178        4.0213  -14.9239  -46.0800 H         1 UNK         0.0600 
    179 H179        1.1860  -13.0839  -47.3315 H         1 UNK         0.3000 
    180 H180       -1.9282  -11.8676  -46.1071 H         1 UNK         0.0600 
    181 H181        0.5534  -10.3373  -47.0586 H         1 UNK         0.0600 
    182 H182       -0.3107  -10.0420  -45.5544 H         1 UNK         0.0600 
    183 H183       -1.1090   -9.7482  -47.0908 H         1 UNK         0.0600 
    184 H184       -0.7267  -11.7200  -48.6813 H         1 UNK         0.3000 
    185 H185       -2.0541  -14.8240  -49.9147 H         1 UNK         0.0600 
    186 H186       -3.7398  -12.9557  -50.0402 H         1 UNK         0.0600 
    187 H187       -2.4628  -11.8422  -50.5071 H         1 UNK         0.0600 
    188 H188       -2.8940  -13.1793  -51.5635 H         1 UNK         0.0600 
    189 H189       -0.4868  -13.2841  -51.4393 H         1 UNK         0.3000 
    190 H190       -2.8056  -23.1654  -45.4135 H         1 UNK         0.3000 
    191 H191       -4.2770  -23.9864  -47.7050 H         1 UNK         0.0600 
    192 H192       -4.8977  -24.2681  -44.7186 H         1 UNK         0.0600 
    193 H193       -6.0675  -24.4453  -46.0226 H         1 UNK         0.0600 
    194 H194       -5.3062  -22.8878  -45.7365 H         1 UNK         0.0600 
    195 H195       -2.3911  -25.8659  -45.4044 H         1 UNK         0.3000 
    196 H196       -3.3898  -28.4407  -46.5568 H         1 UNK         0.0600 
    197 H197       -2.2800  -29.4520  -44.5758 H         1 UNK         0.0600 
    198 H198       -3.4876  -28.2749  -44.0825 H         1 UNK         0.0600 
    199 H199       -1.7756  -27.8612  -44.0161 H         1 UNK         0.0600 
    200 H200       -0.4528  -26.4956  -45.8603 H         1 UNK         0.3000 
    201 H201        1.3811  -28.4409  -46.8178 H         1 UNK         0.0600 
    202 H202        1.9252  -26.7310  -45.1011 H         1 UNK         0.0600 
    203 H203        1.7615  -25.4474  -46.2966 H         1 UNK         0.0600 
    204 H204        3.0474  -26.6362  -46.4495 H         1 UNK         0.0600 
    205 H205       -0.3047  -25.8515  -48.5435 H         1 UNK         0.3000 
    206 H206        1.2005  -26.5269  -51.0395 H         1 UNK         0.0600 
    207 H207        2.1830  -24.4438  -50.0909 H         1 UNK         0.0600 
    208 H208        1.2894  -24.0929  -51.5635 H         1 UNK         0.0600 
    209 H209        0.5797  -23.7135  -50.0002 H         1 UNK         0.0600 
    210 H210       -1.7010  -25.0667  -49.5829 H         1 UNK         0.3000 
    211 H211       -3.7710  -24.7250  -50.2110 H         1 UNK         0.0600 
    212 H212       -3.4008  -26.7524  -52.4909 H         1 UNK         0.0600 
    213 H213       -4.9294  -26.0919  -51.9147 H         1 UNK         0.0600 
    214 H214       -3.9684  -27.1157  -50.8665 H         1 UNK         0.0600 
    215 H215       -3.9101  -24.9664  -53.5227 H         1 UNK         0.3000 
    216 H216       -3.8993  -23.5617  -55.2488 H         1 UNK         0.0600 
    217 H217       -1.7523  -22.4420  -55.7336 H         1 UNK         0.0600 
    218 H218       -1.4515  -24.0243  -55.0330 H         1 UNK         0.0600 
    219 H219       -1.2566  -22.5740  -54.0516 H         1 UNK         0.0600 
    220 H220       -5.6286  -22.6860  -53.4302 H         1 UNK         0.3000 
    221 H221       -6.9481  -21.0339  -52.7641 H         1 UNK         0.0600 
    222 H222       -5.4920  -19.1887  -54.7307 H         1 UNK         0.0600 
    223 H223       -6.8547  -20.2337  -55.1323 H         1 UNK         0.0600 
    224 H224       -7.0605  -18.9108  -53.9947 H         1 UNK         0.0600 
    225 H225       -5.2331  -21.6601  -50.9732 H         1 UNK         0.3000 
    226 H226       -3.3640  -19.9180  -49.9425 H         1 UNK         0.0600 
    227 H227       -3.6603  -22.1981  -49.1259 H         1 UNK         0.0600 
    228 H228       -3.7969  -21.0899  -47.7716 H         1 UNK         0.0600 
    229 H229       -5.2501  -21.8067  -48.4591 H         1 UNK         0.0600 
    230 H230       -3.3178  -18.1705  -48.6880 H         1 UNK         0.3000 
    231 H231       -3.8112  -16.3033  -47.6465 H         1 UNK         0.0600 
    232 H232       -6.7013  -17.2092  -47.2225 H         1 UNK         0.0600 
    233 H233       -5.3597  -17.5603  -46.1322 H         1 UNK         0.0600 
    234 H234       -5.8793  -15.9043  -46.4015 H         1 UNK         0.0600 
    235 H235       -4.9303  -17.1032  -50.6415 H         1 UNK         0.3000 
    236 H236       -5.4785  -14.2568  -51.3076 H         1 UNK         0.0600 
    237 H237       -7.2272  -15.0233  -52.8871 H         1 UNK         0.0600 
    238 H238       -6.9890  -16.6950  -52.3900 H         1 UNK         0.0600 
    239 H239       -7.6459  -15.5170  -51.2552 H         1 UNK         0.0600 
    240 H240       -3.1536  -16.2923  -51.4006 H         1 UNK         0.3000 
    241 H241       -2.5430  -17.0228  -54.0075 H         1 UNK         0.0600 
    242 H242       -1.1902  -14.2738  -55.7817 H         1 UNK         0.3800 
    243 H243       -1.9990  -15.8140  -55.8428 H         1 UNK         0.3800 
    244 H244       -0.2088  -17.3008  -53.1573 H         1 UNK         0.0800 
    245 H245       -0.6210  -16.4393  -51.6935 H         1 UNK         0.0800 
    246 H246       -0.0680  -19.6751  -53.2482 H         1 UNK         0.0800 
    247 H247       -0.7714  -20.8226  -52.1411 H         1 UNK         0.0800 
@<TRIPOS>BOND
     1    1    2 1    
     2    1  127 1    
     3    1  128 1    
     4    1  129 1    
     5    2    3 2    
     6    2    4 am   BACKBONE|DICT|INTERRES
     7    4    5 1    
     8    4  130 1    
     9    5    6 1    
    10    5   65 1    
    11    5  131 1    
    12    6    7 1    
    13    6  132 1    
    14    6  133 1    
    15    7    8 1    
    16    8    9 1    
    17    8  134 1    
    18    8  135 1    
    19    9   10 ar   
    20    9   14 ar   
    21   10   11 ar   
    22   10  136 1    
    23   11   12 ar   
    24   11  126 1    
    25   12   13 ar   
    26   12  137 1    
    27   13   14 ar   
    28   13   15 1    
    29   14  138 1    
    30   15   16 1    
    31   15  139 1    
    32   15  140 1    
    33   16   17 1    
    34   17   18 1    
    35   17  141 1    
    36   17  142 1    
    37   18   19 1    
    38   18   67 1    
    39   18  143 1    
    40   19   20 am   BACKBONE|DICT|INTERRES
    41   19  144 1    
    42   20   21 2    
    43   20   22 1    
    44   22   23 1    
    45   22   24 1    
    46   22  145 1    
    47   23  146 1    
    48   23  147 1    
    49   23  148 1    
    50   24   25 am   BACKBONE|DICT|INTERRES
    51   24  149 1    
    52   25   26 2    
    53   25   27 1    
    54   27   28 1    
    55   27   29 1    
    56   27  150 1    
    57   28  151 1    
    58   28  152 1    
    59   28  153 1    
    60   29   30 am   BACKBONE|DICT|INTERRES
    61   29  154 1    
    62   30   31 2    
    63   30   32 1    
    64   32   33 1    
    65   32   34 1    
    66   32  155 1    
    67   33  156 1    
    68   33  157 1    
    69   33  158 1    
    70   34   35 am   BACKBONE|DICT|INTERRES
    71   34  159 1    
    72   35   36 2    
    73   35   37 1    
    74   37   38 1    
    75   37   39 1    
    76   37  160 1    
    77   38  161 1    
    78   38  162 1    
    79   38  163 1    
    80   39   40 am   BACKBONE|DICT|INTERRES
    81   39  164 1    
    82   40   41 2    
    83   40   42 1    
    84   42   43 1    
    85   42   44 1    
    86   42  165 1    
    87   43  166 1    
    88   43  167 1    
    89   43  168 1    
    90   44   45 am   BACKBONE|DICT|INTERRES
    91   44  169 1    
    92   45   46 2    
    93   45   47 1    
    94   47   48 1    
    95   47   49 1    
    96   47  170 1    
    97   48  171 1    
    98   48  172 1    
    99   48  173 1    
   100   49   50 am   BACKBONE|DICT|INTERRES
   101   49  174 1    
   102   50   51 2    
   103   50   52 1    
   104   52   53 1    
   105   52   54 1    
   106   52  175 1    
   107   53  176 1    
   108   53  177 1    
   109   53  178 1    
   110   54   55 am   BACKBONE|DICT|INTERRES
   111   54  179 1    
   112   55   56 2    
   113   55   57 1    
   114   57   58 1    
   115   57   59 1    
   116   57  180 1    
   117   58  181 1    
   118   58  182 1    
   119   58  183 1    
   120   59   60 am   BACKBONE|DICT|INTERRES
   121   59  184 1    
   122   60   61 2    
   123   60   62 1    
   124   62   63 1    
   125   62   64 1    
   126   62  185 1    
   127   63  186 1    
   128   63  187 1    
   129   63  188 1    
   130   64   65 am   BACKBONE|DICT|INTERRES
   131   64  189 1    
   132   65   66 2    
   133   67   68 2    
   134   67   69 am   BACKBONE|DICT|INTERRES
   135   69   70 1    
   136   69  190 1    
   137   70   71 1    
   138   70   72 1    
   139   70  191 1    
   140   71  192 1    
   141   71  193 1    
   142   71  194 1    
   143   72   73 2    
   144   72   74 am   BACKBONE|DICT|INTERRES
   145   74   75 1    
   146   74  195 1    
   147   75   76 1    
   148   75   77 1    
   149   75  196 1    
   150   76  197 1    
   151   76  198 1    
   152   76  199 1    
   153   77   78 2    
   154   77   79 am   BACKBONE|DICT|INTERRES
   155   79   80 1    
   156   79  200 1    
   157   80   81 1    
   158   80   82 1    
   159   80  201 1    
   160   81  202 1    
   161   81  203 1    
   162   81  204 1    
   163   82   83 2    
   164   82   84 am   BACKBONE|DICT|INTERRES
   165   84   85 1    
   166   84  205 1    
   167   85   86 1    
   168   85   87 1    
   169   85  206 1    
   170   86  207 1    
   171   86  208 1    
   172   86  209 1    
   173   87   88 2    
   174   87   89 am   BACKBONE|DICT|INTERRES
   175   89   90 1    
   176   89  210 1    
   177   90   91 1    
   178   90   92 1    
   179   90  211 1    
   180   91  212 1    
   181   91  213 1    
   182   91  214 1    
   183   92   93 2    
   184   92   94 am   BACKBONE|DICT|INTERRES
   185   94   95 1    
   186   94  215 1    
   187   95   96 1    
   188   95   97 1    
   189   95  216 1    
   190   96  217 1    
   191   96  218 1    
   192   96  219 1    
   193   97   98 2    
   194   97   99 am   BACKBONE|DICT|INTERRES
   195   99  100 1    
   196   99  220 1    
   197  100  101 1    
   198  100  102 1    
   199  100  221 1    
   200  101  222 1    
   201  101  223 1    
   202  101  224 1    
   203  102  103 2    
   204  102  104 am   BACKBONE|DICT|INTERRES
   205  104  105 1    
   206  104  225 1    
   207  105  106 1    
   208  105  107 1    
   209  105  226 1    
   210  106  227 1    
   211  106  228 1    
   212  106  229 1    
   213  107  108 2    
   214  107  109 am   BACKBONE|DICT|INTERRES
   215  109  110 1    
   216  109  230 1    
   217  110  111 1    
   218  110  112 1    
   219  110  231 1    
   220  111  232 1    
   221  111  233 1    
   222  111  234 1    
   223  112  113 2    
   224  112  114 am   BACKBONE|DICT|INTERRES
   225  114  115 1    
   226  114  235 1    
   227  115  116 1    
   228  115  117 1    
   229  115  236 1    
   230  116  237 1    
   231  116  238 1    
   232  116  239 1    
   233  117  118 2    
   234  117  119 am   BACKBONE|DICT|INTERRES
   235  119  120 1    
   236  119  240 1    
   237  120  121 1    
   238  120  124 1    
   239  120  241 1    
   240  121  122 am   BACKBONE|DICT|INTERRES
   241  121  123 2    
   242  122  242 1    
   243  122  243 1    
   244  124  125 1    
   245  124  244 1    
   246  124  245 1    
   247  125  126 1    
   248  126  246 1    
   249  126  247 1    
@<TRIPOS>SUBSTRUCTURE
     1 UNK         1 GROUP             0       ****    0 ROOT    
