@<TRIPOS>MOLECULE
3R540
247   249    1
SMALL
USER_CHARGES


@<TRIPOS>ATOM
      1 CA         -0.3522  -11.3262  -44.0803 C.3       0 UNK        -0.1800 
      2 C           0.5496  -11.1211  -45.2886 C.2       0 UNK         0.5000 
      3 O           1.4196  -10.2517  -45.2607 O.2       0 UNK        -0.5000 
      4 N           0.3442  -11.9142  -46.3481 N.am      1 UNK        -0.5000 
      5 CA          1.1364  -11.8826  -47.5852 C.3       1 UNK         0.1400 
      6 C6          0.3384  -12.4432  -48.7880 C.3       23 UNK        -0.0398 
      7 S7         -0.2121  -14.1786  -48.5988 S.3       23 UNK        -0.2404 
      8 C8          0.6412  -14.9552  -50.0065 C.3       23 UNK        -0.0205 
      9 C9          0.1466  -16.3720  -50.2526 C.ar      23 UNK        -0.0193 
     10 C10        -1.1139  -16.5791  -50.8212 C.ar      23 UNK        -0.1150 
     11 C11        -1.5711  -17.8734  -51.0781 C.ar      23 UNK        -0.0193 
     12 C12        -0.7650  -18.9647  -50.7496 C.ar      23 UNK        -0.1150 
     13 C13         0.5049  -18.7763  -50.1977 C.ar      23 UNK        -0.0193 
     14 C14         0.9561  -17.4728  -49.9529 C.ar      23 UNK        -0.1150 
     15 C15         1.3829  -19.9961  -49.9307 C.3       23 UNK        -0.0205 
     16 S16         2.3623  -19.9214  -48.3939 S.3       23 UNK        -0.2404 
     17 C17         1.0875  -19.6481  -47.1217 C.3       23 UNK        -0.0398 
     18 CA          0.4218  -20.9579  -46.6214 C.3       11 UNK         0.1400 
     19 N           0.1978  -20.9406  -45.1732 N.am      11 UNK        -0.5000 
     20 C          -0.2144  -21.9828  -44.4390 C.2       10 UNK         0.5000 
     21 O          -0.3784  -23.1138  -44.8944 O.2       10 UNK        -0.5000 
     22 CA         -0.5411  -21.7069  -42.9581 C.3       10 UNK         0.1400 
     23 CB          0.7181  -21.8151  -42.0855 C.3       10 UNK        -0.1800 
     24 N          -1.1727  -20.4009  -42.7558 N.am      10 UNK        -0.5000 
     25 C          -2.3928  -20.0768  -43.2090 C.2       9 UNK         0.5000 
     26 O          -3.1406  -20.8705  -43.7786 O.2       9 UNK        -0.5000 
     27 CA         -2.8366  -18.6119  -43.0416 C.3       9 UNK         0.1400 
     28 CB         -3.3949  -18.3668  -41.6321 C.3       9 UNK        -0.1800 
     29 N          -1.7620  -17.6583  -43.3209 N.am      9 UNK        -0.5000 
     30 C          -1.1617  -17.5150  -44.5113 C.2       8 UNK         0.5000 
     31 O          -1.4845  -18.1416  -45.5193 O.2       8 UNK        -0.5000 
     32 CA          0.0436  -16.5606  -44.5720 C.3       8 UNK         0.1400 
     33 CB         -0.4123  -15.1003  -44.6946 C.3       8 UNK        -0.1800 
     34 N           0.9266  -16.7043  -43.4142 N.am      8 UNK        -0.5000 
     35 C           1.6142  -17.8154  -43.1142 C.2       7 UNK         0.5000 
     36 O           1.6023  -18.8320  -43.8040 O.2       7 UNK        -0.5000 
     37 CA          2.4042  -17.8113  -41.7956 C.3       7 UNK         0.1400 
     38 CB          3.7609  -17.1088  -41.9606 C.3       7 UNK        -0.1800 
     39 N           1.6439  -17.1873  -40.7139 N.am      7 UNK        -0.5000 
     40 C           0.5369  -17.7149  -40.1711 C.2       6 UNK         0.5000 
     41 O           0.0715  -18.8086  -40.4919 O.2       6 UNK        -0.5000 
     42 CA         -0.1944  -16.8508  -39.1276 C.3       6 UNK         0.1400 
     43 CB          0.4397  -17.0241  -37.7395 C.3       6 UNK        -0.1800 
     44 N          -0.1998  -15.4309  -39.4857 N.am      6 UNK        -0.5000 
     45 C          -0.8554  -14.9195  -40.5376 C.2       5 UNK         0.5000 
     46 O          -1.5623  -15.5868  -41.2913 O.2       5 UNK        -0.5000 
     47 CA         -0.6364  -13.4234  -40.8292 C.3       5 UNK         0.1400 
     48 CB         -1.6115  -12.5602  -40.0161 C.3       5 UNK        -0.1800 
     49 N           0.7393  -12.9866  -40.5698 N.am      5 UNK        -0.5000 
     50 C           1.8097  -13.4357  -41.2368 C.2       4 UNK         0.5000 
     51 O           1.7436  -14.2429  -42.1689 O.2       4 UNK        -0.5000 
     52 CA          3.1799  -12.9462  -40.7502 C.3       4 UNK         0.1400 
     53 CB          3.5507  -13.6112  -39.4105 C.3       4 UNK        -0.1800 
     54 N           4.1696  -13.2879  -41.7633 N.am      4 UNK        -0.5000 
     55 C           5.3931  -12.7658  -41.8953 C.2       3 UNK         0.5000 
     56 O           5.8538  -11.9063  -41.1429 O.2       3 UNK        -0.5000 
     57 CA          6.2563  -13.2958  -43.0605 C.3       3 UNK         0.1400 
     58 CB          7.2712  -14.3268  -42.5424 C.3       3 UNK        -0.1800 
     59 N           5.4813  -13.9067  -44.1461 N.am      3 UNK        -0.5000 
     60 C           4.6751  -13.2388  -44.9824 C.2       2 UNK         0.5000 
     61 O           4.5283  -12.0156  -44.9374 O.2       2 UNK        -0.5000 
     62 CA          3.9116  -14.0763  -46.0322 C.3       2 UNK         0.1400 
     63 CB          3.5612  -15.4906  -45.5316 C.3       2 UNK        -0.1800 
     64 N           2.6703  -13.4057  -46.4094 N.am      2 UNK        -0.5000 
     65 C           2.5171  -12.5641  -47.4397 C.2       1 UNK         0.5000 
     66 O           3.4031  -12.3157  -48.2593 O.2       1 UNK        -0.5000 
     67 C          -0.8873  -21.2525  -47.3843 C.2       11 UNK         0.5000 
     68 O          -0.9212  -22.1562  -48.2176 O.2       11 UNK        -0.5000 
     69 N          -1.9539  -20.5202  -47.0367 N.am      12 UNK        -0.5000 
     70 CA         -3.2953  -20.6467  -47.6100 C.3       12 UNK         0.1400 
     71 CB         -4.1483  -19.4654  -47.1223 C.3       12 UNK        -0.1800 
     72 C          -3.9995  -21.9829  -47.2950 C.2       12 UNK         0.5000 
     73 O          -4.9706  -22.3225  -47.9701 O.2       12 UNK        -0.5000 
     74 N          -3.5221  -22.7104  -46.2749 N.am      13 UNK        -0.5000 
     75 CA         -3.9982  -24.0462  -45.9148 C.3       13 UNK         0.1400 
     76 CB         -3.6380  -24.3393  -44.4500 C.3       13 UNK        -0.1800 
     77 C          -3.4524  -25.1479  -46.8462 C.2       13 UNK         0.5000 
     78 O          -4.0395  -26.2302  -46.8979 O.2       13 UNK        -0.5000 
     79 N          -2.3570  -24.8675  -47.5668 N.am      14 UNK        -0.5000 
     80 CA         -1.8319  -25.7148  -48.6374 C.3       14 UNK         0.1400 
     81 CB         -0.3249  -25.4451  -48.7914 C.3       14 UNK        -0.1800 
     82 C          -2.5798  -25.4435  -49.9580 C.2       14 UNK         0.5000 
     83 O          -3.3842  -24.5144  -50.0375 O.2       14 UNK        -0.5000 
     84 N          -2.2994  -26.2554  -50.9863 N.am      15 UNK        -0.5000 
     85 CA         -2.8611  -26.0760  -52.3286 C.3       15 UNK         0.1400 
     86 CB         -2.6133  -27.3409  -53.1648 C.3       15 UNK        -0.1800 
     87 C          -2.2962  -24.8372  -53.0491 C.2       15 UNK         0.5000 
     88 O          -3.0378  -24.1746  -53.7770 O.2       15 UNK        -0.5000 
     89 N          -0.9968  -24.5677  -52.8400 N.am      16 UNK        -0.5000 
     90 CA         -0.2178  -23.4501  -53.3910 C.3       16 UNK         0.1400 
     91 CB         -0.6510  -22.1253  -52.7360 C.3       16 UNK        -0.1800 
     92 C          -0.2533  -23.3999  -54.9336 C.2       16 UNK         0.5000 
     93 O          -0.5024  -22.3451  -55.5179 O.2       16 UNK        -0.5000 
     94 N          -0.0348  -24.5692  -55.5555 N.am      17 UNK        -0.5000 
     95 CA         -0.1412  -24.8356  -56.9971 C.3       17 UNK         0.1400 
     96 CB          0.9012  -24.0278  -57.7997 C.3       17 UNK        -0.1800 
     97 C          -1.5833  -24.6742  -57.5291 C.2       17 UNK         0.5000 
     98 O          -1.7809  -24.2471  -58.6679 O.2       17 UNK        -0.5000 
     99 N          -2.5569  -25.0435  -56.6831 N.am      18 UNK        -0.5000 
    100 CA        -4.0055  -24.9979  -56.8960 C.3       18 UNK         0.1400 
    101 CB        -4.4304  -25.9690  -58.0177 C.3       18 UNK        -0.1800 
    102 C         -4.5261  -23.5616  -57.0993 C.2       18 UNK         0.5000 
    103 O         -5.2590  -23.2924  -58.0537 O.2       18 UNK        -0.5000 
    104 N         -4.1588  -22.6602  -56.1788 N.am      19 UNK        -0.5000 
    105 CA        -4.5631  -21.2490  -56.1540 C.3       19 UNK         0.1400 
    106 CB        -3.5312  -20.4518  -55.3357 C.3       19 UNK        -0.1800 
    107 C         -6.0090  -21.0512  -55.6404 C.2       19 UNK         0.5000 
    108 O         -6.2469  -20.2324  -54.7497 O.2       19 UNK        -0.5000 
    109 N         -6.9519  -21.8263  -56.1953 N.am      20 UNK        -0.5000 
    110 CA        -8.3550  -21.9486  -55.7901 C.3       20 UNK         0.1400 
    111 CB        -9.1367  -20.6656  -56.1534 C.3       20 UNK        -0.1800 
    112 C         -8.4667  -22.3681  -54.3074 C.2       20 UNK         0.5000 
    113 O         -7.7817  -23.3075  -53.8957 O.2       20 UNK        -0.5000 
    114 N         -9.2815  -21.6544  -53.5192 N.am      21 UNK        -0.5000 
    115 CA        -9.4463  -21.8543  -52.0754 C.3       21 UNK         0.1400 
    116 CB       -10.6266  -20.9982  -51.5901 C.3       21 UNK        -0.1800 
    117 C         -8.1782  -21.5465  -51.2484 C.2       21 UNK         0.5000 
    118 O         -8.0749  -22.0118  -50.1137 O.2       21 UNK        -0.5000 
    119 N         -7.2475  -20.7798  -51.8290 N.am      22 UNK        -0.5000 
    120 CA        -5.9170  -20.4788  -51.2839 C.3       22 UNK         0.1400 
    121 C         -4.8271  -21.5067  -51.7264 C.2       22 UNK         0.5000 
    122 N         -5.1369  -22.5181  -52.5321 N.am      22 UNK        -0.7600 
    123 O         -3.6730  -21.3895  -51.3326 O.2       22 UNK        -0.5000 
    124 C124       -5.5420  -19.0099  -51.6265 C.3       23 UNK        -0.0398 
    125 S125       -4.2595  -18.2837  -50.5504 S.3       23 UNK        -0.2404 
    126 C126       -2.9110  -18.1013  -51.7555 C.3       23 UNK        -0.0205 
    127 H127       -1.0409  -12.1590  -44.2222 H         1 UNK         0.0600 
    128 H128       -0.9392  -10.4273  -43.8927 H         1 UNK         0.0600 
    129 H129        0.2532  -11.5280  -43.1973 H         1 UNK         0.0600 
    130 H130       -0.4013  -12.5958  -46.3310 H         1 UNK         0.3000 
    131 H131        1.3446  -10.8347  -47.8124 H         1 UNK         0.0600 
    132 H132       -0.5525  -11.8329  -48.9413 H         1 UNK         0.0800 
    133 H133        0.9199  -12.3321  -49.7048 H         1 UNK         0.0800 
    134 H134        0.4733  -14.3641  -50.9081 H         1 UNK         0.0800 
    135 H135        1.7170  -14.9450  -49.8237 H         1 UNK         0.0800 
    136 H136       -1.7349  -15.7304  -51.0718 H         1 UNK         0.1150 
    137 H137       -1.1267  -19.9640  -50.9470 H         1 UNK         0.1150 
    138 H138        1.9409  -17.3139  -49.5370 H         1 UNK         0.1150 
    139 H139        0.7790  -20.9040  -49.9096 H         1 UNK         0.0800 
    140 H140        2.0693  -20.1114  -50.7703 H         1 UNK         0.0800 
    141 H141        0.3584  -18.9088  -47.4581 H         1 UNK         0.0800 
    142 H142        1.6156  -19.1604  -46.3043 H         1 UNK         0.0800 
    143 H143        1.1028  -21.7909  -46.8097 H         1 UNK         0.0600 
    144 H144        0.3846  -20.0634  -44.6970 H         1 UNK         0.3000 
    145 H145       -1.2457  -22.4733  -42.6281 H         1 UNK         0.0600 
    146 H146        0.4793  -21.6767  -41.0309 H         1 UNK         0.0600 
    147 H147        1.1802  -22.7976  -42.1891 H         1 UNK         0.0600 
    148 H148        1.4660  -21.0711  -42.3584 H         1 UNK         0.0600 
    149 H149       -0.6362  -19.7056  -42.2486 H         1 UNK         0.3000 
    150 H150       -3.6380  -18.4256  -43.7593 H         1 UNK         0.0600 
    151 H151       -3.7859  -17.3540  -41.5342 H         1 UNK         0.0600 
    152 H152       -4.2124  -19.0541  -41.4109 H         1 UNK         0.0600 
    153 H153       -2.6321  -18.5058  -40.8660 H         1 UNK         0.0600 
    154 H154       -1.4753  -17.0584  -42.5527 H         1 UNK         0.3000 
    155 H155        0.6210  -16.8102  -45.4645 H         1 UNK         0.0600 
    156 H156       -1.0290  -14.7976  -43.8488 H         1 UNK         0.0600 
    157 H157       -1.0016  -14.9529  -45.6003 H         1 UNK         0.0600 
    158 H158        0.4415  -14.4263  -44.7422 H         1 UNK         0.0600 
    159 H159        1.0313  -15.8895  -42.8166 H         1 UNK         0.3000 
    160 H160        2.5955  -18.8505  -41.5195 H         1 UNK         0.0600 
    161 H161        3.6476  -16.0623  -42.2364 H         1 UNK         0.0600 
    162 H162        4.3539  -17.5887  -42.7401 H         1 UNK         0.0600 
    163 H163        4.3415  -17.1504  -41.0389 H         1 UNK         0.0600 
    164 H164        1.9348  -16.2673  -40.4227 H         1 UNK         0.3000 
    165 H165       -1.2299  -17.1941  -39.0765 H         1 UNK         0.0600 
    166 H166       -0.1170  -16.4738  -36.9807 H         1 UNK         0.0600 
    167 H167        0.4434  -18.0734  -37.4412 H         1 UNK         0.0600 
    168 H168        1.4723  -16.6732  -37.7194 H         1 UNK         0.0600 
    169 H169        0.3542  -14.8114  -38.9135 H         1 UNK         0.3000 
    170 H170       -0.8477  -13.2663  -41.8879 H         1 UNK         0.0600 
    171 H171       -2.6445  -12.8562  -40.2044 H         1 UNK         0.0600 
    172 H172       -1.4339  -12.6504  -38.9438 H         1 UNK         0.0600 
    173 H173       -1.5228  -11.5073  -40.2847 H         1 UNK         0.0600 
    174 H174        0.8686  -12.3260  -39.8168 H         1 UNK         0.3000 
    175 H175        3.1402  -11.8613  -40.6342 H         1 UNK         0.0600 
    176 H176        3.6096  -14.6964  -39.5035 H         1 UNK         0.0600 
    177 H177        4.5151  -13.2575  -39.0457 H         1 UNK         0.0600 
    178 H178        2.8158  -13.3851  -38.6373 H         1 UNK         0.0600 
    179 H179        3.8330  -13.9444  -42.4551 H         1 UNK         0.3000 
    180 H180        6.8083  -12.4477  -43.4709 H         1 UNK         0.0600 
    181 H181        6.7756  -15.2080  -42.1326 H         1 UNK         0.0600 
    182 H182        7.8916  -13.9022  -41.7519 H         1 UNK         0.0600 
    183 H183        7.9413  -14.6558  -43.3369 H         1 UNK         0.0600 
    184 H184        5.5661  -14.9073  -44.2486 H         1 UNK         0.3000 
    185 H185        4.5583  -14.1757  -46.9061 H         1 UNK         0.0600 
    186 H186        4.4532  -16.1001  -45.3849 H         1 UNK         0.0600 
    187 H187        3.0233  -15.4506  -44.5856 H         1 UNK         0.0600 
    188 H188        2.9337  -16.0189  -46.2500 H         1 UNK         0.0600 
    189 H189        1.8997  -13.4972  -45.7660 H         1 UNK         0.3000 
    190 H190       -1.8279  -19.7717  -46.3586 H         1 UNK         0.3000 
    191 H191       -3.1984  -20.5782  -48.6955 H         1 UNK         0.0600 
    192 H192       -3.6939  -18.5125  -47.3948 H         1 UNK         0.0600 
    193 H193       -5.1427  -19.4901  -47.5698 H         1 UNK         0.0600 
    194 H194       -4.2720  -19.4811  -46.0391 H         1 UNK         0.0600 
    195 H195       -2.7573  -22.3347  -45.7308 H         1 UNK         0.3000 
    196 H196       -5.0870  -24.0578  -45.9977 H         1 UNK         0.0600 
    197 H197       -4.0642  -25.2904  -44.1289 H         1 UNK         0.0600 
    198 H198       -4.0265  -23.5683  -43.7843 H         1 UNK         0.0600 
    199 H199       -2.5606  -24.4005  -44.3019 H         1 UNK         0.0600 
    200 H200       -1.9787  -23.9282  -47.5252 H         1 UNK         0.3000 
    201 H201       -1.9708  -26.7643  -48.3698 H         1 UNK         0.0600 
    202 H202        0.1916  -25.5255  -47.8346 H         1 UNK         0.0600 
    203 H203       -0.1304  -24.4508  -49.1940 H         1 UNK         0.0600 
    204 H204        0.1363  -26.1651  -49.4679 H         1 UNK         0.0600 
    205 H205       -1.6472  -27.0157  -50.8584 H         1 UNK         0.3000 
    206 H206       -3.9410  -25.9398  -52.2351 H         1 UNK         0.0600 
    207 H207       -3.0725  -28.2144  -52.7016 H         1 UNK         0.0600 
    208 H208       -3.0445  -27.2409  -54.1619 H         1 UNK         0.0600 
    209 H209       -1.5489  -27.5458  -53.2853 H         1 UNK         0.0600 
    210 H210       -0.4897  -25.1864  -52.2243 H         1 UNK         0.3000 
    211 H211        0.8217  -23.6287  -53.1127 H         1 UNK         0.0600 
    212 H212       -1.6587  -21.8404  -53.0375 H         1 UNK         0.0600 
    213 H213        0.0172  -21.3100  -53.0148 H         1 UNK         0.0600 
    214 H214       -0.6397  -22.2035  -51.6487 H         1 UNK         0.0600 
    215 H215        0.1669  -25.3742  -54.9791 H         1 UNK         0.3000 
    216 H216        0.1036  -25.8910  -57.1251 H         1 UNK         0.0600 
    217 H217        0.9285  -24.3534  -58.8402 H         1 UNK         0.0600 
    218 H218        1.9033  -24.1623  -57.3928 H         1 UNK         0.0600 
    219 H219        0.6787  -22.9606  -57.8004 H         1 UNK         0.0600 
    220 H220       -2.2747  -25.3082  -55.7509 H         1 UNK         0.3000 
    221 H221       -4.4607  -25.3544  -55.9706 H         1 UNK         0.0600 
    222 H222       -4.0520  -25.6584  -58.9919 H         1 UNK         0.0600 
    223 H223       -4.0680  -26.9783  -57.8231 H         1 UNK         0.0600 
    224 H224       -5.5170  -26.0241  -58.0932 H         1 UNK         0.0600 
    225 H225       -3.5962  -22.9802  -55.3973 H         1 UNK         0.3000 
    226 H226       -4.5379  -20.8637  -57.1752 H         1 UNK         0.0600 
    227 H227       -2.5344  -20.5407  -55.7668 H         1 UNK         0.0600 
    228 H228       -3.7782  -19.3898  -55.3124 H         1 UNK         0.0600 
    229 H229       -3.4807  -20.8013  -54.3048 H         1 UNK         0.0600 
    230 H230       -6.6417  -22.4687  -56.9175 H         1 UNK         0.3000 
    231 H231       -8.7746  -22.7704  -56.3717 H         1 UNK         0.0600 
    232 H232       -8.7963  -19.7994  -55.5848 H         1 UNK         0.0600 
    233 H233      -10.2053  -20.7878  -55.9723 H         1 UNK         0.0600 
    234 H234       -9.0208  -20.4286  -57.2110 H         1 UNK         0.0600 
    235 H235       -9.7963  -20.8881  -53.9285 H         1 UNK         0.3000 
    236 H236       -9.6942  -22.9046  -51.9087 H         1 UNK         0.0600 
    237 H237      -11.5475  -21.2633  -52.1099 H         1 UNK         0.0600 
    238 H238      -10.8040  -21.1447  -50.5238 H         1 UNK         0.0600 
    239 H239      -10.4436  -19.9347  -51.7491 H         1 UNK         0.0600 
    240 H240       -7.3931  -20.4841  -52.7860 H         1 UNK         0.3000 
    241 H241       -5.9709  -20.5578  -50.1963 H         1 UNK         0.0600 
    242 H242       -4.3962  -23.1468  -52.8182 H         1 UNK         0.3800 
    243 H243       -6.0801  -22.6624  -52.8681 H         1 UNK         0.3800 
    244 H244       -5.2542  -18.9204  -52.6748 H         1 UNK         0.0800 
    245 H245       -6.4207  -18.3733  -51.5132 H         1 UNK         0.0800 
    246 H246       -2.8508  -18.9959  -52.3777 H         1 UNK         0.0800 
    247 H247       -3.1396  -17.2749  -52.4301 H         1 UNK         0.0800 
@<TRIPOS>BOND
     1    1    2 1    
     2    1  127 1    
     3    1  128 1    
     4    1  129 1    
     5    2    3 2    
     6    2    4 am   BACKBONE|DICT|INTERRES
     7    4    5 1    
     8    4  130 1    
     9    5    6 1    
    10    5   65 1    
    11    5  131 1    
    12    6    7 1    
    13    6  132 1    
    14    6  133 1    
    15    7    8 1    
    16    8    9 1    
    17    8  134 1    
    18    8  135 1    
    19    9   10 ar   
    20    9   14 ar   
    21   10   11 ar   
    22   10  136 1    
    23   11   12 ar   
    24   11  126 1    
    25   12   13 ar   
    26   12  137 1    
    27   13   14 ar   
    28   13   15 1    
    29   14  138 1    
    30   15   16 1    
    31   15  139 1    
    32   15  140 1    
    33   16   17 1    
    34   17   18 1    
    35   17  141 1    
    36   17  142 1    
    37   18   19 1    
    38   18   67 1    
    39   18  143 1    
    40   19   20 am   BACKBONE|DICT|INTERRES
    41   19  144 1    
    42   20   21 2    
    43   20   22 1    
    44   22   23 1    
    45   22   24 1    
    46   22  145 1    
    47   23  146 1    
    48   23  147 1    
    49   23  148 1    
    50   24   25 am   BACKBONE|DICT|INTERRES
    51   24  149 1    
    52   25   26 2    
    53   25   27 1    
    54   27   28 1    
    55   27   29 1    
    56   27  150 1    
    57   28  151 1    
    58   28  152 1    
    59   28  153 1    
    60   29   30 am   BACKBONE|DICT|INTERRES
    61   29  154 1    
    62   30   31 2    
    63   30   32 1    
    64   32   33 1    
    65   32   34 1    
    66   32  155 1    
    67   33  156 1    
    68   33  157 1    
    69   33  158 1    
    70   34   35 am   BACKBONE|DICT|INTERRES
    71   34  159 1    
    72   35   36 2    
    73   35   37 1    
    74   37   38 1    
    75   37   39 1    
    76   37  160 1    
    77   38  161 1    
    78   38  162 1    
    79   38  163 1    
    80   39   40 am   BACKBONE|DICT|INTERRES
    81   39  164 1    
    82   40   41 2    
    83   40   42 1    
    84   42   43 1    
    85   42   44 1    
    86   42  165 1    
    87   43  166 1    
    88   43  167 1    
    89   43  168 1    
    90   44   45 am   BACKBONE|DICT|INTERRES
    91   44  169 1    
    92   45   46 2    
    93   45   47 1    
    94   47   48 1    
    95   47   49 1    
    96   47  170 1    
    97   48  171 1    
    98   48  172 1    
    99   48  173 1    
   100   49   50 am   BACKBONE|DICT|INTERRES
   101   49  174 1    
   102   50   51 2    
   103   50   52 1    
   104   52   53 1    
   105   52   54 1    
   106   52  175 1    
   107   53  176 1    
   108   53  177 1    
   109   53  178 1    
   110   54   55 am   BACKBONE|DICT|INTERRES
   111   54  179 1    
   112   55   56 2    
   113   55   57 1    
   114   57   58 1    
   115   57   59 1    
   116   57  180 1    
   117   58  181 1    
   118   58  182 1    
   119   58  183 1    
   120   59   60 am   BACKBONE|DICT|INTERRES
   121   59  184 1    
   122   60   61 2    
   123   60   62 1    
   124   62   63 1    
   125   62   64 1    
   126   62  185 1    
   127   63  186 1    
   128   63  187 1    
   129   63  188 1    
   130   64   65 am   BACKBONE|DICT|INTERRES
   131   64  189 1    
   132   65   66 2    
   133   67   68 2    
   134   67   69 am   BACKBONE|DICT|INTERRES
   135   69   70 1    
   136   69  190 1    
   137   70   71 1    
   138   70   72 1    
   139   70  191 1    
   140   71  192 1    
   141   71  193 1    
   142   71  194 1    
   143   72   73 2    
   144   72   74 am   BACKBONE|DICT|INTERRES
   145   74   75 1    
   146   74  195 1    
   147   75   76 1    
   148   75   77 1    
   149   75  196 1    
   150   76  197 1    
   151   76  198 1    
   152   76  199 1    
   153   77   78 2    
   154   77   79 am   BACKBONE|DICT|INTERRES
   155   79   80 1    
   156   79  200 1    
   157   80   81 1    
   158   80   82 1    
   159   80  201 1    
   160   81  202 1    
   161   81  203 1    
   162   81  204 1    
   163   82   83 2    
   164   82   84 am   BACKBONE|DICT|INTERRES
   165   84   85 1    
   166   84  205 1    
   167   85   86 1    
   168   85   87 1    
   169   85  206 1    
   170   86  207 1    
   171   86  208 1    
   172   86  209 1    
   173   87   88 2    
   174   87   89 am   BACKBONE|DICT|INTERRES
   175   89   90 1    
   176   89  210 1    
   177   90   91 1    
   178   90   92 1    
   179   90  211 1    
   180   91  212 1    
   181   91  213 1    
   182   91  214 1    
   183   92   93 2    
   184   92   94 am   BACKBONE|DICT|INTERRES
   185   94   95 1    
   186   94  215 1    
   187   95   96 1    
   188   95   97 1    
   189   95  216 1    
   190   96  217 1    
   191   96  218 1    
   192   96  219 1    
   193   97   98 2    
   194   97   99 am   BACKBONE|DICT|INTERRES
   195   99  100 1    
   196   99  220 1    
   197  100  101 1    
   198  100  102 1    
   199  100  221 1    
   200  101  222 1    
   201  101  223 1    
   202  101  224 1    
   203  102  103 2    
   204  102  104 am   BACKBONE|DICT|INTERRES
   205  104  105 1    
   206  104  225 1    
   207  105  106 1    
   208  105  107 1    
   209  105  226 1    
   210  106  227 1    
   211  106  228 1    
   212  106  229 1    
   213  107  108 2    
   214  107  109 am   BACKBONE|DICT|INTERRES
   215  109  110 1    
   216  109  230 1    
   217  110  111 1    
   218  110  112 1    
   219  110  231 1    
   220  111  232 1    
   221  111  233 1    
   222  111  234 1    
   223  112  113 2    
   224  112  114 am   BACKBONE|DICT|INTERRES
   225  114  115 1    
   226  114  235 1    
   227  115  116 1    
   228  115  117 1    
   229  115  236 1    
   230  116  237 1    
   231  116  238 1    
   232  116  239 1    
   233  117  118 2    
   234  117  119 am   BACKBONE|DICT|INTERRES
   235  119  120 1    
   236  119  240 1    
   237  120  121 1    
   238  120  124 1    
   239  120  241 1    
   240  121  122 am   BACKBONE|DICT|INTERRES
   241  121  123 2    
   242  122  242 1    
   243  122  243 1    
   244  124  125 1    
   245  124  244 1    
   246  124  245 1    
   247  125  126 1    
   248  126  246 1    
   249  126  247 1    
@<TRIPOS>SUBSTRUCTURE
     1 UNK         1 GROUP             0       ****    0 ROOT    
