@<TRIPOS>MOLECULE
3R540
247   249    1
SMALL
USER_CHARGES


@<TRIPOS>ATOM
      1 CA          6.3847  -14.0848  -45.9583 C.3       0 UNK        -0.1800 
      2 C           5.7340  -13.8040  -47.3120 C.2       0 UNK         0.5000 
      3 O           6.3210  -14.1461  -48.3362 O.2       0 UNK        -0.5000 
      4 N           4.5391  -13.2018  -47.3895 N.am      1 UNK        -0.5000 
      5 CA          3.7235  -12.6402  -46.3082 C.3       1 UNK         0.1400 
      6 C6          2.2587  -12.4138  -46.7611 C.3       23 UNK        -0.0398 
      7 S7          1.3959  -13.9777  -47.1298 S.3       23 UNK        -0.2404 
      8 C8          1.4799  -14.0229  -48.9464 C.3       23 UNK        -0.0205 
      9 C9          0.8671  -15.2991  -49.5033 C.ar      23 UNK        -0.0193 
     10 C10        -0.5082  -15.3692  -49.7419 C.ar      23 UNK        -0.1150 
     11 C11        -1.0865  -16.5302  -50.2648 C.ar      23 UNK        -0.0193 
     12 C12        -0.2644  -17.6211  -50.5673 C.ar      23 UNK        -0.1150 
     13 C13         1.1139  -17.5644  -50.3411 C.ar      23 UNK        -0.0193 
     14 C14         1.6731  -16.4030  -49.7990 C.ar      23 UNK        -0.1150 
     15 C15         1.9990  -18.7459  -50.7167 C.3       23 UNK        -0.0205 
     16 S16         2.1846  -19.9441  -49.3584 S.3       23 UNK        -0.2404 
     17 C17         0.5004  -20.6345  -49.2560 C.3       23 UNK        -0.0398 
     18 CA          0.4243  -21.9151  -48.3923 C.3       11 UNK         0.1400 
     19 N           0.6975  -21.6631  -46.9728 N.am      11 UNK        -0.5000 
     20 C           0.8061  -22.6123  -46.0319 C.2       10 UNK         0.5000 
     21 O           0.7444  -23.8180  -46.2699 O.2       10 UNK        -0.5000 
     22 CA          0.9509  -22.1427  -44.5723 C.3       10 UNK         0.1400 
     23 CB          2.3970  -21.7302  -44.2601 C.3       10 UNK        -0.1800 
     24 N           0.0327  -21.0517  -44.2412 N.am      10 UNK        -0.5000 
     25 C          -1.3032  -21.1712  -44.2276 C.2       9 UNK         0.5000 
     26 O          -1.8945  -22.2297  -44.4388 O.2       9 UNK        -0.5000 
     27 CA         -2.1201  -19.8885  -43.9851 C.3       9 UNK         0.1400 
     28 CB         -2.2093  -19.5654  -42.4864 C.3       9 UNK        -0.1800 
     29 N          -1.5807  -18.7351  -44.7024 N.am      9 UNK        -0.5000 
     30 C          -1.4970  -18.6343  -46.0363 C.2       8 UNK         0.5000 
     31 O          -1.9255  -19.4806  -46.8197 O.2       8 UNK        -0.5000 
     32 CA         -0.7561  -17.4028  -46.5810 C.3       8 UNK         0.1400 
     33 CB         -1.6890  -16.1806  -46.5955 C.3       8 UNK        -0.1800 
     34 N           0.4628  -17.1125  -45.8199 N.am      8 UNK        -0.5000 
     35 C           1.5151  -17.9418  -45.7444 C.2       7 UNK         0.5000 
     36 O           1.5666  -19.0241  -46.3214 O.2       7 UNK        -0.5000 
     37 CA          2.6748  -17.5420  -44.8157 C.3       7 UNK         0.1400 
     38 CB          3.6751  -16.6222  -45.5268 C.3       7 UNK        -0.1800 
     39 N           2.2052  -16.9163  -43.5804 N.am      7 UNK        -0.5000 
     40 C           1.5665  -17.5835  -42.6085 C.2       6 UNK         0.5000 
     41 O           1.3635  -18.7978  -42.6331 O.2       6 UNK        -0.5000 
     42 CA          1.0167  -16.7422  -41.4408 C.3       6 UNK         0.1400 
     43 CB          2.1054  -16.5005  -40.3846 C.3       6 UNK        -0.1800 
     44 N           0.4633  -15.4538  -41.8678 N.am      6 UNK        -0.5000 
     45 C          -0.5577  -15.3026  -42.7234 C.2       5 UNK         0.5000 
     46 O          -1.1451  -16.2563  -43.2336 O.2       5 UNK        -0.5000 
     47 CA         -1.0002  -13.8662  -43.0752 C.3       5 UNK         0.1400 
     48 CB         -2.5314  -13.7285  -43.0270 C.3       5 UNK        -0.1800 
     49 N          -0.4126  -12.8451  -42.2035 N.am      5 UNK        -0.5000 
     50 C           0.7779  -12.2627  -42.3841 C.2       4 UNK         0.5000 
     51 O           1.5599  -12.5584  -43.2913 O.2       4 UNK        -0.5000 
     52 CA          1.1784  -11.2154  -41.3295 C.3       4 UNK         0.1400 
     53 CB          2.0285  -11.8682  -40.2285 C.3       4 UNK        -0.1800 
     54 N           1.9377  -10.1193  -41.9219 N.am      4 UNK        -0.5000 
     55 C           1.4497   -9.1864  -42.7470 C.2       3 UNK         0.5000 
     56 O           0.2549   -9.0861  -43.0291 O.2       3 UNK        -0.5000 
     57 CA          2.4625   -8.2136  -43.3869 C.3       3 UNK         0.1400 
     58 CB          2.7806   -7.0331  -42.4494 C.3       3 UNK        -0.1800 
     59 N           3.6837   -8.8680  -43.8794 N.am      3 UNK        -0.5000 
     60 C           4.6682   -9.4603  -43.1890 C.2       2 UNK         0.5000 
     61 O           4.7258   -9.4893  -41.9584 O.2       2 UNK        -0.5000 
     62 CA          5.6993  -10.2334  -44.0314 C.3       2 UNK         0.1400 
     63 CB          6.8886  -10.7446  -43.1984 C.3       2 UNK        -0.1800 
     64 N           5.0522  -11.3768  -44.6760 N.am      2 UNK        -0.5000 
     65 C           4.3584  -11.3249  -45.8197 C.2       1 UNK         0.5000 
     66 O           4.2197  -10.2946  -46.4827 O.2       1 UNK        -0.5000 
     67 C          -0.9348  -22.6142  -48.5962 C.2       11 UNK         0.5000 
     68 O          -1.0019  -23.5889  -49.3443 O.2       11 UNK        -0.5000 
     69 N          -1.9791  -22.1353  -47.9049 N.am      12 UNK        -0.5000 
     70 CA         -3.3206  -22.7200  -47.9161 C.3       12 UNK         0.1400 
     71 CB         -4.2834  -21.8223  -47.1249 C.3       12 UNK        -0.1800 
     72 C          -3.3455  -24.1583  -47.3703 C.2       12 UNK         0.5000 
     73 O          -3.9729  -25.0254  -47.9781 O.2       12 UNK        -0.5000 
     74 N          -2.6329  -24.3964  -46.2601 N.am      13 UNK        -0.5000 
     75 CA         -2.4658  -25.7154  -45.6490 C.3       13 UNK         0.1400 
     76 CB         -1.7877  -25.5661  -44.2788 C.3       13 UNK        -0.1800 
     77 C          -1.6835  -26.6957  -46.5427 C.2       13 UNK         0.5000 
     78 O          -2.0549  -27.8672  -46.6202 O.2       13 UNK        -0.5000 
     79 N          -0.6330  -26.1999  -47.2121 N.am      14 UNK        -0.5000 
     80 CA          0.1763  -26.9574  -48.1671 C.3       14 UNK         0.1400 
     81 CB          1.4483  -26.1664  -48.5090 C.3       14 UNK        -0.1800 
     82 C          -0.6011  -27.3235  -49.4444 C.2       14 UNK         0.5000 
     83 O          -0.4797  -28.4522  -49.9227 O.2       14 UNK        -0.5000 
     84 N          -1.3921  -26.3740  -49.9642 N.am      15 UNK        -0.5000 
     85 CA         -2.2761  -26.5685  -51.1136 C.3       15 UNK         0.1400 
     86 CB         -2.8050  -25.2066  -51.5916 C.3       15 UNK        -0.1800 
     87 C          -3.4467  -27.5179  -50.8032 C.2       15 UNK         0.5000 
     88 O          -3.7855  -28.3552  -51.6402 O.2       15 UNK        -0.5000 
     89 N          -4.0395  -27.3547  -49.6101 N.am      16 UNK        -0.5000 
     90 CA         -5.2030  -28.0735  -49.0766 C.3       16 UNK         0.1400 
     91 CB         -4.8788  -29.5670  -48.8683 C.3       16 UNK        -0.1800 
     92 C          -6.4952  -27.8464  -49.8940 C.2       16 UNK         0.5000 
     93 O          -7.4217  -28.6560  -49.8233 O.2       16 UNK        -0.5000 
     94 N          -6.5359  -26.7428  -50.6472 N.am      17 UNK        -0.5000 
     95 CA         -7.5932  -26.3265  -51.5582 C.3       17 UNK         0.1400 
     96 CB         -7.6349  -27.2559  -52.7878 C.3       17 UNK        -0.1800 
     97 C          -7.2991  -24.8827  -51.9881 C.2       17 UNK         0.5000 
     98 O          -6.1765  -24.4007  -51.8019 O.2       17 UNK        -0.5000 
     99 N          -8.2916  -24.2297  -52.6037 N.am      18 UNK        -0.5000 
    100 CA        -8.2271  -22.8595  -53.1244 C.3       18 UNK         0.1400 
    101 CB        -9.6592  -22.3058  -53.2337 C.3       18 UNK        -0.1800 
    102 C         -7.4461  -22.7410  -54.4557 C.2       18 UNK         0.5000 
    103 O         -7.8683  -22.0143  -55.3583 O.2       18 UNK        -0.5000 
    104 N         -6.3157  -23.4517  -54.5626 N.am      19 UNK        -0.5000 
    105 CA        -5.3669  -23.3829  -55.6723 C.3       19 UNK         0.1400 
    106 CB        -4.2944  -24.4668  -55.4864 C.3       19 UNK        -0.1800 
    107 C         -4.7334  -21.9830  -55.7355 C.2       19 UNK         0.5000 
    108 O         -4.1377  -21.5479  -54.7464 O.2       19 UNK        -0.5000 
    109 N         -4.9373  -21.2872  -56.8635 N.am      20 UNK        -0.5000 
    110 CA        -4.6006  -19.8741  -57.0883 C.3       20 UNK         0.1400 
    111 CB        -3.0707  -19.6809  -57.1508 C.3       20 UNK        -0.1800 
    112 C         -5.2857  -18.9342  -56.0688 C.2       20 UNK         0.5000 
    113 O         -4.6824  -17.9574  -55.6242 O.2       20 UNK        -0.5000 
    114 N         -6.5187  -19.2915  -55.6764 N.am      21 UNK        -0.5000 
    115 CA        -7.3723  -18.7106  -54.6314 C.3       21 UNK         0.1400 
    116 CB        -7.6282  -17.2085  -54.8599 C.3       21 UNK        -0.1800 
    117 C         -6.8902  -18.9895  -53.1928 C.2       21 UNK         0.5000 
    118 O         -7.7295  -19.1700  -52.3103 O.2       21 UNK        -0.5000 
    119 N         -5.5709  -19.0319  -52.9776 N.am      22 UNK        -0.5000 
    120 CA        -4.9213  -19.3283  -51.6925 C.3       22 UNK         0.1400 
    121 C         -5.1631  -20.7831  -51.2076 C.2       22 UNK         0.5000 
    122 N         -4.9599  -21.7853  -52.0514 N.am      22 UNK        -0.7600 
    123 O         -5.5572  -21.0000  -50.0669 O.2       22 UNK        -0.5000 
    124 C124       -3.4073  -19.0032  -51.7262 C.3       23 UNK        -0.0398 
    125 S125       -3.0899  -17.2413  -52.0978 S.3       23 UNK        -0.2404 
    126 C126       -2.5983  -16.5960  -50.4641 C.3       23 UNK        -0.0205 
    127 H127        7.0389  -14.9536  -46.0332 H         1 UNK         0.0600 
    128 H128        5.6596  -14.2985  -45.1761 H         1 UNK         0.0600 
    129 H129        6.9950  -13.2359  -45.6506 H         1 UNK         0.0600 
    130 H130        4.1728  -13.0267  -48.3126 H         1 UNK         0.3000 
    131 H131        3.6925  -13.3380  -45.4709 H         1 UNK         0.0600 
    132 H132        2.2101  -11.7529  -47.6285 H         1 UNK         0.0800 
    133 H133        1.6925  -11.9157  -45.9717 H         1 UNK         0.0800 
    134 H134        0.9604  -13.1546  -49.3548 H         1 UNK         0.0800 
    135 H135        2.5182  -13.9415  -49.2688 H         1 UNK         0.0800 
    136 H136       -1.1306  -14.5179  -49.5039 H         1 UNK         0.1150 
    137 H137       -0.6943  -18.5193  -50.9837 H         1 UNK         0.1150 
    138 H138        2.7378  -16.3542  -49.6184 H         1 UNK         0.1150 
    139 H139        1.6009  -19.2509  -51.5982 H         1 UNK         0.0800 
    140 H140        2.9892  -18.3859  -50.9996 H         1 UNK         0.0800 
    141 H141        0.1662  -20.8419  -50.2745 H         1 UNK         0.0800 
    142 H142       -0.1675  -19.8701  -48.8577 H         1 UNK         0.0800 
    143 H143        1.1911  -22.6063  -48.7484 H         1 UNK         0.0600 
    144 H144        0.8312  -20.6899  -46.7056 H         1 UNK         0.3000 
    145 H145        0.7008  -22.9884  -43.9283 H         1 UNK         0.0600 
    146 H146        2.5060  -21.4325  -43.2171 H         1 UNK         0.0600 
    147 H147        3.0828  -22.5597  -44.4360 H         1 UNK         0.0600 
    148 H148        2.7264  -20.8985  -44.8815 H         1 UNK         0.0600 
    149 H149        0.4474  -20.1534  -44.0223 H         1 UNK         0.3000 
    150 H150       -3.1321  -20.0643  -44.3551 H         1 UNK         0.0600 
    151 H151       -2.8367  -18.6917  -42.3088 H         1 UNK         0.0600 
    152 H152       -1.2279  -19.3632  -42.0573 H         1 UNK         0.0600 
    153 H153       -2.6448  -20.3984  -41.9333 H         1 UNK         0.0600 
    154 H154       -1.2447  -17.9586  -44.1389 H         1 UNK         0.3000 
    155 H155       -0.4568  -17.6184  -47.6078 H         1 UNK         0.0600 
    156 H156       -2.0822  -15.9501  -45.6067 H         1 UNK         0.0600 
    157 H157       -1.1824  -15.2919  -46.9660 H         1 UNK         0.0600 
    158 H158       -2.5442  -16.3588  -47.2479 H         1 UNK         0.0600 
    159 H159        0.4768  -16.2534  -45.2930 H         1 UNK         0.3000 
    160 H160        3.2071  -18.4578  -44.5498 H         1 UNK         0.0600 
    161 H161        3.2441  -15.6465  -45.7369 H         1 UNK         0.0600 
    162 H162        3.9966  -17.0507  -46.4772 H         1 UNK         0.0600 
    163 H163        4.5671  -16.4733  -44.9188 H         1 UNK         0.0600 
    164 H164        2.3216  -15.9178  -43.4908 H         1 UNK         0.3000 
    165 H165        0.2094  -17.3126  -40.9766 H         1 UNK         0.0600 
    166 H166        1.7021  -15.9839  -39.5134 H         1 UNK         0.0600 
    167 H167        2.5264  -17.4443  -40.0352 H         1 UNK         0.0600 
    168 H168        2.9262  -15.9010  -40.7805 H         1 UNK         0.0600 
    169 H169        0.8946  -14.6236  -41.4914 H         1 UNK         0.3000 
    170 H170       -0.6810  -13.6819  -44.1035 H         1 UNK         0.0600 
    171 H171       -3.0131  -14.4201  -43.7196 H         1 UNK         0.0600 
    172 H172       -2.9226  -13.9365  -42.0304 H         1 UNK         0.0600 
    173 H173       -2.8457  -12.7234  -43.3088 H         1 UNK         0.0600 
    174 H174       -0.9756  -12.5662  -41.4122 H         1 UNK         0.3000 
    175 H175        0.2757  -10.8000  -40.8764 H         1 UNK         0.0600 
    176 H176        2.9522  -12.2883  -40.6295 H         1 UNK         0.0600 
    177 H177        2.2976  -11.1452  -39.4581 H         1 UNK         0.0600 
    178 H178        1.4844  -12.6764  -39.7379 H         1 UNK         0.0600 
    179 H179        2.9401  -10.1132  -41.7588 H         1 UNK         0.3000 
    180 H180        1.9780   -7.8009  -44.2732 H         1 UNK         0.0600 
    181 H181        3.2307   -7.3613  -41.5123 H         1 UNK         0.0600 
    182 H182        1.8718   -6.4857  -42.1963 H         1 UNK         0.0600 
    183 H183        3.4640   -6.3275  -42.9217 H         1 UNK         0.0600 
    184 H184        3.7227   -8.9810  -44.8868 H         1 UNK         0.3000 
    185 H185        6.0909   -9.5527  -44.7905 H         1 UNK         0.0600 
    186 H186        7.3998   -9.9192  -42.7012 H         1 UNK         0.0600 
    187 H187        6.5720  -11.4482  -42.4274 H         1 UNK         0.0600 
    188 H188        7.6224  -11.2473  -43.8286 H         1 UNK         0.0600 
    189 H189        5.0873  -12.2449  -44.1620 H         1 UNK         0.3000 
    190 H190       -1.8573  -21.2946  -47.3455 H         1 UNK         0.3000 
    191 H191       -3.6587  -22.7522  -48.9539 H         1 UNK         0.0600 
    192 H192       -3.9992  -21.7461  -46.0757 H         1 UNK         0.0600 
    193 H193       -5.3003  -22.2145  -47.1644 H         1 UNK         0.0600 
    194 H194       -4.3097  -20.8140  -47.5382 H         1 UNK         0.0600 
    195 H195       -2.1837  -23.6163  -45.7888 H         1 UNK         0.3000 
    196 H196       -3.4608  -26.1360  -45.4897 H         1 UNK         0.0600 
    197 H197       -1.6681  -26.5356  -43.7938 H         1 UNK         0.0600 
    198 H198       -2.3808  -24.9396  -43.6124 H         1 UNK         0.0600 
    199 H199       -0.7980  -25.1171  -44.3658 H         1 UNK         0.0600 
    200 H200       -0.3524  -25.2386  -47.0401 H         1 UNK         0.3000 
    201 H201        0.4792  -27.8890  -47.6846 H         1 UNK         0.0600 
    202 H202        2.0445  -25.9752  -47.6167 H         1 UNK         0.0600 
    203 H203        1.2149  -25.2049  -48.9666 H         1 UNK         0.0600 
    204 H204        2.0767  -26.7197  -49.2081 H         1 UNK         0.0600 
    205 H205       -1.3801  -25.4448  -49.5512 H         1 UNK         0.3000 
    206 H206       -1.6916  -27.0102  -51.9233 H         1 UNK         0.0600 
    207 H207       -1.9920  -24.5604  -51.9224 H         1 UNK         0.0600 
    208 H208       -3.4899  -25.3271  -52.4312 H         1 UNK         0.0600 
    209 H209       -3.3462  -24.6828  -50.8025 H         1 UNK         0.0600 
    210 H210       -3.7212  -26.5858  -49.0250 H         1 UNK         0.3000 
    211 H211       -5.3918  -27.6399  -48.0936 H         1 UNK         0.0600 
    212 H212       -4.7498  -30.0905  -49.8158 H         1 UNK         0.0600 
    213 H213       -5.6791  -30.0695  -48.3241 H         1 UNK         0.0600 
    214 H214       -3.9646  -29.6924  -48.2875 H         1 UNK         0.0600 
    215 H215       -5.7525  -26.1009  -50.6205 H         1 UNK         0.3000 
    216 H216       -8.5497  -26.3511  -51.0329 H         1 UNK         0.0600 
    217 H217       -6.6786  -27.2656  -53.3128 H         1 UNK         0.0600 
    218 H218       -8.3976  -26.9387  -53.4997 H         1 UNK         0.0600 
    219 H219       -7.8700  -28.2824  -52.5068 H         1 UNK         0.0600 
    220 H220       -9.1652  -24.7135  -52.7538 H         1 UNK         0.3000 
    221 H221       -7.6990  -22.2420  -52.3957 H         1 UNK         0.0600 
    222 H222      -10.1778  -22.3620  -52.2765 H         1 UNK         0.0600 
    223 H223      -10.2479  -22.8550  -53.9694 H         1 UNK         0.0600 
    224 H224       -9.6527  -21.2564  -53.5317 H         1 UNK         0.0600 
    225 H225       -6.0226  -23.9757  -53.7464 H         1 UNK         0.3000 
    226 H226       -5.9080  -23.5843  -56.5990 H         1 UNK         0.0600 
    227 H227       -4.7407  -25.4593  -55.4221 H         1 UNK         0.0600 
    228 H228       -3.6002  -24.4744  -56.3276 H         1 UNK         0.0600 
    229 H229       -3.7091  -24.3022  -54.5813 H         1 UNK         0.0600 
    230 H230       -5.4560  -21.7303  -57.6094 H         1 UNK         0.3000 
    231 H231       -5.0072  -19.6098  -58.0654 H         1 UNK         0.0600 
    232 H232       -2.5982  -19.8636  -56.1852 H         1 UNK         0.0600 
    233 H233       -2.8173  -18.6633  -57.4501 H         1 UNK         0.0600 
    234 H234       -2.6177  -20.3541  -57.8785 H         1 UNK         0.0600 
    235 H235       -6.8825  -20.1587  -56.0543 H         1 UNK         0.3000 
    236 H236       -8.3320  -19.2193  -54.7347 H         1 UNK         0.0600 
    237 H237       -8.3819  -16.8363  -54.1650 H         1 UNK         0.0600 
    238 H238       -6.7290  -16.6112  -54.7083 H         1 UNK         0.0600 
    239 H239       -7.9940  -17.0185  -55.8689 H         1 UNK         0.0600 
    240 H240       -4.9569  -18.8314  -53.7577 H         1 UNK         0.3000 
    241 H241       -5.3776  -18.6724  -50.9482 H         1 UNK         0.0600 
    242 H242       -5.1767  -22.7301  -51.7547 H         1 UNK         0.3800 
    243 H243       -4.6267  -21.6186  -52.9992 H         1 UNK         0.3800 
    244 H244       -2.9077  -19.6066  -52.4864 H         1 UNK         0.0800 
    245 H245       -2.9396  -19.2670  -50.7760 H         1 UNK         0.0800 
    246 H246       -3.0416  -17.1955  -49.6682 H         1 UNK         0.0800 
    247 H247       -3.0300  -15.5991  -50.3638 H         1 UNK         0.0800 
@<TRIPOS>BOND
     1    1    2 1    
     2    1  127 1    
     3    1  128 1    
     4    1  129 1    
     5    2    3 2    
     6    2    4 am   BACKBONE|DICT|INTERRES
     7    4    5 1    
     8    4  130 1    
     9    5    6 1    
    10    5   65 1    
    11    5  131 1    
    12    6    7 1    
    13    6  132 1    
    14    6  133 1    
    15    7    8 1    
    16    8    9 1    
    17    8  134 1    
    18    8  135 1    
    19    9   10 ar   
    20    9   14 ar   
    21   10   11 ar   
    22   10  136 1    
    23   11   12 ar   
    24   11  126 1    
    25   12   13 ar   
    26   12  137 1    
    27   13   14 ar   
    28   13   15 1    
    29   14  138 1    
    30   15   16 1    
    31   15  139 1    
    32   15  140 1    
    33   16   17 1    
    34   17   18 1    
    35   17  141 1    
    36   17  142 1    
    37   18   19 1    
    38   18   67 1    
    39   18  143 1    
    40   19   20 am   BACKBONE|DICT|INTERRES
    41   19  144 1    
    42   20   21 2    
    43   20   22 1    
    44   22   23 1    
    45   22   24 1    
    46   22  145 1    
    47   23  146 1    
    48   23  147 1    
    49   23  148 1    
    50   24   25 am   BACKBONE|DICT|INTERRES
    51   24  149 1    
    52   25   26 2    
    53   25   27 1    
    54   27   28 1    
    55   27   29 1    
    56   27  150 1    
    57   28  151 1    
    58   28  152 1    
    59   28  153 1    
    60   29   30 am   BACKBONE|DICT|INTERRES
    61   29  154 1    
    62   30   31 2    
    63   30   32 1    
    64   32   33 1    
    65   32   34 1    
    66   32  155 1    
    67   33  156 1    
    68   33  157 1    
    69   33  158 1    
    70   34   35 am   BACKBONE|DICT|INTERRES
    71   34  159 1    
    72   35   36 2    
    73   35   37 1    
    74   37   38 1    
    75   37   39 1    
    76   37  160 1    
    77   38  161 1    
    78   38  162 1    
    79   38  163 1    
    80   39   40 am   BACKBONE|DICT|INTERRES
    81   39  164 1    
    82   40   41 2    
    83   40   42 1    
    84   42   43 1    
    85   42   44 1    
    86   42  165 1    
    87   43  166 1    
    88   43  167 1    
    89   43  168 1    
    90   44   45 am   BACKBONE|DICT|INTERRES
    91   44  169 1    
    92   45   46 2    
    93   45   47 1    
    94   47   48 1    
    95   47   49 1    
    96   47  170 1    
    97   48  171 1    
    98   48  172 1    
    99   48  173 1    
   100   49   50 am   BACKBONE|DICT|INTERRES
   101   49  174 1    
   102   50   51 2    
   103   50   52 1    
   104   52   53 1    
   105   52   54 1    
   106   52  175 1    
   107   53  176 1    
   108   53  177 1    
   109   53  178 1    
   110   54   55 am   BACKBONE|DICT|INTERRES
   111   54  179 1    
   112   55   56 2    
   113   55   57 1    
   114   57   58 1    
   115   57   59 1    
   116   57  180 1    
   117   58  181 1    
   118   58  182 1    
   119   58  183 1    
   120   59   60 am   BACKBONE|DICT|INTERRES
   121   59  184 1    
   122   60   61 2    
   123   60   62 1    
   124   62   63 1    
   125   62   64 1    
   126   62  185 1    
   127   63  186 1    
   128   63  187 1    
   129   63  188 1    
   130   64   65 am   BACKBONE|DICT|INTERRES
   131   64  189 1    
   132   65   66 2    
   133   67   68 2    
   134   67   69 am   BACKBONE|DICT|INTERRES
   135   69   70 1    
   136   69  190 1    
   137   70   71 1    
   138   70   72 1    
   139   70  191 1    
   140   71  192 1    
   141   71  193 1    
   142   71  194 1    
   143   72   73 2    
   144   72   74 am   BACKBONE|DICT|INTERRES
   145   74   75 1    
   146   74  195 1    
   147   75   76 1    
   148   75   77 1    
   149   75  196 1    
   150   76  197 1    
   151   76  198 1    
   152   76  199 1    
   153   77   78 2    
   154   77   79 am   BACKBONE|DICT|INTERRES
   155   79   80 1    
   156   79  200 1    
   157   80   81 1    
   158   80   82 1    
   159   80  201 1    
   160   81  202 1    
   161   81  203 1    
   162   81  204 1    
   163   82   83 2    
   164   82   84 am   BACKBONE|DICT|INTERRES
   165   84   85 1    
   166   84  205 1    
   167   85   86 1    
   168   85   87 1    
   169   85  206 1    
   170   86  207 1    
   171   86  208 1    
   172   86  209 1    
   173   87   88 2    
   174   87   89 am   BACKBONE|DICT|INTERRES
   175   89   90 1    
   176   89  210 1    
   177   90   91 1    
   178   90   92 1    
   179   90  211 1    
   180   91  212 1    
   181   91  213 1    
   182   91  214 1    
   183   92   93 2    
   184   92   94 am   BACKBONE|DICT|INTERRES
   185   94   95 1    
   186   94  215 1    
   187   95   96 1    
   188   95   97 1    
   189   95  216 1    
   190   96  217 1    
   191   96  218 1    
   192   96  219 1    
   193   97   98 2    
   194   97   99 am   BACKBONE|DICT|INTERRES
   195   99  100 1    
   196   99  220 1    
   197  100  101 1    
   198  100  102 1    
   199  100  221 1    
   200  101  222 1    
   201  101  223 1    
   202  101  224 1    
   203  102  103 2    
   204  102  104 am   BACKBONE|DICT|INTERRES
   205  104  105 1    
   206  104  225 1    
   207  105  106 1    
   208  105  107 1    
   209  105  226 1    
   210  106  227 1    
   211  106  228 1    
   212  106  229 1    
   213  107  108 2    
   214  107  109 am   BACKBONE|DICT|INTERRES
   215  109  110 1    
   216  109  230 1    
   217  110  111 1    
   218  110  112 1    
   219  110  231 1    
   220  111  232 1    
   221  111  233 1    
   222  111  234 1    
   223  112  113 2    
   224  112  114 am   BACKBONE|DICT|INTERRES
   225  114  115 1    
   226  114  235 1    
   227  115  116 1    
   228  115  117 1    
   229  115  236 1    
   230  116  237 1    
   231  116  238 1    
   232  116  239 1    
   233  117  118 2    
   234  117  119 am   BACKBONE|DICT|INTERRES
   235  119  120 1    
   236  119  240 1    
   237  120  121 1    
   238  120  124 1    
   239  120  241 1    
   240  121  122 am   BACKBONE|DICT|INTERRES
   241  121  123 2    
   242  122  242 1    
   243  122  243 1    
   244  124  125 1    
   245  124  244 1    
   246  124  245 1    
   247  125  126 1    
   248  126  246 1    
   249  126  247 1    
@<TRIPOS>SUBSTRUCTURE
     1 UNK         1 GROUP             0       ****    0 ROOT    
