@<TRIPOS>MOLECULE
3R540
247   249    1
SMALL
USER_CHARGES


@<TRIPOS>ATOM
      1 CA          3.3636  -12.8365  -49.1849 C.3       0 UNK        -0.1800 
      2 C           1.8896  -12.9792  -48.8362 C.2       0 UNK         0.5000 
      3 O           1.0446  -12.3666  -49.4881 O.2       0 UNK        -0.5000 
      4 N           1.5849  -13.7745  -47.8022 N.am      1 UNK        -0.5000 
      5 CA          0.2591  -14.1267  -47.2682 C.3       1 UNK         0.1400 
      6 C6         -0.6568  -14.8641  -48.2824 C.3       23 UNK        -0.0398 
      7 S7         -0.1415  -16.5873  -48.5669 S.3       23 UNK        -0.2404 
      8 C8          0.8870  -16.4387  -50.0619 C.3       23 UNK        -0.0205 
      9 C9          1.2638  -17.8092  -50.6058 C.ar      23 UNK        -0.0193 
     10 C10         0.8514  -18.2073  -51.8816 C.ar      23 UNK        -0.1150 
     11 C11         1.1796  -19.4762  -52.3687 C.ar      23 UNK        -0.0193 
     12 C12         1.9082  -20.3551  -51.5618 C.ar      23 UNK        -0.1150 
     13 C13         2.3193  -19.9752  -50.2805 C.ar      23 UNK        -0.0193 
     14 C14         2.0177  -18.6884  -49.8231 C.ar      23 UNK        -0.1150 
     15 C15         3.0654  -20.9734  -49.3963 C.3       23 UNK        -0.0205 
     16 S16         2.4934  -21.0020  -47.6583 S.3       23 UNK        -0.2404 
     17 C17         0.6866  -21.1875  -47.8466 C.3       23 UNK        -0.0398 
     18 CA          0.1250  -22.4494  -47.1623 C.3       11 UNK         0.1400 
     19 N           0.2638  -22.4119  -45.7056 N.am      11 UNK        -0.5000 
     20 C           0.0390  -23.4442  -44.8825 C.2       10 UNK         0.5000 
     21 O          -0.3644  -24.5439  -45.2661 O.2       10 UNK        -0.5000 
     22 CA          0.2727  -23.1910  -43.3849 C.3       10 UNK         0.1400 
     23 CB          1.7747  -23.1403  -43.0646 C.3       10 UNK        -0.1800 
     24 N          -0.3609  -21.9443  -42.9579 N.am      10 UNK        -0.5000 
     25 C          -1.6498  -21.8355  -42.6077 C.2       9 UNK         0.5000 
     26 O          -2.4226  -22.7922  -42.5451 O.2       9 UNK        -0.5000 
     27 CA         -2.1759  -20.4208  -42.2872 C.3       9 UNK         0.1400 
     28 CB         -1.9801  -20.0978  -40.7983 C.3       9 UNK        -0.1800 
     29 N          -1.5612  -19.3614  -43.0884 N.am      9 UNK        -0.5000 
     30 C          -1.6181  -19.2788  -44.4248 C.2       8 UNK         0.5000 
     31 O          -2.2143  -20.0830  -45.1366 O.2       8 UNK        -0.5000 
     32 CA         -0.8259  -18.1367  -45.0821 C.3       8 UNK         0.1400 
     33 CB         -1.6535  -16.8438  -45.0480 C.3       8 UNK        -0.1800 
     34 N           0.4889  -17.9158  -44.4698 N.am      8 UNK        -0.5000 
     35 C           1.4377  -18.8557  -44.3259 C.2       7 UNK         0.5000 
     36 O           1.3049  -20.0248  -44.6808 O.2       7 UNK        -0.5000 
     37 CA          2.7239  -18.4428  -43.5982 C.3       7 UNK         0.1400 
     38 CB          3.6597  -17.6595  -44.5315 C.3       7 UNK        -0.1800 
     39 N           2.4109  -17.6596  -42.4043 N.am      7 UNK        -0.5000 
     40 C           1.9350  -18.1923  -41.2681 C.2       6 UNK         0.5000 
     41 O           1.8105  -19.4030  -41.0812 O.2       6 UNK        -0.5000 
     42 CA          1.4965  -17.2105  -40.1644 C.3       6 UNK         0.1400 
     43 CB          2.6724  -16.8878  -39.2306 C.3       6 UNK        -0.1800 
     44 N           0.9485  -15.9624  -40.6973 N.am      6 UNK        -0.5000 
     45 C          -0.2015  -15.8647  -41.3798 C.2       5 UNK         0.5000 
     46 O          -0.9563  -16.8162  -41.5822 O.2       5 UNK        -0.5000 
     47 CA         -0.5324  -14.4819  -41.9783 C.3       5 UNK         0.1400 
     48 CB         -1.3593  -13.6470  -40.9904 C.3       5 UNK        -0.1800 
     49 N           0.6562  -13.7208  -42.3773 N.am      5 UNK        -0.5000 
     50 C           1.5330  -14.1108  -43.3105 C.2       4 UNK         0.5000 
     51 O           1.4274  -15.1667  -43.9371 O.2       4 UNK        -0.5000 
     52 CA          2.7219  -13.1668  -43.5707 C.3       4 UNK         0.1400 
     53 CB          3.7560  -13.7660  -44.5402 C.3       4 UNK        -0.1800 
     54 N           2.2732  -11.8816  -44.1005 N.am      4 UNK        -0.5000 
     55 C           1.8439  -10.8465  -43.3662 C.2       3 UNK         0.5000 
     56 O           1.7323  -10.8797  -42.1400 O.2       3 UNK        -0.5000 
     57 CA          1.4640   -9.5728  -44.1395 C.3       3 UNK         0.1400 
     58 CB          2.7203   -8.7708  -44.5135 C.3       3 UNK        -0.1800 
     59 N           0.7203   -9.9026  -45.3550 N.am      3 UNK        -0.5000 
     60 C          -0.6095  -10.0520  -45.4029 C.2       2 UNK         0.5000 
     61 O          -1.3646   -9.8299  -44.4556 O.2       2 UNK        -0.5000 
     62 CA         -1.1829  -10.5706  -46.7328 C.3       2 UNK         0.1400 
     63 CB         -1.1366   -9.4847  -47.8191 C.3       2 UNK        -0.1800 
     64 N          -0.4883  -11.7685  -47.2091 N.am      2 UNK        -0.5000 
     65 C          -0.4990  -12.9593  -46.5968 C.2       1 UNK         0.5000 
     66 O          -1.0893  -13.1671  -45.5372 O.2       1 UNK        -0.5000 
     67 C          -1.3193  -22.7234  -47.6267 C.2       11 UNK         0.5000 
     68 O          -1.4935  -23.2912  -48.7030 O.2       11 UNK        -0.5000 
     69 N          -2.3308  -22.3733  -46.8217 N.am      12 UNK        -0.5000 
     70 CA         -3.7347  -22.7186  -47.0608 C.3       12 UNK         0.1400 
     71 CB         -4.6244  -22.0167  -46.0247 C.3       12 UNK        -0.1800 
     72 C          -4.0053  -24.2357  -47.0740 C.2       12 UNK         0.5000 
     73 O          -4.9321  -24.6725  -47.7562 O.2       12 UNK        -0.5000 
     74 N          -3.1828  -25.0099  -46.3544 N.am      13 UNK        -0.5000 
     75 CA         -3.1985  -26.4691  -46.3817 C.3       13 UNK         0.1400 
     76 CB         -2.9017  -27.0082  -44.9732 C.3       13 UNK        -0.1800 
     77 C          -2.1808  -27.0108  -47.3995 C.2       13 UNK         0.5000 
     78 O          -2.5172  -27.9092  -48.1712 O.2       13 UNK        -0.5000 
     79 N          -0.9524  -26.4739  -47.3711 N.am      14 UNK        -0.5000 
     80 CA          0.1860  -27.0010  -48.1261 C.3       14 UNK         0.1400 
     81 CB          1.4904  -26.4868  -47.4973 C.3       14 UNK        -0.1800 
     82 C           0.1562  -26.6922  -49.6352 C.2       14 UNK         0.5000 
     83 O           0.5923  -27.5339  -50.4219 O.2       14 UNK        -0.5000 
     84 N          -0.3228  -25.5001  -50.0123 N.am      15 UNK        -0.5000 
     85 CA         -0.2952  -24.9861  -51.3863 C.3       15 UNK         0.1400 
     86 CB          0.6471  -23.7707  -51.4318 C.3       15 UNK        -0.1800 
     87 C          -1.6863  -24.5921  -51.9144 C.2       15 UNK         0.5000 
     88 O          -1.8184  -24.3665  -53.1157 O.2       15 UNK        -0.5000 
     89 N          -2.6833  -24.5033  -51.0227 N.am      16 UNK        -0.5000 
     90 CA         -4.0284  -23.9622  -51.2464 C.3       16 UNK         0.1400 
     91 CB         -4.7986  -24.7621  -52.3152 C.3       16 UNK        -0.1800 
     92 C          -4.0148  -22.4366  -51.4909 C.2       16 UNK         0.5000 
     93 O          -4.7910  -21.9170  -52.2984 O.2       16 UNK        -0.5000 
     94 N          -3.1388  -21.7392  -50.7533 N.am      17 UNK        -0.5000 
     95 CA         -3.0822  -20.2789  -50.6771 C.3       17 UNK         0.1400 
     96 CB         -1.7596  -19.8660  -50.0242 C.3       17 UNK        -0.1800 
     97 C          -4.2765  -19.6931  -49.8976 C.2       17 UNK         0.5000 
     98 O          -5.0832  -20.4392  -49.3389 O.2       17 UNK        -0.5000 
     99 N          -4.3957  -18.3572  -49.9078 N.am      18 UNK        -0.5000 
    100 CA        -5.4757  -17.5320  -49.3348 C.3       18 UNK         0.1400 
    101 CB        -5.6452  -17.7673  -47.8208 C.3       18 UNK        -0.1800 
    102 C         -6.8123  -17.6699  -50.0943 C.2       18 UNK         0.5000 
    103 O         -7.4383  -16.6597  -50.4151 O.2       18 UNK        -0.5000 
    104 N         -7.1745  -18.9092  -50.4483 N.am      19 UNK        -0.5000 
    105 CA        -8.1680  -19.2555  -51.4661 C.3       19 UNK         0.1400 
    106 CB        -8.5180  -20.7448  -51.3201 C.3       19 UNK        -0.1800 
    107 C         -7.6672  -18.9633  -52.8982 C.2       19 UNK         0.5000 
    108 O         -8.4827  -18.8844  -53.8172 O.2       19 UNK        -0.5000 
    109 N         -6.3414  -18.8046  -53.0485 N.am      20 UNK        -0.5000 
    110 CA        -5.5998  -18.4924  -54.2733 C.3       20 UNK         0.1400 
    111 CB        -5.9716  -17.0899  -54.7985 C.3       20 UNK        -0.1800 
    112 C         -5.7191  -19.5970  -55.3417 C.2       20 UNK         0.5000 
    113 O         -5.8444  -19.3006  -56.5311 O.2       20 UNK        -0.5000 
    114 N         -5.6594  -20.8565  -54.8924 N.am      21 UNK        -0.5000 
    115 CA        -5.7268  -22.0546  -55.7286 C.3       21 UNK         0.1400 
    116 CB        -6.7551  -23.0220  -55.1185 C.3       21 UNK        -0.1800 
    117 C         -4.3372  -22.6986  -55.9232 C.2       21 UNK         0.5000 
    118 O         -4.2591  -23.8758  -56.2786 O.2       21 UNK        -0.5000 
    119 N         -3.2702  -21.9152  -55.7061 N.am      22 UNK        -0.5000 
    120 CA        -1.8662  -22.2636  -55.9754 C.3       22 UNK         0.1400 
    121 C         -1.6209  -22.6920  -57.4514 C.2       22 UNK         0.5000 
    122 N         -0.8337  -23.7343  -57.6808 N.am      22 UNK        -0.7600 
    123 O         -2.0983  -22.0567  -58.3894 O.2       22 UNK        -0.5000 
    124 C124       -0.9164  -21.0919  -55.6156 C.3       23 UNK        -0.0398 
    125 S125       -0.8530  -20.7012  -53.8329 S.3       23 UNK        -0.2404 
    126 C126        0.7771  -19.8890  -53.7762 C.3       23 UNK        -0.0205 
    127 H127        3.9983  -13.4134  -48.5119 H         1 UNK         0.0600 
    128 H128        3.5422  -13.1841  -50.2023 H         1 UNK         0.0600 
    129 H129        3.6642  -11.7907  -49.1228 H         1 UNK         0.0600 
    130 H130        2.3473  -14.2347  -47.3265 H         1 UNK         0.3000 
    131 H131        0.4833  -14.8215  -46.4592 H         1 UNK         0.0600 
    132 H132       -1.6798  -14.9215  -47.9050 H         1 UNK         0.0800 
    133 H133       -0.7242  -14.3273  -49.2292 H         1 UNK         0.0800 
    134 H134        1.7961  -15.8851  -49.8265 H         1 UNK         0.0800 
    135 H135        0.3504  -15.8600  -50.8151 H         1 UNK         0.0800 
    136 H136        0.2760  -17.5313  -52.4982 H         1 UNK         0.1150 
    137 H137        2.1522  -21.3395  -51.9346 H         1 UNK         0.1150 
    138 H138        2.3333  -18.3811  -48.8360 H         1 UNK         0.1150 
    139 H139        2.9712  -21.9826  -49.8003 H         1 UNK         0.0800 
    140 H140        4.1284  -20.7308  -49.4132 H         1 UNK         0.0800 
    141 H141        0.4604  -21.2254  -48.9105 H         1 UNK         0.0800 
    142 H142        0.2054  -20.2885  -47.4590 H         1 UNK         0.0800 
    143 H143        0.7166  -23.2950  -47.5142 H         1 UNK         0.0600 
    144 H144        0.6161  -21.5386  -45.3148 H         1 UNK         0.3000 
    145 H145       -0.1594  -24.0268  -42.8305 H         1 UNK         0.0600 
    146 H146        1.9435  -23.0077  -41.9958 H         1 UNK         0.0600 
    147 H147        2.2670  -24.0677  -43.3599 H         1 UNK         0.0600 
    148 H148        2.2759  -22.3231  -43.5843 H         1 UNK         0.0600 
    149 H149        0.1948  -21.1024  -43.0372 H         1 UNK         0.3000 
    150 H150       -3.2466  -20.4139  -42.5011 H         1 UNK         0.0600 
    151 H151       -2.4483  -20.8549  -40.1679 H         1 UNK         0.0600 
    152 H152       -2.4279  -19.1377  -40.5408 H         1 UNK         0.0600 
    153 H153       -0.9230  -20.0552  -40.5329 H         1 UNK         0.0600 
    154 H154       -1.0913  -18.6193  -42.5804 H         1 UNK         0.3000 
    155 H155       -0.6527  -18.4052  -46.1254 H         1 UNK         0.0600 
    156 H156       -1.9743  -16.5926  -44.0377 H         1 UNK         0.0600 
    157 H157       -2.5519  -16.9450  -45.6581 H         1 UNK         0.0600 
    158 H158       -1.0929  -15.9978  -45.4349 H         1 UNK         0.0600 
    159 H159        0.7002  -16.9693  -44.1686 H         1 UNK         0.3000 
    160 H160        3.2462  -19.3517  -43.2912 H         1 UNK         0.0600 
    161 H161        4.5571  -17.3298  -44.0081 H         1 UNK         0.0600 
    162 H162        3.1749  -16.7826  -44.9588 H         1 UNK         0.0600 
    163 H163        3.9803  -18.2859  -45.3650 H         1 UNK         0.0600 
    164 H164        2.4211  -16.6551  -42.5077 H         1 UNK         0.3000 
    165 H165        0.7164  -17.6999  -39.5770 H         1 UNK         0.0600 
    166 H166        2.3562  -16.2527  -38.4029 H         1 UNK         0.0600 
    167 H167        3.0888  -17.7989  -38.7988 H         1 UNK         0.0600 
    168 H168        3.4785  -16.3765  -39.7586 H         1 UNK         0.0600 
    169 H169        1.5031  -15.1287  -40.5707 H         1 UNK         0.3000 
    170 H170       -1.1344  -14.6442  -42.8743 H         1 UNK         0.0600 
    171 H171       -2.2648  -14.1777  -40.6931 H         1 UNK         0.0600 
    172 H172       -0.7967  -13.4214  -40.0837 H         1 UNK         0.0600 
    173 H173       -1.6693  -12.7022  -41.4378 H         1 UNK         0.0600 
    174 H174        0.8004  -12.8206  -41.9350 H         1 UNK         0.3000 
    175 H175        3.2252  -13.0052  -42.6151 H         1 UNK         0.0600 
    176 H176        3.3186  -13.9983  -45.5106 H         1 UNK         0.0600 
    177 H177        4.5875  -13.0801  -44.7030 H         1 UNK         0.0600 
    178 H178        4.1759  -14.6880  -44.1376 H         1 UNK         0.0600 
    179 H179        2.2980  -11.7806  -45.1027 H         1 UNK         0.3000 
    180 H180        0.8498   -8.9497  -43.4856 H         1 UNK         0.0600 
    181 H181        3.3825   -9.3338  -45.1724 H         1 UNK         0.0600 
    182 H182        3.2917   -8.5047  -43.6232 H         1 UNK         0.0600 
    183 H183        2.4566   -7.8415  -45.0188 H         1 UNK         0.0600 
    184 H184        1.2560  -10.0866  -46.1899 H         1 UNK         0.3000 
    185 H185       -2.2289  -10.8346  -46.5630 H         1 UNK         0.0600 
    186 H186       -1.6478   -8.5795  -47.4888 H         1 UNK         0.0600 
    187 H187       -0.1129   -9.2099  -48.0758 H         1 UNK         0.0600 
    188 H188       -1.6298   -9.8211  -48.7313 H         1 UNK         0.0600 
    189 H189        0.0064  -11.7043  -48.0956 H         1 UNK         0.3000 
    190 H190       -2.1385  -21.8065  -46.0003 H         1 UNK         0.3000 
    191 H191       -4.0031  -22.3459  -48.0483 H         1 UNK         0.0600 
    192 H192       -4.3322  -22.2711  -45.0051 H         1 UNK         0.0600 
    193 H193       -5.6711  -22.2964  -46.1508 H         1 UNK         0.0600 
    194 H194       -4.5683  -20.9334  -46.1328 H         1 UNK         0.0600 
    195 H195       -2.4247  -24.5759  -45.8419 H         1 UNK         0.3000 
    196 H196       -4.1880  -26.8298  -46.6709 H         1 UNK         0.0600 
    197 H197       -2.9163  -28.0988  -44.9625 H         1 UNK         0.0600 
    198 H198       -3.6490  -26.6661  -44.2572 H         1 UNK         0.0600 
    199 H199       -1.9236  -26.6899  -44.6111 H         1 UNK         0.0600 
    200 H200       -0.7465  -25.7614  -46.6762 H         1 UNK         0.3000 
    201 H201        0.1800  -28.0882  -48.0199 H         1 UNK         0.0600 
    202 H202        1.5523  -26.7538  -46.4420 H         1 UNK         0.0600 
    203 H203        1.5787  -25.4041  -47.5735 H         1 UNK         0.0600 
    204 H204        2.3596  -26.9205  -47.9934 H         1 UNK         0.0600 
    205 H205       -0.6728  -24.8572  -49.3088 H         1 UNK         0.3000 
    206 H206        0.0931  -25.7409  -52.0727 H         1 UNK         0.0600 
    207 H207        1.6530  -24.0374  -51.1080 H         1 UNK         0.0600 
    208 H208        0.7256  -23.3743  -52.4452 H         1 UNK         0.0600 
    209 H209        0.2918  -22.9614  -50.7931 H         1 UNK         0.0600 
    210 H210       -2.4441  -24.6690  -50.0548 H         1 UNK         0.3000 
    211 H211       -4.5608  -24.1014  -50.3061 H         1 UNK         0.0600 
    212 H212       -4.4414  -24.5481  -53.3228 H         1 UNK         0.0600 
    213 H213       -5.8604  -24.5196  -52.2800 H         1 UNK         0.0600 
    214 H214       -4.7092  -25.8352  -52.1470 H         1 UNK         0.0600 
    215 H215       -2.5455  -22.2493  -50.1100 H         1 UNK         0.3000 
    216 H216       -3.1075  -19.8841  -51.6948 H         1 UNK         0.0600 
    217 H217       -1.5974  -18.7917  -50.1088 H         1 UNK         0.0600 
    218 H218       -0.9170  -20.3543  -50.5118 H         1 UNK         0.0600 
    219 H219       -1.7429  -20.1144  -48.9637 H         1 UNK         0.0600 
    220 H220       -3.6842  -17.8283  -50.3930 H         1 UNK         0.3000 
    221 H221       -5.1505  -16.4983  -49.4636 H         1 UNK         0.0600 
    222 H222       -6.0361  -18.7601  -47.5974 H         1 UNK         0.0600 
    223 H223       -4.6963  -17.6554  -47.2960 H         1 UNK         0.0600 
    224 H224       -6.3410  -17.0441  -47.3940 H         1 UNK         0.0600 
    225 H225       -6.6001  -19.6708  -50.0938 H         1 UNK         0.3000 
    226 H226       -9.0691  -18.6631  -51.2953 H         1 UNK         0.0600 
    227 H227       -8.9150  -20.9615  -50.3282 H         1 UNK         0.0600 
    228 H228       -9.2760  -21.0421  -52.0460 H         1 UNK         0.0600 
    229 H229       -7.6447  -21.3797  -51.4783 H         1 UNK         0.0600 
    230 H230       -5.7802  -18.9211  -52.2193 H         1 UNK         0.3000 
    231 H231       -4.5465  -18.4637  -53.9903 H         1 UNK         0.0600 
    232 H232       -5.8630  -16.3358  -54.0189 H         1 UNK         0.0600 
    233 H233       -6.9989  -17.0511  -55.1616 H         1 UNK         0.0600 
    234 H234       -5.3225  -16.7971  -55.6245 H         1 UNK         0.0600 
    235 H235       -5.5036  -21.0295  -53.9021 H         1 UNK         0.3000 
    236 H236       -6.0812  -21.7971  -56.7285 H         1 UNK         0.0600 
    237 H237       -6.8355  -23.9419  -55.6987 H         1 UNK         0.0600 
    238 H238       -6.4908  -23.2924  -54.0987 H         1 UNK         0.0600 
    239 H239       -7.7465  -22.5694  -55.0924 H         1 UNK         0.0600 
    240 H240       -3.4374  -20.9693  -55.4020 H         1 UNK         0.3000 
    241 H241       -1.6201  -23.1130  -55.3387 H         1 UNK         0.0600 
    242 H242       -0.6533  -24.0128  -58.6330 H         1 UNK         0.3800 
    243 H243       -0.4309  -24.2678  -56.9255 H         1 UNK         0.3800 
    244 H244        0.0990  -21.3316  -55.9372 H         1 UNK         0.0800 
    245 H245       -1.1983  -20.1887  -56.1597 H         1 UNK         0.0800 
    246 H246        1.5317  -20.5630  -54.1846 H         1 UNK         0.0800 
    247 H247        0.7644  -19.0144  -54.4285 H         1 UNK         0.0800 
@<TRIPOS>BOND
     1    1    2 1    
     2    1  127 1    
     3    1  128 1    
     4    1  129 1    
     5    2    3 2    
     6    2    4 am   BACKBONE|DICT|INTERRES
     7    4    5 1    
     8    4  130 1    
     9    5    6 1    
    10    5   65 1    
    11    5  131 1    
    12    6    7 1    
    13    6  132 1    
    14    6  133 1    
    15    7    8 1    
    16    8    9 1    
    17    8  134 1    
    18    8  135 1    
    19    9   10 ar   
    20    9   14 ar   
    21   10   11 ar   
    22   10  136 1    
    23   11   12 ar   
    24   11  126 1    
    25   12   13 ar   
    26   12  137 1    
    27   13   14 ar   
    28   13   15 1    
    29   14  138 1    
    30   15   16 1    
    31   15  139 1    
    32   15  140 1    
    33   16   17 1    
    34   17   18 1    
    35   17  141 1    
    36   17  142 1    
    37   18   19 1    
    38   18   67 1    
    39   18  143 1    
    40   19   20 am   BACKBONE|DICT|INTERRES
    41   19  144 1    
    42   20   21 2    
    43   20   22 1    
    44   22   23 1    
    45   22   24 1    
    46   22  145 1    
    47   23  146 1    
    48   23  147 1    
    49   23  148 1    
    50   24   25 am   BACKBONE|DICT|INTERRES
    51   24  149 1    
    52   25   26 2    
    53   25   27 1    
    54   27   28 1    
    55   27   29 1    
    56   27  150 1    
    57   28  151 1    
    58   28  152 1    
    59   28  153 1    
    60   29   30 am   BACKBONE|DICT|INTERRES
    61   29  154 1    
    62   30   31 2    
    63   30   32 1    
    64   32   33 1    
    65   32   34 1    
    66   32  155 1    
    67   33  156 1    
    68   33  157 1    
    69   33  158 1    
    70   34   35 am   BACKBONE|DICT|INTERRES
    71   34  159 1    
    72   35   36 2    
    73   35   37 1    
    74   37   38 1    
    75   37   39 1    
    76   37  160 1    
    77   38  161 1    
    78   38  162 1    
    79   38  163 1    
    80   39   40 am   BACKBONE|DICT|INTERRES
    81   39  164 1    
    82   40   41 2    
    83   40   42 1    
    84   42   43 1    
    85   42   44 1    
    86   42  165 1    
    87   43  166 1    
    88   43  167 1    
    89   43  168 1    
    90   44   45 am   BACKBONE|DICT|INTERRES
    91   44  169 1    
    92   45   46 2    
    93   45   47 1    
    94   47   48 1    
    95   47   49 1    
    96   47  170 1    
    97   48  171 1    
    98   48  172 1    
    99   48  173 1    
   100   49   50 am   BACKBONE|DICT|INTERRES
   101   49  174 1    
   102   50   51 2    
   103   50   52 1    
   104   52   53 1    
   105   52   54 1    
   106   52  175 1    
   107   53  176 1    
   108   53  177 1    
   109   53  178 1    
   110   54   55 am   BACKBONE|DICT|INTERRES
   111   54  179 1    
   112   55   56 2    
   113   55   57 1    
   114   57   58 1    
   115   57   59 1    
   116   57  180 1    
   117   58  181 1    
   118   58  182 1    
   119   58  183 1    
   120   59   60 am   BACKBONE|DICT|INTERRES
   121   59  184 1    
   122   60   61 2    
   123   60   62 1    
   124   62   63 1    
   125   62   64 1    
   126   62  185 1    
   127   63  186 1    
   128   63  187 1    
   129   63  188 1    
   130   64   65 am   BACKBONE|DICT|INTERRES
   131   64  189 1    
   132   65   66 2    
   133   67   68 2    
   134   67   69 am   BACKBONE|DICT|INTERRES
   135   69   70 1    
   136   69  190 1    
   137   70   71 1    
   138   70   72 1    
   139   70  191 1    
   140   71  192 1    
   141   71  193 1    
   142   71  194 1    
   143   72   73 2    
   144   72   74 am   BACKBONE|DICT|INTERRES
   145   74   75 1    
   146   74  195 1    
   147   75   76 1    
   148   75   77 1    
   149   75  196 1    
   150   76  197 1    
   151   76  198 1    
   152   76  199 1    
   153   77   78 2    
   154   77   79 am   BACKBONE|DICT|INTERRES
   155   79   80 1    
   156   79  200 1    
   157   80   81 1    
   158   80   82 1    
   159   80  201 1    
   160   81  202 1    
   161   81  203 1    
   162   81  204 1    
   163   82   83 2    
   164   82   84 am   BACKBONE|DICT|INTERRES
   165   84   85 1    
   166   84  205 1    
   167   85   86 1    
   168   85   87 1    
   169   85  206 1    
   170   86  207 1    
   171   86  208 1    
   172   86  209 1    
   173   87   88 2    
   174   87   89 am   BACKBONE|DICT|INTERRES
   175   89   90 1    
   176   89  210 1    
   177   90   91 1    
   178   90   92 1    
   179   90  211 1    
   180   91  212 1    
   181   91  213 1    
   182   91  214 1    
   183   92   93 2    
   184   92   94 am   BACKBONE|DICT|INTERRES
   185   94   95 1    
   186   94  215 1    
   187   95   96 1    
   188   95   97 1    
   189   95  216 1    
   190   96  217 1    
   191   96  218 1    
   192   96  219 1    
   193   97   98 2    
   194   97   99 am   BACKBONE|DICT|INTERRES
   195   99  100 1    
   196   99  220 1    
   197  100  101 1    
   198  100  102 1    
   199  100  221 1    
   200  101  222 1    
   201  101  223 1    
   202  101  224 1    
   203  102  103 2    
   204  102  104 am   BACKBONE|DICT|INTERRES
   205  104  105 1    
   206  104  225 1    
   207  105  106 1    
   208  105  107 1    
   209  105  226 1    
   210  106  227 1    
   211  106  228 1    
   212  106  229 1    
   213  107  108 2    
   214  107  109 am   BACKBONE|DICT|INTERRES
   215  109  110 1    
   216  109  230 1    
   217  110  111 1    
   218  110  112 1    
   219  110  231 1    
   220  111  232 1    
   221  111  233 1    
   222  111  234 1    
   223  112  113 2    
   224  112  114 am   BACKBONE|DICT|INTERRES
   225  114  115 1    
   226  114  235 1    
   227  115  116 1    
   228  115  117 1    
   229  115  236 1    
   230  116  237 1    
   231  116  238 1    
   232  116  239 1    
   233  117  118 2    
   234  117  119 am   BACKBONE|DICT|INTERRES
   235  119  120 1    
   236  119  240 1    
   237  120  121 1    
   238  120  124 1    
   239  120  241 1    
   240  121  122 am   BACKBONE|DICT|INTERRES
   241  121  123 2    
   242  122  242 1    
   243  122  243 1    
   244  124  125 1    
   245  124  244 1    
   246  124  245 1    
   247  125  126 1    
   248  126  246 1    
   249  126  247 1    
@<TRIPOS>SUBSTRUCTURE
     1 UNK         1 GROUP             0       ****    0 ROOT    
