@<TRIPOS>MOLECULE
3R540
247   249    1
SMALL
USER_CHARGES


@<TRIPOS>ATOM
      1 CA          2.6589  -14.8127  -48.0826 C.3       0 UNK        -0.1800 
      2 C           1.5202  -15.3788  -47.2472 C.2       0 UNK         0.5000 
      3 O           1.6765  -15.5695  -46.0440 O.2       0 UNK        -0.5000 
      4 N           0.3662  -15.6355  -47.8742 N.am      1 UNK        -0.5000 
      5 CA         -0.8385  -16.1821  -47.2350 C.3       1 UNK         0.1400 
      6 C6         -1.7859  -16.8316  -48.2713 C.3       23 UNK        -0.0398 
      7 S7         -2.3456  -15.6946  -49.5916 S.3       23 UNK        -0.2404 
      8 C8         -4.0676  -15.3540  -49.1025 C.3       23 UNK        -0.0205 
      9 C9         -5.0366  -16.4045  -49.6284 C.ar      23 UNK        -0.0193 
     10 C10        -5.6720  -16.2232  -50.8605 C.ar      23 UNK        -0.1150 
     11 C11        -6.5875  -17.1679  -51.3368 C.ar      23 UNK        -0.0193 
     12 C12        -6.8577  -18.3087  -50.5749 C.ar      23 UNK        -0.1150 
     13 C13        -6.2163  -18.5084  -49.3483 C.ar      23 UNK        -0.0193 
     14 C14        -5.3196  -17.5470  -48.8764 C.ar      23 UNK        -0.1150 
     15 C15        -6.4664  -19.7732  -48.5437 C.3       23 UNK        -0.0205 
     16 S16        -5.5244  -21.1523  -49.2515 S.3       23 UNK        -0.2404 
     17 C17        -5.6632  -22.4352  -47.9678 C.3       23 UNK        -0.0398 
     18 CA         -4.2734  -22.7649  -47.3612 C.3       11 UNK         0.1400 
     19 N          -3.8126  -21.7442  -46.4127 N.am      11 UNK        -0.5000 
     20 C          -2.9212  -20.7857  -46.6877 C.2       10 UNK         0.5000 
     21 O          -2.4362  -20.5914  -47.8029 O.2       10 UNK        -0.5000 
     22 CA         -2.4547  -19.9225  -45.5006 C.3       10 UNK         0.1400 
     23 CB         -3.5284  -18.8799  -45.1559 C.3       10 UNK        -0.1800 
     24 N          -2.0846  -20.6442  -44.2739 N.am      10 UNK        -0.5000 
     25 C          -1.3862  -21.7858  -44.1516 C.2       9 UNK         0.5000 
     26 O          -1.1041  -22.5352  -45.0916 O.2       9 UNK        -0.5000 
     27 CA         -0.9359  -22.1585  -42.7271 C.3       9 UNK         0.1400 
     28 CB          0.2448  -23.1459  -42.7144 C.3       9 UNK        -0.1800 
     29 N          -0.5667  -20.9592  -41.9809 N.am      9 UNK        -0.5000 
     30 C          -0.8964  -20.7068  -40.7064 C.2       8 UNK         0.5000 
     31 O          -1.5333  -21.4893  -40.0002 O.2       8 UNK        -0.5000 
     32 CA         -0.4550  -19.3513  -40.1119 C.3       8 UNK         0.1400 
     33 CB          0.7555  -19.5417  -39.1858 C.3       8 UNK        -0.1800 
     34 N          -0.1222  -18.3466  -41.1236 N.am      8 UNK        -0.5000 
     35 C          -0.9938  -17.8159  -41.9944 C.2       7 UNK         0.5000 
     36 O          -2.2012  -18.0530  -41.9715 O.2       7 UNK        -0.5000 
     37 CA         -0.4223  -16.9168  -43.1081 C.3       7 UNK         0.1400 
     38 CB         -0.6749  -15.4399  -42.7766 C.3       7 UNK        -0.1800 
     39 N           1.0070  -17.1221  -43.3578 N.am      7 UNK        -0.5000 
     40 C           1.5609  -18.2667  -43.7903 C.2       6 UNK         0.5000 
     41 O           0.9009  -19.2692  -44.0656 O.2       6 UNK        -0.5000 
     42 CA          3.1018  -18.3455  -43.8590 C.3       6 UNK         0.1400 
     43 CB          3.6078  -18.3347  -45.3097 C.3       6 UNK        -0.1800 
     44 N           3.7891  -17.2977  -43.1007 N.am      6 UNK        -0.5000 
     45 C           3.7600  -17.1676  -41.7667 C.2       5 UNK         0.5000 
     46 O           3.1769  -17.9546  -41.0202 O.2       5 UNK        -0.5000 
     47 CA          4.4584  -15.9289  -41.1684 C.3       5 UNK         0.1400 
     48 CB          5.8799  -16.2867  -40.7092 C.3       5 UNK        -0.1800 
     49 N           4.5230  -14.7684  -42.0669 N.am      5 UNK        -0.5000 
     50 C           3.4621  -14.1369  -42.5886 C.2       4 UNK         0.5000 
     51 O           2.3011  -14.5129  -42.4187 O.2       4 UNK        -0.5000 
     52 CA          3.7621  -12.9090  -43.4699 C.3       4 UNK         0.1400 
     53 CB          4.3383  -13.3399  -44.8273 C.3       4 UNK        -0.1800 
     54 N           2.5661  -12.0994  -43.7034 N.am      4 UNK        -0.5000 
     55 C           2.0004  -11.2832  -42.8078 C.2       3 UNK         0.5000 
     56 O           2.4765  -11.0683  -41.6918 O.2       3 UNK        -0.5000 
     57 CA          0.6878  -10.5778  -43.2113 C.3       3 UNK         0.1400 
     58 CB          0.9711   -9.3264  -44.0649 C.3       3 UNK        -0.1800 
     59 N          -0.3269  -11.4381  -43.8406 N.am      3 UNK        -0.5000 
     60 C          -0.2907  -12.0525  -45.0303 C.2       2 UNK         0.5000 
     61 O           0.6681  -12.0076  -45.8071 O.2       2 UNK        -0.5000 
     62 CA         -1.5453  -12.8476  -45.4220 C.3       2 UNK         0.1400 
     63 CB         -2.5748  -11.9525  -46.1294 C.3       2 UNK        -0.1800 
     64 N          -1.1301  -13.9108  -46.3238 N.am      2 UNK        -0.5000 
     65 C          -1.5748  -15.1709  -46.3240 C.2       1 UNK         0.5000 
     66 O          -2.5184  -15.5583  -45.6351 O.2       1 UNK        -0.5000 
     67 C          -4.1999  -24.1720  -46.7290 C.2       11 UNK         0.5000 
     68 O          -4.8233  -25.1029  -47.2398 O.2       11 UNK        -0.5000 
     69 N          -3.4183  -24.3175  -45.6494 N.am      12 UNK        -0.5000 
     70 CA         -3.1404  -25.5980  -44.9958 C.3       12 UNK         0.1400 
     71 CB         -3.1315  -25.4054  -43.4722 C.3       12 UNK        -0.1800 
     72 C          -1.8047  -26.1926  -45.4754 C.2       12 UNK         0.5000 
     73 O          -1.6896  -27.4158  -45.5592 O.2       12 UNK        -0.5000 
     74 N          -0.8301  -25.3287  -45.7939 N.am      13 UNK        -0.5000 
     75 CA          0.4847  -25.7170  -46.3064 C.3       13 UNK         0.1400 
     76 CB          1.4605  -25.9555  -45.1414 C.3       13 UNK        -0.1800 
     77 C           1.0536  -24.6839  -47.2913 C.2       13 UNK         0.5000 
     78 O           1.7701  -25.0761  -48.2128 O.2       13 UNK        -0.5000 
     79 N           0.7336  -23.3933  -47.1042 N.am      14 UNK        -0.5000 
     80 CA          1.2080  -22.3067  -47.9668 C.3       14 UNK         0.1400 
     81 CB          1.0889  -20.9718  -47.2178 C.3       14 UNK        -0.1800 
     82 C           0.4806  -22.2458  -49.3236 C.2       14 UNK         0.5000 
     83 O           1.0345  -21.6919  -50.2728 O.2       14 UNK        -0.5000 
     84 N          -0.7322  -22.8168  -49.3939 N.am      15 UNK        -0.5000 
     85 CA         -1.5648  -22.9962  -50.5900 C.3       15 UNK         0.1400 
     86 CB         -0.9653  -24.1001  -51.4851 C.3       15 UNK        -0.1800 
     87 C          -1.8266  -21.6880  -51.3642 C.2       15 UNK         0.5000 
     88 O          -1.6629  -21.6553  -52.5865 O.2       15 UNK        -0.5000 
     89 N          -2.2219  -20.6344  -50.6365 N.am      16 UNK        -0.5000 
     90 CA         -2.4622  -19.2716  -51.1280 C.3       16 UNK         0.1400 
     91 CB         -3.6337  -19.2260  -52.1290 C.3       16 UNK        -0.1800 
     92 C          -1.1790  -18.6019  -51.6660 C.2       16 UNK         0.5000 
     93 O          -1.2338  -17.8454  -52.6352 O.2       16 UNK        -0.5000 
     94 N          -0.0445  -18.9115  -51.0185 N.am      17 UNK        -0.5000 
     95 CA          1.3234  -18.5401  -51.3939 C.3       17 UNK         0.1400 
     96 CB          1.5289  -17.0120  -51.3419 C.3       17 UNK        -0.1800 
     97 C           1.7240  -19.1768  -52.7400 C.2       17 UNK         0.5000 
     98 O           2.1666  -18.4812  -53.6561 O.2       17 UNK        -0.5000 
     99 N           1.5416  -20.5036  -52.8142 N.am      18 UNK        -0.5000 
    100 CA         1.7832  -21.3807  -53.9624 C.3       18 UNK         0.1400 
    101 CB         3.2939  -21.4850  -54.2581 C.3       18 UNK        -0.1800 
    102 C          0.9443  -20.9918  -55.1983 C.2       18 UNK         0.5000 
    103 O          1.4774  -20.8855  -56.3048 O.2       18 UNK        -0.5000 
    104 N         -0.3613  -20.7954  -54.9813 N.am      19 UNK        -0.5000 
    105 CA        -1.3492  -20.4443  -56.0026 C.3       19 UNK         0.1400 
    106 CB        -1.8005  -18.9870  -55.8037 C.3       19 UNK        -0.1800 
    107 C         -2.5226  -21.4407  -55.9803 C.2       19 UNK         0.5000 
    108 O         -3.6687  -21.0525  -56.2143 O.2       19 UNK        -0.5000 
    109 N         -2.2131  -22.7129  -55.6807 N.am      20 UNK        -0.5000 
    110 CA        -3.1152  -23.8728  -55.6616 C.3       20 UNK         0.1400 
    111 CB        -3.5191  -24.2512  -57.1016 C.3       20 UNK        -0.1800 
    112 C         -4.3354  -23.6958  -54.7324 C.2       20 UNK         0.5000 
    113 O         -5.4306  -24.1632  -55.0523 O.2       20 UNK        -0.5000 
    114 N         -4.1316  -22.9772  -53.6175 N.am      21 UNK        -0.5000 
    115 CA        -5.1390  -22.5959  -52.6194 C.3       21 UNK         0.1400 
    116 CB        -5.6260  -23.8382  -51.8441 C.3       21 UNK        -0.1800 
    117 C         -6.2986  -21.7507  -53.1955 C.2       21 UNK         0.5000 
    118 O         -7.3978  -21.7629  -52.6396 O.2       21 UNK        -0.5000 
    119 N         -6.0389  -21.0588  -54.3156 N.am      22 UNK        -0.5000 
    120 CA        -7.0225  -20.3447  -55.1459 C.3       22 UNK         0.1400 
    121 C         -8.0688  -21.2760  -55.8379 C.2       22 UNK         0.5000 
    122 N         -7.8343  -22.5798  -55.9485 N.am      22 UNK        -0.7600 
    123 O         -9.0996  -20.8108  -56.3173 O.2       22 UNK        -0.5000 
    124 C124       -7.6697  -19.1267  -54.4256 C.3       23 UNK        -0.0398 
    125 S125       -6.4512  -17.8282  -54.0243 S.3       23 UNK        -0.2404 
    126 C126       -7.2878  -16.9466  -52.6687 C.3       23 UNK        -0.0205 
    127 H127        2.4011  -14.7610  -49.1404 H         1 UNK         0.0600 
    128 H128        3.5464  -15.4368  -47.9781 H         1 UNK         0.0600 
    129 H129        2.9053  -13.8063  -47.7441 H         1 UNK         0.0600 
    130 H130        0.2717  -15.4251  -48.8577 H         1 UNK         0.3000 
    131 H131       -0.5088  -16.9834  -46.5696 H         1 UNK         0.0600 
    132 H132       -2.6417  -17.2859  -47.7761 H         1 UNK         0.0800 
    133 H133       -1.2611  -17.6606  -48.7446 H         1 UNK         0.0800 
    134 H134       -4.3478  -14.3735  -49.4903 H         1 UNK         0.0800 
    135 H135       -4.1432  -15.2766  -48.0169 H         1 UNK         0.0800 
    136 H136       -5.4569  -15.3417  -51.4481 H         1 UNK         0.1150 
    137 H137       -7.5482  -19.0531  -50.9467 H         1 UNK         0.1150 
    138 H138       -4.8393  -17.6934  -47.9230 H         1 UNK         0.1150 
    139 H139       -6.1748  -19.6279  -47.5022 H         1 UNK         0.0800 
    140 H140       -7.5299  -20.0158  -48.5447 H         1 UNK         0.0800 
    141 H141       -6.1071  -23.3034  -48.4569 H         1 UNK         0.0800 
    142 H142       -6.3670  -22.1321  -47.1915 H         1 UNK         0.0800 
    143 H143       -3.5610  -22.8268  -48.1845 H         1 UNK         0.0600 
    144 H144       -4.1762  -21.8126  -45.4727 H         1 UNK         0.3000 
    145 H145       -1.5621  -19.3860  -45.8267 H         1 UNK         0.0600 
    146 H146       -3.1539  -18.1395  -44.4510 H         1 UNK         0.0600 
    147 H147       -3.8509  -18.3345  -46.0401 H         1 UNK         0.0600 
    148 H148       -4.4132  -19.3414  -44.7162 H         1 UNK         0.0600 
    149 H149       -2.2729  -20.1411  -43.4174 H         1 UNK         0.3000 
    150 H150       -1.7942  -22.6375  -42.2534 H         1 UNK         0.0600 
    151 H151       -0.0257  -24.0895  -43.1868 H         1 UNK         0.0600 
    152 H152        0.5557  -23.3762  -41.6953 H         1 UNK         0.0600 
    153 H153        1.1083  -22.7431  -43.2454 H         1 UNK         0.0600 
    154 H154       -0.0476  -20.2635  -42.5080 H         1 UNK         0.3000 
    155 H155       -1.2863  -18.9676  -39.5172 H         1 UNK         0.0600 
    156 H156        1.6183  -19.9298  -39.7288 H         1 UNK         0.0600 
    157 H157        0.5285  -20.2452  -38.3837 H         1 UNK         0.0600 
    158 H158        1.0490  -18.6010  -38.7194 H         1 UNK         0.0600 
    159 H159        0.8569  -18.1041  -41.2111 H         1 UNK         0.3000 
    160 H160       -0.9505  -17.1612  -44.0303 H         1 UNK         0.0600 
    161 H161       -0.2489  -15.1654  -41.8109 H         1 UNK         0.0600 
    162 H162       -1.7438  -15.2266  -42.7387 H         1 UNK         0.0600 
    163 H163       -0.2357  -14.7884  -43.5313 H         1 UNK         0.0600 
    164 H164        1.6102  -16.3307  -43.1589 H         1 UNK         0.3000 
    165 H165        3.3784  -19.3065  -43.4204 H         1 UNK         0.0600 
    166 H166        4.6616  -18.6091  -45.3569 H         1 UNK         0.0600 
    167 H167        3.0608  -19.0476  -45.9266 H         1 UNK         0.0600 
    168 H168        3.5021  -17.3536  -45.7695 H         1 UNK         0.0600 
    169 H169        4.2703  -16.5921  -43.6381 H         1 UNK         0.3000 
    170 H170        3.8822  -15.6299  -40.2904 H         1 UNK         0.0600 
    171 H171        5.8669  -17.1306  -40.0179 H         1 UNK         0.0600 
    172 H172        6.5170  -16.5616  -41.5507 H         1 UNK         0.0600 
    173 H173        6.3496  -15.4514  -40.1895 H         1 UNK         0.0600 
    174 H174        5.4465  -14.4096  -42.2628 H         1 UNK         0.3000 
    175 H175        4.5035  -12.2927  -42.9572 H         1 UNK         0.0600 
    176 H176        3.6509  -13.9935  -45.3616 H         1 UNK         0.0600 
    177 H177        4.5417  -12.4776  -45.4625 H         1 UNK         0.0600 
    178 H178        5.2773  -13.8811  -44.7066 H         1 UNK         0.0600 
    179 H179        2.0789  -12.2348  -44.5847 H         1 UNK         0.3000 
    180 H180        0.2312  -10.2322  -42.2824 H         1 UNK         0.0600 
    181 H181        1.4463   -9.5766  -45.0137 H         1 UNK         0.0600 
    182 H182        1.6381   -8.6416  -43.5397 H         1 UNK         0.0600 
    183 H183        0.0526   -8.7816  -44.2829 H         1 UNK         0.0600 
    184 H184       -1.1566  -11.5699  -43.2787 H         1 UNK         0.3000 
    185 H185       -1.9898  -13.2710  -44.5191 H         1 UNK         0.0600 
    186 H186       -2.9057  -11.1442  -45.4764 H         1 UNK         0.0600 
    187 H187       -2.1610  -11.5000  -47.0315 H         1 UNK         0.0600 
    188 H188       -3.4587  -12.5224  -46.4168 H         1 UNK         0.0600 
    189 H189       -0.3062  -13.6899  -46.8683 H         1 UNK         0.3000 
    190 H190       -2.8709  -23.5231  -45.3440 H         1 UNK         0.3000 
    191 H191       -3.9273  -26.3181  -45.2308 H         1 UNK         0.0600 
    192 H192       -2.3290  -24.7443  -43.1522 H         1 UNK         0.0600 
    193 H193       -2.9899  -26.3589  -42.9617 H         1 UNK         0.0600 
    194 H194       -4.0745  -24.9859  -43.1214 H         1 UNK         0.0600 
    195 H195       -0.9942  -24.3361  -45.6707 H         1 UNK         0.3000 
    196 H196        0.3852  -26.6503  -46.8650 H         1 UNK         0.0600 
    197 H197        2.4217  -26.3172  -45.5086 H         1 UNK         0.0600 
    198 H198        1.0765  -26.7029  -44.4470 H         1 UNK         0.0600 
    199 H199        1.6502  -25.0400  -44.5814 H         1 UNK         0.0600 
    200 H200        0.1585  -23.1145  -46.3148 H         1 UNK         0.3000 
    201 H201        2.2667  -22.4721  -48.1776 H         1 UNK         0.0600 
    202 H202        1.6478  -20.9965  -46.2824 H         1 UNK         0.0600 
    203 H203        0.0554  -20.7369  -46.9755 H         1 UNK         0.0600 
    204 H204        1.4826  -20.1478  -47.8140 H         1 UNK         0.0600 
    205 H205       -1.0960  -23.2089  -48.5390 H         1 UNK         0.3000 
    206 H206       -2.5395  -23.3462  -50.2492 H         1 UNK         0.0600 
    207 H207       -1.6234  -24.3281  -52.3244 H         1 UNK         0.0600 
    208 H208       -0.8229  -25.0250  -50.9263 H         1 UNK         0.0600 
    209 H209        0.0016  -23.8061  -51.8951 H         1 UNK         0.0600 
    210 H210       -2.3216  -20.7486  -49.6282 H         1 UNK         0.3000 
    211 H211       -2.7717  -18.6912  -50.2596 H         1 UNK         0.0600 
    212 H212       -3.8405  -18.2008  -52.4369 H         1 UNK         0.0600 
    213 H213       -4.5482  -19.6065  -51.6788 H         1 UNK         0.0600 
    214 H214       -3.4367  -19.8034  -53.0307 H         1 UNK         0.0600 
    215 H215       -0.1111  -19.5997  -50.2819 H         1 UNK         0.3000 
    216 H216        1.9772  -18.9801  -50.6393 H         1 UNK         0.0600 
    217 H217        2.5795  -16.7569  -51.4843 H         1 UNK         0.0600 
    218 H218        1.2239  -16.6111  -50.3774 H         1 UNK         0.0600 
    219 H219        0.9610  -16.4937  -52.1147 H         1 UNK         0.0600 
    220 H220        1.2013  -20.9711  -51.9762 H         1 UNK         0.3000 
    221 H221        1.4398  -22.3718  -53.6624 H         1 UNK         0.0600 
    222 H222        3.7081  -20.5355  -54.5986 H         1 UNK         0.0600 
    223 H223        3.8478  -21.7936  -53.3714 H         1 UNK         0.0600 
    224 H224        3.4895  -22.2245  -55.0354 H         1 UNK         0.0600 
    225 H225       -0.7328  -20.9475  -54.0451 H         1 UNK         0.3000 
    226 H226       -0.9090  -20.5236  -56.9982 H         1 UNK         0.0600 
    227 H227       -2.3467  -18.8593  -54.8703 H         1 UNK         0.0600 
    228 H228       -0.9473  -18.3087  -55.7857 H         1 UNK         0.0600 
    229 H229       -2.4563  -18.6649  -56.6133 H         1 UNK         0.0600 
    230 H230       -1.2461  -22.9109  -55.4670 H         1 UNK         0.3000 
    231 H231       -2.5409  -24.7034  -55.2490 H         1 UNK         0.0600 
    232 H232       -2.6420  -24.3923  -57.7331 H         1 UNK         0.0600 
    233 H233       -4.1425  -23.4827  -57.5602 H         1 UNK         0.0600 
    234 H234       -4.0828  -25.1847  -57.1198 H         1 UNK         0.0600 
    235 H235       -3.2055  -22.5871  -53.4725 H         1 UNK         0.3000 
    236 H236       -4.6308  -21.9500  -51.9077 H         1 UNK         0.0600 
    237 H237       -6.2859  -23.5564  -51.0233 H         1 UNK         0.0600 
    238 H238       -4.7890  -24.3854  -51.4106 H         1 UNK         0.0600 
    239 H239       -6.1816  -24.5236  -52.4842 H         1 UNK         0.0600 
    240 H240       -5.1142  -21.1270  -54.7261 H         1 UNK         0.3000 
    241 H241       -6.4446  -19.9466  -55.9806 H         1 UNK         0.0600 
    242 H242       -8.5142  -23.1639  -56.4084 H         1 UNK         0.3800 
    243 H243       -6.9882  -22.9987  -55.5762 H         1 UNK         0.3800 
    244 H244       -8.4266  -18.6592  -55.0572 H         1 UNK         0.0800 
    245 H245       -8.1865  -19.4449  -53.5200 H         1 UNK         0.0800 
    246 H246       -8.3327  -17.2512  -52.5951 H         1 UNK         0.0800 
    247 H247       -7.3053  -15.8822  -52.9076 H         1 UNK         0.0800 
@<TRIPOS>BOND
     1    1    2 1    
     2    1  127 1    
     3    1  128 1    
     4    1  129 1    
     5    2    3 2    
     6    2    4 am   BACKBONE|DICT|INTERRES
     7    4    5 1    
     8    4  130 1    
     9    5    6 1    
    10    5   65 1    
    11    5  131 1    
    12    6    7 1    
    13    6  132 1    
    14    6  133 1    
    15    7    8 1    
    16    8    9 1    
    17    8  134 1    
    18    8  135 1    
    19    9   10 ar   
    20    9   14 ar   
    21   10   11 ar   
    22   10  136 1    
    23   11   12 ar   
    24   11  126 1    
    25   12   13 ar   
    26   12  137 1    
    27   13   14 ar   
    28   13   15 1    
    29   14  138 1    
    30   15   16 1    
    31   15  139 1    
    32   15  140 1    
    33   16   17 1    
    34   17   18 1    
    35   17  141 1    
    36   17  142 1    
    37   18   19 1    
    38   18   67 1    
    39   18  143 1    
    40   19   20 am   BACKBONE|DICT|INTERRES
    41   19  144 1    
    42   20   21 2    
    43   20   22 1    
    44   22   23 1    
    45   22   24 1    
    46   22  145 1    
    47   23  146 1    
    48   23  147 1    
    49   23  148 1    
    50   24   25 am   BACKBONE|DICT|INTERRES
    51   24  149 1    
    52   25   26 2    
    53   25   27 1    
    54   27   28 1    
    55   27   29 1    
    56   27  150 1    
    57   28  151 1    
    58   28  152 1    
    59   28  153 1    
    60   29   30 am   BACKBONE|DICT|INTERRES
    61   29  154 1    
    62   30   31 2    
    63   30   32 1    
    64   32   33 1    
    65   32   34 1    
    66   32  155 1    
    67   33  156 1    
    68   33  157 1    
    69   33  158 1    
    70   34   35 am   BACKBONE|DICT|INTERRES
    71   34  159 1    
    72   35   36 2    
    73   35   37 1    
    74   37   38 1    
    75   37   39 1    
    76   37  160 1    
    77   38  161 1    
    78   38  162 1    
    79   38  163 1    
    80   39   40 am   BACKBONE|DICT|INTERRES
    81   39  164 1    
    82   40   41 2    
    83   40   42 1    
    84   42   43 1    
    85   42   44 1    
    86   42  165 1    
    87   43  166 1    
    88   43  167 1    
    89   43  168 1    
    90   44   45 am   BACKBONE|DICT|INTERRES
    91   44  169 1    
    92   45   46 2    
    93   45   47 1    
    94   47   48 1    
    95   47   49 1    
    96   47  170 1    
    97   48  171 1    
    98   48  172 1    
    99   48  173 1    
   100   49   50 am   BACKBONE|DICT|INTERRES
   101   49  174 1    
   102   50   51 2    
   103   50   52 1    
   104   52   53 1    
   105   52   54 1    
   106   52  175 1    
   107   53  176 1    
   108   53  177 1    
   109   53  178 1    
   110   54   55 am   BACKBONE|DICT|INTERRES
   111   54  179 1    
   112   55   56 2    
   113   55   57 1    
   114   57   58 1    
   115   57   59 1    
   116   57  180 1    
   117   58  181 1    
   118   58  182 1    
   119   58  183 1    
   120   59   60 am   BACKBONE|DICT|INTERRES
   121   59  184 1    
   122   60   61 2    
   123   60   62 1    
   124   62   63 1    
   125   62   64 1    
   126   62  185 1    
   127   63  186 1    
   128   63  187 1    
   129   63  188 1    
   130   64   65 am   BACKBONE|DICT|INTERRES
   131   64  189 1    
   132   65   66 2    
   133   67   68 2    
   134   67   69 am   BACKBONE|DICT|INTERRES
   135   69   70 1    
   136   69  190 1    
   137   70   71 1    
   138   70   72 1    
   139   70  191 1    
   140   71  192 1    
   141   71  193 1    
   142   71  194 1    
   143   72   73 2    
   144   72   74 am   BACKBONE|DICT|INTERRES
   145   74   75 1    
   146   74  195 1    
   147   75   76 1    
   148   75   77 1    
   149   75  196 1    
   150   76  197 1    
   151   76  198 1    
   152   76  199 1    
   153   77   78 2    
   154   77   79 am   BACKBONE|DICT|INTERRES
   155   79   80 1    
   156   79  200 1    
   157   80   81 1    
   158   80   82 1    
   159   80  201 1    
   160   81  202 1    
   161   81  203 1    
   162   81  204 1    
   163   82   83 2    
   164   82   84 am   BACKBONE|DICT|INTERRES
   165   84   85 1    
   166   84  205 1    
   167   85   86 1    
   168   85   87 1    
   169   85  206 1    
   170   86  207 1    
   171   86  208 1    
   172   86  209 1    
   173   87   88 2    
   174   87   89 am   BACKBONE|DICT|INTERRES
   175   89   90 1    
   176   89  210 1    
   177   90   91 1    
   178   90   92 1    
   179   90  211 1    
   180   91  212 1    
   181   91  213 1    
   182   91  214 1    
   183   92   93 2    
   184   92   94 am   BACKBONE|DICT|INTERRES
   185   94   95 1    
   186   94  215 1    
   187   95   96 1    
   188   95   97 1    
   189   95  216 1    
   190   96  217 1    
   191   96  218 1    
   192   96  219 1    
   193   97   98 2    
   194   97   99 am   BACKBONE|DICT|INTERRES
   195   99  100 1    
   196   99  220 1    
   197  100  101 1    
   198  100  102 1    
   199  100  221 1    
   200  101  222 1    
   201  101  223 1    
   202  101  224 1    
   203  102  103 2    
   204  102  104 am   BACKBONE|DICT|INTERRES
   205  104  105 1    
   206  104  225 1    
   207  105  106 1    
   208  105  107 1    
   209  105  226 1    
   210  106  227 1    
   211  106  228 1    
   212  106  229 1    
   213  107  108 2    
   214  107  109 am   BACKBONE|DICT|INTERRES
   215  109  110 1    
   216  109  230 1    
   217  110  111 1    
   218  110  112 1    
   219  110  231 1    
   220  111  232 1    
   221  111  233 1    
   222  111  234 1    
   223  112  113 2    
   224  112  114 am   BACKBONE|DICT|INTERRES
   225  114  115 1    
   226  114  235 1    
   227  115  116 1    
   228  115  117 1    
   229  115  236 1    
   230  116  237 1    
   231  116  238 1    
   232  116  239 1    
   233  117  118 2    
   234  117  119 am   BACKBONE|DICT|INTERRES
   235  119  120 1    
   236  119  240 1    
   237  120  121 1    
   238  120  124 1    
   239  120  241 1    
   240  121  122 am   BACKBONE|DICT|INTERRES
   241  121  123 2    
   242  122  242 1    
   243  122  243 1    
   244  124  125 1    
   245  124  244 1    
   246  124  245 1    
   247  125  126 1    
   248  126  246 1    
   249  126  247 1    
@<TRIPOS>SUBSTRUCTURE
     1 UNK         1 GROUP             0       ****    0 ROOT    
