@<TRIPOS>MOLECULE
3R540
247   249    1
SMALL
USER_CHARGES


@<TRIPOS>ATOM
      1 CA          4.6111   -9.7385  -46.6628 C.3       0 UNK        -0.1800 
      2 C           3.5575  -10.8348  -46.7140 C.2       0 UNK         0.5000 
      3 O           2.3658  -10.5403  -46.6151 O.2       0 UNK        -0.5000 
      4 N           3.9913  -12.0967  -46.8523 N.am      1 UNK        -0.5000 
      5 CA          3.1561  -13.3037  -46.8811 C.3       1 UNK         0.1400 
      6 C6          2.3268  -13.4143  -48.1908 C.3       23 UNK        -0.0398 
      7 S7          1.5611  -15.0561  -48.4275 S.3       23 UNK        -0.2404 
      8 C8          2.7896  -15.8746  -49.4879 C.3       23 UNK        -0.0205 
      9 C9          2.2849  -17.2201  -49.9862 C.ar      23 UNK        -0.0193 
     10 C10         1.3307  -17.2666  -51.0037 C.ar      23 UNK        -0.1150 
     11 C11         0.8611  -18.4888  -51.4965 C.ar      23 UNK        -0.0193 
     12 C12         1.3917  -19.6777  -50.9795 C.ar      23 UNK        -0.1150 
     13 C13         2.3667  -19.6470  -49.9732 C.ar      23 UNK        -0.0193 
     14 C14         2.7926  -18.4138  -49.4678 C.ar      23 UNK        -0.1150 
     15 C15         3.0338  -20.9308  -49.4867 C.3       23 UNK        -0.0205 
     16 S16         1.8849  -22.1565  -48.7835 S.3       23 UNK        -0.2404 
     17 C17         1.2980  -21.3164  -47.2720 C.3       23 UNK        -0.0398 
     18 CA         -0.2110  -21.5531  -47.0282 C.3       11 UNK         0.1400 
     19 N          -0.6379  -21.1570  -45.6862 N.am      11 UNK        -0.5000 
     20 C          -1.8412  -21.4291  -45.1586 C.2       10 UNK         0.5000 
     21 O          -2.6879  -22.1338  -45.7073 O.2       10 UNK        -0.5000 
     22 CA         -2.1755  -20.7657  -43.8105 C.3       10 UNK         0.1400 
     23 CB         -1.6335  -21.5982  -42.6393 C.3       10 UNK        -0.1800 
     24 N          -1.6688  -19.3968  -43.7151 N.am      10 UNK        -0.5000 
     25 C          -2.0538  -18.3811  -44.5014 C.2       9 UNK         0.5000 
     26 O          -2.9214  -18.4753  -45.3698 O.2       9 UNK        -0.5000 
     27 CA         -1.3036  -17.0496  -44.3123 C.3       9 UNK         0.1400 
     28 CB         -1.8129  -16.3252  -43.0532 C.3       9 UNK        -0.1800 
     29 N           0.1502  -17.2399  -44.2460 N.am      9 UNK        -0.5000 
     30 C           0.8882  -17.7444  -45.2487 C.2       8 UNK         0.5000 
     31 O           0.4318  -18.0190  -46.3562 O.2       8 UNK        -0.5000 
     32 CA          2.3609  -18.0792  -44.9522 C.3       8 UNK         0.1400 
     33 CB          3.2818  -16.8815  -45.2045 C.3       8 UNK        -0.1800 
     34 N           2.5469  -18.5643  -43.5872 N.am      8 UNK        -0.5000 
     35 C           2.1626  -19.7768  -43.1660 C.2       7 UNK         0.5000 
     36 O           1.6649  -20.6276  -43.9027 O.2       7 UNK        -0.5000 
     37 CA          2.3155  -20.0625  -41.6607 C.3       7 UNK         0.1400 
     38 CB          3.7393  -20.5417  -41.3420 C.3       7 UNK        -0.1800 
     39 N           2.0018  -18.8910  -40.8399 N.am      7 UNK        -0.5000 
     40 C           0.7856  -18.3327  -40.7528 C.2       6 UNK         0.5000 
     41 O          -0.2129  -18.7983  -41.2992 O.2       6 UNK        -0.5000 
     42 CA          0.6750  -17.0114  -39.9681 C.3       6 UNK         0.1400 
     43 CB          0.2827  -17.2835  -38.5088 C.3       6 UNK        -0.1800 
     44 N           1.9119  -16.2266  -40.0004 N.am      6 UNK        -0.5000 
     45 C           2.4065  -15.6298  -41.0930 C.2       5 UNK         0.5000 
     46 O           1.8536  -15.6488  -42.1946 O.2       5 UNK        -0.5000 
     47 CA          3.7927  -14.9942  -40.9367 C.3       5 UNK         0.1400 
     48 CB          4.8845  -15.9850  -41.3804 C.3       5 UNK        -0.1800 
     49 N           3.9023  -13.7626  -41.7145 N.am      5 UNK        -0.5000 
     50 C           4.7231  -12.7518  -41.3947 C.2       4 UNK         0.5000 
     51 O           5.4352  -12.7468  -40.3892 O.2       4 UNK        -0.5000 
     52 CA          4.7716  -11.5403  -42.3393 C.3       4 UNK         0.1400 
     53 CB          5.7300  -11.8051  -43.5117 C.3       4 UNK        -0.1800 
     54 N           3.4492  -11.1959  -42.8558 N.am      4 UNK        -0.5000 
     55 C           2.6319  -10.2859  -42.3071 C.2       3 UNK         0.5000 
     56 O           2.9139   -9.6397  -41.2971 O.2       3 UNK        -0.5000 
     57 CA          1.2784  -10.0309  -43.0004 C.3       3 UNK         0.1400 
     58 CB          1.3283   -8.7266  -43.8112 C.3       3 UNK        -0.1800 
     59 N           0.8795  -11.1262  -43.8838 N.am      3 UNK        -0.5000 
     60 C           0.3188  -12.2674  -43.4581 C.2       2 UNK         0.5000 
     61 O          -0.0012  -12.4736  -42.2874 O.2       2 UNK        -0.5000 
     62 CA          0.0946  -13.3742  -44.5079 C.3       2 UNK         0.1400 
     63 CB         -1.3485  -13.3302  -45.0332 C.3       2 UNK        -0.1800 
     64 N           1.0104  -13.3224  -45.6466 N.am      2 UNK        -0.5000 
     65 C           2.3442  -13.4114  -45.5703 C.2       1 UNK         0.5000 
     66 O           2.9525  -13.5198  -44.5051 O.2       1 UNK        -0.5000 
     67 C          -1.0820  -20.8878  -48.1102 C.2       11 UNK         0.5000 
     68 O          -1.6435  -21.5984  -48.9408 O.2       11 UNK        -0.5000 
     69 N          -1.2255  -19.5570  -48.0601 N.am      12 UNK        -0.5000 
     70 CA         -2.0028  -18.7703  -49.0203 C.3       12 UNK         0.1400 
     71 CB         -1.8517  -17.2774  -48.6955 C.3       12 UNK        -0.1800 
     72 C          -3.4891  -19.1651  -49.0972 C.2       12 UNK         0.5000 
     73 O          -4.0826  -19.1233  -50.1761 O.2       12 UNK        -0.5000 
     74 N          -4.0487  -19.5813  -47.9565 N.am      13 UNK        -0.5000 
     75 CA         -5.4137  -20.0797  -47.8200 C.3       13 UNK         0.1400 
     76 CB         -5.8001  -20.0208  -46.3329 C.3       13 UNK        -0.1800 
     77 C          -5.6372  -21.5018  -48.3799 C.2       13 UNK         0.5000 
     78 O          -6.7921  -21.9279  -48.4302 O.2       13 UNK        -0.5000 
     79 N          -4.5715  -22.2215  -48.7640 N.am      14 UNK        -0.5000 
     80 CA         -4.6394  -23.6292  -49.1612 C.3       14 UNK         0.1400 
     81 CB         -4.0692  -24.4959  -48.0259 C.3       14 UNK        -0.1800 
     82 C          -3.9106  -23.9282  -50.4793 C.2       14 UNK         0.5000 
     83 O          -4.4796  -24.6069  -51.3350 O.2       14 UNK        -0.5000 
     84 N          -2.6572  -23.4721  -50.6054 N.am      15 UNK        -0.5000 
     85 CA         -1.6700  -23.8227  -51.6314 C.3       15 UNK         0.1400 
     86 CB         -2.0186  -23.1617  -52.9796 C.3       15 UNK        -0.1800 
     87 C          -1.4708  -25.3509  -51.7218 C.2       15 UNK         0.5000 
     88 O          -0.7798  -25.9232  -50.8788 O.2       15 UNK        -0.5000 
     89 N          -2.1147  -25.9845  -52.7102 N.am      16 UNK        -0.5000 
     90 CA         -2.1603  -27.4351  -52.9110 C.3       16 UNK         0.1400 
     91 CB         -2.4566  -27.7026  -54.3967 C.3       16 UNK        -0.1800 
     92 C          -3.1971  -28.1514  -52.0146 C.2       16 UNK         0.5000 
     93 O          -3.3295  -29.3712  -52.1185 O.2       16 UNK        -0.5000 
     94 N          -3.9253  -27.3873  -51.1858 N.am      17 UNK        -0.5000 
     95 CA         -5.1017  -27.7647  -50.3953 C.3       17 UNK         0.1400 
     96 CB         -4.8034  -28.9148  -49.4104 C.3       17 UNK        -0.1800 
     97 C          -6.3049  -28.0198  -51.3202 C.2       17 UNK         0.5000 
     98 O          -6.9509  -29.0667  -51.2434 O.2       17 UNK        -0.5000 
     99 N          -6.5541  -27.0495  -52.2066 N.am      18 UNK        -0.5000 
    100 CA        -7.5642  -27.0844  -53.2576 C.3       18 UNK         0.1400 
    101 CB        -7.0652  -27.9717  -54.4194 C.3       18 UNK        -0.1800 
    102 C         -7.8619  -25.6451  -53.7144 C.2       18 UNK         0.5000 
    103 O         -7.3993  -24.6867  -53.0900 O.2       18 UNK        -0.5000 
    104 N         -8.5872  -25.5122  -54.8336 N.am      19 UNK        -0.5000 
    105 CA        -8.9336  -24.2468  -55.4969 C.3       19 UNK         0.1400 
    106 CB        -9.9206  -24.5469  -56.6364 C.3       19 UNK        -0.1800 
    107 C         -7.7258  -23.4357  -56.0226 C.2       19 UNK         0.5000 
    108 O         -7.8987  -22.2874  -56.4312 O.2       19 UNK        -0.5000 
    109 N         -6.5272  -24.0340  -55.9859 N.am      20 UNK        -0.5000 
    110 CA        -5.2348  -23.4129  -56.2745 C.3       20 UNK         0.1400 
    111 CB        -4.1705  -24.5214  -56.3308 C.3       20 UNK        -0.1800 
    112 C         -4.8135  -22.3239  -55.2631 C.2       20 UNK         0.5000 
    113 O         -3.8753  -21.5829  -55.5584 O.2       20 UNK        -0.5000 
    114 N         -5.4794  -22.2614  -54.0966 N.am      21 UNK        -0.5000 
    115 CA        -5.2888  -21.2759  -53.0268 C.3       21 UNK         0.1400 
    116 CB        -6.3997  -21.4624  -51.9826 C.3       21 UNK        -0.1800 
    117 C         -5.2807  -19.8240  -53.5442 C.2       21 UNK         0.5000 
    118 O         -6.2522  -19.3980  -54.1742 O.2       21 UNK        -0.5000 
    119 N         -4.1790  -19.1079  -53.2945 N.am      22 UNK        -0.5000 
    120 CA        -3.9749  -17.7272  -53.7537 C.3       22 UNK         0.1400 
    121 C         -4.7491  -16.6516  -52.9352 C.2       22 UNK         0.5000 
    122 N         -5.1758  -16.9334  -51.7097 N.am      22 UNK        -0.7600 
    123 O         -4.9800  -15.5513  -53.4297 O.2       22 UNK        -0.5000 
    124 C124       -2.4690  -17.3896  -53.9088 C.3       23 UNK        -0.0398 
    125 S125       -1.5477  -17.3462  -52.3331 S.3       23 UNK        -0.2404 
    126 C126       -0.1786  -18.5208  -52.6167 C.3       23 UNK        -0.0205 
    127 H127        4.4493   -9.0252  -47.4707 H         1 UNK         0.0600 
    128 H128        5.6201  -10.1401  -46.7592 H         1 UNK         0.0600 
    129 H129        4.5467   -9.2031  -45.7154 H         1 UNK         0.0600 
    130 H130        4.9863  -12.2652  -46.9010 H         1 UNK         0.3000 
    131 H131        3.8554  -14.1409  -46.8661 H         1 UNK         0.0600 
    132 H132        2.9710  -13.2080  -49.0465 H         1 UNK         0.0800 
    133 H133        1.5481  -12.6513  -48.2325 H         1 UNK         0.0800 
    134 H134        3.7225  -15.9927  -48.9348 H         1 UNK         0.0800 
    135 H135        3.0147  -15.2397  -50.3462 H         1 UNK         0.0800 
    136 H136        0.9491  -16.3403  -51.4093 H         1 UNK         0.1150 
    137 H137        1.0639  -20.6296  -51.3732 H         1 UNK         0.1150 
    138 H138        3.5475  -18.3798  -48.6949 H         1 UNK         0.1150 
    139 H139        3.5501  -21.3891  -50.3312 H         1 UNK         0.0800 
    140 H140        3.8045  -20.7125  -48.7457 H         1 UNK         0.0800 
    141 H141        1.5215  -20.2508  -47.3245 H         1 UNK         0.0800 
    142 H142        1.8767  -21.7075  -46.4343 H         1 UNK         0.0800 
    143 H143       -0.3851  -22.6296  -47.0953 H         1 UNK         0.0600 
    144 H144        0.0266  -20.6277  -45.1331 H         1 UNK         0.3000 
    145 H145       -3.2631  -20.7229  -43.7233 H         1 UNK         0.0600 
    146 H146       -1.9241  -21.1664  -41.6814 H         1 UNK         0.0600 
    147 H147       -0.5456  -21.6630  -42.6595 H         1 UNK         0.0600 
    148 H148       -2.0242  -22.6160  -42.6703 H         1 UNK         0.0600 
    149 H149       -0.9905  -19.2133  -42.9803 H         1 UNK         0.3000 
    150 H150       -1.5105  -16.4213  -45.1800 H         1 UNK         0.0600 
    151 H151       -2.8332  -15.9715  -43.2047 H         1 UNK         0.0600 
    152 H152       -1.2049  -15.4603  -42.7959 H         1 UNK         0.0600 
    153 H153       -1.8302  -16.9788  -42.1822 H         1 UNK         0.0600 
    154 H154        0.6114  -16.9966  -43.3782 H         1 UNK         0.3000 
    155 H155        2.6606  -18.8711  -45.6416 H         1 UNK         0.0600 
    156 H156        3.1309  -16.4775  -46.2055 H         1 UNK         0.0600 
    157 H157        4.3304  -17.1670  -45.1231 H         1 UNK         0.0600 
    158 H158        3.0986  -16.0840  -44.4878 H         1 UNK         0.0600 
    159 H159        2.9056  -17.9035  -42.9148 H         1 UNK         0.3000 
    160 H160        1.6171  -20.8603  -41.3989 H         1 UNK         0.0600 
    161 H161        4.4833  -19.7749  -41.5620 H         1 UNK         0.0600 
    162 H162        3.9938  -21.4247  -41.9298 H         1 UNK         0.0600 
    163 H163        3.8375  -20.8134  -40.2908 H         1 UNK         0.0600 
    164 H164        2.7675  -18.4597  -40.3448 H         1 UNK         0.3000 
    165 H165       -0.1161  -16.4169  -40.4294 H         1 UNK         0.0600 
    166 H166        0.1309  -16.3531  -37.9612 H         1 UNK         0.0600 
    167 H167       -0.6501  -17.8466  -38.4545 H         1 UNK         0.0600 
    168 H168        1.0460  -17.8613  -37.9862 H         1 UNK         0.0600 
    169 H169        2.4297  -16.1730  -39.1347 H         1 UNK         0.3000 
    170 H170        3.9343  -14.7634  -39.8785 H         1 UNK         0.0600 
    171 H171        4.8064  -16.2167  -42.4433 H         1 UNK         0.0600 
    172 H172        5.8810  -15.5812  -41.2009 H         1 UNK         0.0600 
    173 H173        4.8143  -16.9243  -40.8307 H         1 UNK         0.0600 
    174 H174        3.3496  -13.7240  -42.5675 H         1 UNK         0.3000 
    175 H175        5.1751  -10.6968  -41.7749 H         1 UNK         0.0600 
    176 H176        5.4069  -12.6477  -44.1227 H         1 UNK         0.0600 
    177 H177        5.8111  -10.9316  -44.1580 H         1 UNK         0.0600 
    178 H178        6.7330  -12.0327  -43.1487 H         1 UNK         0.0600 
    179 H179        3.1172  -11.7545  -43.6338 H         1 UNK         0.3000 
    180 H180        0.5240   -9.9122  -42.2196 H         1 UNK         0.0600 
    181 H181        0.3717   -8.5234  -44.2929 H         1 UNK         0.0600 
    182 H182        2.0942   -8.7613  -44.5863 H         1 UNK         0.0600 
    183 H183        1.5545   -7.8759  -43.1672 H         1 UNK         0.0600 
    184 H184        1.1286  -11.0343  -44.8623 H         1 UNK         0.3000 
    185 H185        0.2669  -14.3299  -44.0141 H         1 UNK         0.0600 
    186 H186       -1.5641  -12.3833  -45.5298 H         1 UNK         0.0600 
    187 H187       -1.5371  -14.1306  -45.7481 H         1 UNK         0.0600 
    188 H188       -2.0652  -13.4435  -44.2189 H         1 UNK         0.0600 
    189 H189        0.5858  -13.2244  -46.5570 H         1 UNK         0.3000 
    190 H190       -0.7128  -19.0276  -47.3571 H         1 UNK         0.3000 
    191 H191       -1.5708  -18.9611  -50.0014 H         1 UNK         0.0600 
    192 H192       -2.2058  -17.0457  -47.6907 H         1 UNK         0.0600 
    193 H193       -2.4178  -16.6631  -49.3966 H         1 UNK         0.0600 
    194 H194       -0.8086  -16.9689  -48.7626 H         1 UNK         0.0600 
    195 H195       -3.4973  -19.5305  -47.1066 H         1 UNK         0.3000 
    196 H196       -6.0778  -19.4099  -48.3702 H         1 UNK         0.0600 
    197 H197       -5.7142  -19.0063  -45.9429 H         1 UNK         0.0600 
    198 H198       -5.1614  -20.6662  -45.7286 H         1 UNK         0.0600 
    199 H199       -6.8315  -20.3402  -46.1790 H         1 UNK         0.0600 
    200 H200       -3.6487  -21.8033  -48.7161 H         1 UNK         0.3000 
    201 H201       -5.6766  -23.9324  -49.3178 H         1 UNK         0.0600 
    202 H202       -4.6681  -24.3976  -47.1203 H         1 UNK         0.0600 
    203 H203       -3.0462  -24.2095  -47.7774 H         1 UNK         0.0600 
    204 H204       -4.0571  -25.5521  -48.2957 H         1 UNK         0.0600 
    205 H205       -2.2844  -22.8790  -49.8637 H         1 UNK         0.3000 
    206 H206       -0.7182  -23.4058  -51.2979 H         1 UNK         0.0600 
    207 H207       -1.2835  -23.4152  -53.7444 H         1 UNK         0.0600 
    208 H208       -2.9960  -23.4725  -53.3441 H         1 UNK         0.0600 
    209 H209       -2.0249  -22.0755  -52.8907 H         1 UNK         0.0600 
    210 H210       -2.6914  -25.4301  -53.3255 H         1 UNK         0.3000 
    211 H211       -1.1802  -27.8550  -52.6761 H         1 UNK         0.0600 
    212 H212       -3.4502  -27.3519  -54.6778 H         1 UNK         0.0600 
    213 H213       -2.4118  -28.7692  -54.6201 H         1 UNK         0.0600 
    214 H214       -1.7297  -27.2082  -55.0414 H         1 UNK         0.0600 
    215 H215       -3.7758  -26.3854  -51.2486 H         1 UNK         0.3000 
    216 H216       -5.3631  -26.8906  -49.7984 H         1 UNK         0.0600 
    217 H217       -5.6453  -29.0709  -48.7353 H         1 UNK         0.0600 
    218 H218       -3.9313  -28.6907  -48.7963 H         1 UNK         0.0600 
    219 H219       -4.6217  -29.8602  -49.9215 H         1 UNK         0.0600 
    220 H220       -6.0345  -26.1789  -52.1544 H         1 UNK         0.3000 
    221 H221       -8.4890  -27.4985  -52.8513 H         1 UNK         0.0600 
    222 H222       -6.1723  -27.5545  -54.8868 H         1 UNK         0.0600 
    223 H223       -6.8170  -28.9757  -54.0750 H         1 UNK         0.0600 
    224 H224       -7.8235  -28.0871  -55.1941 H         1 UNK         0.0600 
    225 H225       -8.9200  -26.3494  -55.2898 H         1 UNK         0.3000 
    226 H226       -9.4404  -23.6176  -54.7625 H         1 UNK         0.0600 
    227 H227      -10.8175  -25.0413  -56.2627 H         1 UNK         0.0600 
    228 H228      -10.2418  -23.6291  -57.1307 H         1 UNK         0.0600 
    229 H229       -9.4731  -25.1892  -57.3959 H         1 UNK         0.0600 
    230 H230       -6.4968  -24.9813  -55.6419 H         1 UNK         0.3000 
    231 H231       -5.2979  -22.9403  -57.2567 H         1 UNK         0.0600 
    232 H232       -3.1901  -24.1132  -56.5801 H         1 UNK         0.0600 
    233 H233       -4.4127  -25.2656  -57.0897 H         1 UNK         0.0600 
    234 H234       -4.0778  -25.0346  -55.3732 H         1 UNK         0.0600 
    235 H235       -6.2075  -22.9452  -53.9333 H         1 UNK         0.3000 
    236 H236       -4.3338  -21.4850  -52.5441 H         1 UNK         0.0600 
    237 H237       -7.3893  -21.3296  -52.4214 H         1 UNK         0.0600 
    238 H238       -6.3658  -22.4562  -51.5371 H         1 UNK         0.0600 
    239 H239       -6.2995  -20.7366  -51.1752 H         1 UNK         0.0600 
    240 H240       -3.4480  -19.4949  -52.7162 H         1 UNK         0.3000 
    241 H241       -4.3934  -17.6694  -54.7608 H         1 UNK         0.0600 
    242 H242       -5.6844  -16.2387  -51.1879 H         1 UNK         0.3800 
    243 H243       -4.9142  -17.8105  -51.2669 H         1 UNK         0.3800 
    244 H244       -2.3524  -16.4187  -54.3930 H         1 UNK         0.0800 
    245 H245       -2.0024  -18.1095  -54.5825 H         1 UNK         0.0800 
    246 H246        0.3182  -18.2762  -53.5564 H         1 UNK         0.0800 
    247 H247       -0.5933  -19.5239  -52.7276 H         1 UNK         0.0800 
@<TRIPOS>BOND
     1    1    2 1    
     2    1  127 1    
     3    1  128 1    
     4    1  129 1    
     5    2    3 2    
     6    2    4 am   BACKBONE|DICT|INTERRES
     7    4    5 1    
     8    4  130 1    
     9    5    6 1    
    10    5   65 1    
    11    5  131 1    
    12    6    7 1    
    13    6  132 1    
    14    6  133 1    
    15    7    8 1    
    16    8    9 1    
    17    8  134 1    
    18    8  135 1    
    19    9   10 ar   
    20    9   14 ar   
    21   10   11 ar   
    22   10  136 1    
    23   11   12 ar   
    24   11  126 1    
    25   12   13 ar   
    26   12  137 1    
    27   13   14 ar   
    28   13   15 1    
    29   14  138 1    
    30   15   16 1    
    31   15  139 1    
    32   15  140 1    
    33   16   17 1    
    34   17   18 1    
    35   17  141 1    
    36   17  142 1    
    37   18   19 1    
    38   18   67 1    
    39   18  143 1    
    40   19   20 am   BACKBONE|DICT|INTERRES
    41   19  144 1    
    42   20   21 2    
    43   20   22 1    
    44   22   23 1    
    45   22   24 1    
    46   22  145 1    
    47   23  146 1    
    48   23  147 1    
    49   23  148 1    
    50   24   25 am   BACKBONE|DICT|INTERRES
    51   24  149 1    
    52   25   26 2    
    53   25   27 1    
    54   27   28 1    
    55   27   29 1    
    56   27  150 1    
    57   28  151 1    
    58   28  152 1    
    59   28  153 1    
    60   29   30 am   BACKBONE|DICT|INTERRES
    61   29  154 1    
    62   30   31 2    
    63   30   32 1    
    64   32   33 1    
    65   32   34 1    
    66   32  155 1    
    67   33  156 1    
    68   33  157 1    
    69   33  158 1    
    70   34   35 am   BACKBONE|DICT|INTERRES
    71   34  159 1    
    72   35   36 2    
    73   35   37 1    
    74   37   38 1    
    75   37   39 1    
    76   37  160 1    
    77   38  161 1    
    78   38  162 1    
    79   38  163 1    
    80   39   40 am   BACKBONE|DICT|INTERRES
    81   39  164 1    
    82   40   41 2    
    83   40   42 1    
    84   42   43 1    
    85   42   44 1    
    86   42  165 1    
    87   43  166 1    
    88   43  167 1    
    89   43  168 1    
    90   44   45 am   BACKBONE|DICT|INTERRES
    91   44  169 1    
    92   45   46 2    
    93   45   47 1    
    94   47   48 1    
    95   47   49 1    
    96   47  170 1    
    97   48  171 1    
    98   48  172 1    
    99   48  173 1    
   100   49   50 am   BACKBONE|DICT|INTERRES
   101   49  174 1    
   102   50   51 2    
   103   50   52 1    
   104   52   53 1    
   105   52   54 1    
   106   52  175 1    
   107   53  176 1    
   108   53  177 1    
   109   53  178 1    
   110   54   55 am   BACKBONE|DICT|INTERRES
   111   54  179 1    
   112   55   56 2    
   113   55   57 1    
   114   57   58 1    
   115   57   59 1    
   116   57  180 1    
   117   58  181 1    
   118   58  182 1    
   119   58  183 1    
   120   59   60 am   BACKBONE|DICT|INTERRES
   121   59  184 1    
   122   60   61 2    
   123   60   62 1    
   124   62   63 1    
   125   62   64 1    
   126   62  185 1    
   127   63  186 1    
   128   63  187 1    
   129   63  188 1    
   130   64   65 am   BACKBONE|DICT|INTERRES
   131   64  189 1    
   132   65   66 2    
   133   67   68 2    
   134   67   69 am   BACKBONE|DICT|INTERRES
   135   69   70 1    
   136   69  190 1    
   137   70   71 1    
   138   70   72 1    
   139   70  191 1    
   140   71  192 1    
   141   71  193 1    
   142   71  194 1    
   143   72   73 2    
   144   72   74 am   BACKBONE|DICT|INTERRES
   145   74   75 1    
   146   74  195 1    
   147   75   76 1    
   148   75   77 1    
   149   75  196 1    
   150   76  197 1    
   151   76  198 1    
   152   76  199 1    
   153   77   78 2    
   154   77   79 am   BACKBONE|DICT|INTERRES
   155   79   80 1    
   156   79  200 1    
   157   80   81 1    
   158   80   82 1    
   159   80  201 1    
   160   81  202 1    
   161   81  203 1    
   162   81  204 1    
   163   82   83 2    
   164   82   84 am   BACKBONE|DICT|INTERRES
   165   84   85 1    
   166   84  205 1    
   167   85   86 1    
   168   85   87 1    
   169   85  206 1    
   170   86  207 1    
   171   86  208 1    
   172   86  209 1    
   173   87   88 2    
   174   87   89 am   BACKBONE|DICT|INTERRES
   175   89   90 1    
   176   89  210 1    
   177   90   91 1    
   178   90   92 1    
   179   90  211 1    
   180   91  212 1    
   181   91  213 1    
   182   91  214 1    
   183   92   93 2    
   184   92   94 am   BACKBONE|DICT|INTERRES
   185   94   95 1    
   186   94  215 1    
   187   95   96 1    
   188   95   97 1    
   189   95  216 1    
   190   96  217 1    
   191   96  218 1    
   192   96  219 1    
   193   97   98 2    
   194   97   99 am   BACKBONE|DICT|INTERRES
   195   99  100 1    
   196   99  220 1    
   197  100  101 1    
   198  100  102 1    
   199  100  221 1    
   200  101  222 1    
   201  101  223 1    
   202  101  224 1    
   203  102  103 2    
   204  102  104 am   BACKBONE|DICT|INTERRES
   205  104  105 1    
   206  104  225 1    
   207  105  106 1    
   208  105  107 1    
   209  105  226 1    
   210  106  227 1    
   211  106  228 1    
   212  106  229 1    
   213  107  108 2    
   214  107  109 am   BACKBONE|DICT|INTERRES
   215  109  110 1    
   216  109  230 1    
   217  110  111 1    
   218  110  112 1    
   219  110  231 1    
   220  111  232 1    
   221  111  233 1    
   222  111  234 1    
   223  112  113 2    
   224  112  114 am   BACKBONE|DICT|INTERRES
   225  114  115 1    
   226  114  235 1    
   227  115  116 1    
   228  115  117 1    
   229  115  236 1    
   230  116  237 1    
   231  116  238 1    
   232  116  239 1    
   233  117  118 2    
   234  117  119 am   BACKBONE|DICT|INTERRES
   235  119  120 1    
   236  119  240 1    
   237  120  121 1    
   238  120  124 1    
   239  120  241 1    
   240  121  122 am   BACKBONE|DICT|INTERRES
   241  121  123 2    
   242  122  242 1    
   243  122  243 1    
   244  124  125 1    
   245  124  244 1    
   246  124  245 1    
   247  125  126 1    
   248  126  246 1    
   249  126  247 1    
@<TRIPOS>SUBSTRUCTURE
     1 UNK         1 GROUP             0       ****    0 ROOT    
