@<TRIPOS>MOLECULE
3R540
247   249    1
SMALL
USER_CHARGES


@<TRIPOS>ATOM
      1 CA          1.5571  -12.6756  -47.2664 C.3       0 UNK        -0.1800 
      2 C           0.2049  -13.3074  -47.5662 C.2       0 UNK         0.5000 
      3 O          -0.7039  -12.6161  -48.0251 O.2       0 UNK        -0.5000 
      4 N           0.0761  -14.6147  -47.2989 N.am      1 UNK        -0.5000 
      5 CA         -1.1255  -15.4426  -47.4999 C.3       1 UNK         0.1400 
      6 C6         -1.5348  -15.5997  -48.9922 C.3       23 UNK        -0.0398 
      7 S7         -0.1845  -16.2759  -50.0208 S.3       23 UNK        -0.2404 
      8 C8         -0.7625  -17.9790  -50.2858 C.3       23 UNK        -0.0205 
      9 C9          0.3253  -18.8467  -50.8924 C.ar      23 UNK        -0.0193 
     10 C10         0.3487  -19.1117  -52.2647 C.ar      23 UNK        -0.1150 
     11 C11         1.3583  -19.9106  -52.8120 C.ar      23 UNK        -0.0193 
     12 C12         2.3334  -20.4593  -51.9737 C.ar      23 UNK        -0.1150 
     13 C13         2.3198  -20.1994  -50.5996 C.ar      23 UNK        -0.0193 
     14 C14         1.3147  -19.3870  -50.0677 C.ar      23 UNK        -0.1150 
     15 C15         3.4117  -20.7684  -49.7045 C.3       23 UNK        -0.0205 
     16 S16         2.8559  -22.2413  -48.7886 S.3       23 UNK        -0.2404 
     17 C17         2.2573  -21.4916  -47.2370 C.3       23 UNK        -0.0398 
     18 CA          1.0871  -22.2631  -46.5868 C.3       11 UNK         0.1400 
     19 N           0.9400  -21.9093  -45.1739 N.am      11 UNK        -0.5000 
     20 C           0.1591  -22.5572  -44.2992 C.2       10 UNK         0.5000 
     21 O          -0.4719  -23.5784  -44.5712 O.2       10 UNK        -0.5000 
     22 CA          0.0168  -21.9195  -42.9045 C.3       10 UNK         0.1400 
     23 CB          1.1942  -22.3080  -41.9985 C.3       10 UNK        -0.1800 
     24 N          -0.0902  -20.4607  -42.9732 N.am      10 UNK        -0.5000 
     25 C          -1.1052  -19.8049  -43.5544 C.2       9 UNK         0.5000 
     26 O          -2.0965  -20.3639  -44.0213 O.2       9 UNK        -0.5000 
     27 CA         -0.9646  -18.2769  -43.6793 C.3       9 UNK         0.1400 
     28 CB         -1.3253  -17.5968  -42.3504 C.3       9 UNK        -0.1800 
     29 N           0.3841  -17.8804  -44.0912 N.am      9 UNK        -0.5000 
     30 C           0.9475  -18.1813  -45.2695 C.2       8 UNK         0.5000 
     31 O           0.3516  -18.7482  -46.1807 O.2       8 UNK        -0.5000 
     32 CA          2.4342  -17.8357  -45.4559 C.3       8 UNK         0.1400 
     33 CB          2.6084  -16.4369  -46.0615 C.3       8 UNK        -0.1800 
     34 N           3.1718  -17.9293  -44.1989 N.am      8 UNK        -0.5000 
     35 C           3.5285  -19.0847  -43.6229 C.2       7 UNK         0.5000 
     36 O           3.3093  -20.1893  -44.1220 O.2       7 UNK        -0.5000 
     37 CA          4.2020  -18.9856  -42.2407 C.3       7 UNK         0.1400 
     38 CB          5.7061  -18.7137  -42.3897 C.3       7 UNK        -0.1800 
     39 N           3.6018  -17.9499  -41.3952 N.am      7 UNK        -0.5000 
     40 C           2.3583  -18.0163  -40.9002 C.2       6 UNK         0.5000 
     41 O           1.6136  -18.9818  -41.0697 O.2       6 UNK        -0.5000 
     42 CA          1.8385  -16.7868  -40.1262 C.3       6 UNK         0.1400 
     43 CB          2.1940  -16.9015  -38.6369 C.3       6 UNK        -0.1800 
     44 N           2.2893  -15.4828  -40.6302 N.am      6 UNK        -0.5000 
     45 C           2.1707  -15.0488  -41.8921 C.2       5 UNK         0.5000 
     46 O           1.7696  -15.7522  -42.8180 O.2       5 UNK        -0.5000 
     47 CA          2.5014  -13.5717  -42.1414 C.3       5 UNK         0.1400 
     48 CB          2.7798  -13.2739  -43.6262 C.3       5 UNK        -0.1800 
     49 N           1.3388  -12.8034  -41.7197 N.am      5 UNK        -0.5000 
     50 C           1.3237  -11.8439  -40.7869 C.2       4 UNK         0.5000 
     51 O           2.3332  -11.4315  -40.2142 O.2       4 UNK        -0.5000 
     52 CA         -0.0524  -11.2494  -40.4144 C.3       4 UNK         0.1400 
     53 CB         -0.2941   -9.9389  -41.1790 C.3       4 UNK        -0.1800 
     54 N          -1.1720  -12.1591  -40.6711 N.am      4 UNK        -0.5000 
     55 C          -1.3751  -13.3255  -40.0433 C.2       3 UNK         0.5000 
     56 O          -0.6952  -13.7122  -39.0920 O.2       3 UNK        -0.5000 
     57 CA         -2.5072  -14.2309  -40.5734 C.3       3 UNK         0.1400 
     58 CB         -3.7345  -14.1415  -39.6533 C.3       3 UNK        -0.1800 
     59 N          -2.9407  -13.9963  -41.9593 N.am      3 UNK        -0.5000 
     60 C          -2.1644  -14.0051  -43.0512 C.2       2 UNK         0.5000 
     61 O          -0.9322  -14.0477  -43.0218 O.2       2 UNK        -0.5000 
     62 CA         -2.8829  -13.9443  -44.4044 C.3       2 UNK         0.1400 
     63 CB         -3.2905  -12.5018  -44.7506 C.3       2 UNK        -0.1800 
     64 N          -1.9693  -14.4558  -45.4174 N.am      2 UNK        -0.5000 
     65 C          -2.3008  -14.9971  -46.5949 C.2       1 UNK         0.5000 
     66 O          -3.4657  -15.1499  -46.9654 O.2       1 UNK        -0.5000 
     67 C          -0.2440  -22.1039  -47.3577 C.2       11 UNK         0.5000 
     68 O          -0.6131  -23.0070  -48.1053 O.2       11 UNK        -0.5000 
     69 N          -0.9781  -21.0071  -47.1115 N.am      12 UNK        -0.5000 
     70 CA         -2.3181  -20.7521  -47.6480 C.3       12 UNK         0.1400 
     71 CB         -2.8063  -19.3544  -47.2259 C.3       12 UNK        -0.1800 
     72 C          -3.3382  -21.8189  -47.2137 C.2       12 UNK         0.5000 
     73 O          -4.1039  -22.2987  -48.0472 O.2       12 UNK        -0.5000 
     74 N          -3.3083  -22.1976  -45.9287 N.am      13 UNK        -0.5000 
     75 CA         -4.1468  -23.2523  -45.3573 C.3       13 UNK         0.1400 
     76 CB         -3.9815  -23.2712  -43.8303 C.3       13 UNK        -0.1800 
     77 C          -3.8606  -24.6404  -45.9616 C.2       13 UNK         0.5000 
     78 O          -4.8000  -25.4000  -46.1997 O.2       13 UNK        -0.5000 
     79 N          -2.5791  -24.9341  -46.2231 N.am      14 UNK        -0.5000 
     80 CA         -2.1309  -26.1502  -46.9018 C.3       14 UNK         0.1400 
     81 CB         -0.6142  -26.3121  -46.7161 C.3       14 UNK        -0.1800 
     82 C          -2.5092  -26.1674  -48.3957 C.2       14 UNK         0.5000 
     83 O          -2.9403  -27.2058  -48.8985 O.2       14 UNK        -0.5000 
     84 N          -2.3489  -25.0216  -49.0729 N.am      15 UNK        -0.5000 
     85 CA         -2.6955  -24.8180  -50.4805 C.3       15 UNK         0.1400 
     86 CB         -2.1056  -23.4812  -50.9587 C.3       15 UNK        -0.1800 
     87 C          -4.2129  -24.8688  -50.7387 C.2       15 UNK         0.5000 
     88 O          -4.6328  -25.3887  -51.7737 O.2       15 UNK        -0.5000 
     89 N          -5.0027  -24.3389  -49.7932 N.am      16 UNK        -0.5000 
     90 CA         -6.4647  -24.2763  -49.7839 C.3       16 UNK         0.1400 
     91 CB         -7.0643  -25.6862  -49.5876 C.3       16 UNK        -0.1800 
     92 C          -6.9943  -23.5286  -51.0225 C.2       16 UNK         0.5000 
     93 O          -6.8127  -22.3148  -51.1135 O.2       16 UNK        -0.5000 
     94 N          -7.5914  -24.2545  -51.9768 N.am      17 UNK        -0.5000 
     95 CA         -8.0651  -23.7246  -53.2579 C.3       17 UNK         0.1400 
     96 CB         -8.8270  -24.8295  -54.0048 C.3       17 UNK        -0.1800 
     97 C          -6.9417  -23.1487  -54.1453 C.2       17 UNK         0.5000 
     98 O          -7.2061  -22.2494  -54.9441 O.2       17 UNK        -0.5000 
     99 N          -5.7086  -23.6492  -53.9782 N.am      18 UNK        -0.5000 
    100 CA        -4.5246  -23.1777  -54.6962 C.3       18 UNK         0.1400 
    101 CB        -3.4876  -24.3098  -54.7781 C.3       18 UNK        -0.1800 
    102 C         -3.9082  -21.9002  -54.0932 C.2       18 UNK         0.5000 
    103 O         -2.9896  -21.3520  -54.6974 O.2       18 UNK        -0.5000 
    104 N         -4.4108  -21.4109  -52.9465 N.am      19 UNK        -0.5000 
    105 CA        -3.9151  -20.1947  -52.2850 C.3       19 UNK         0.1400 
    106 CB        -4.5766  -20.0453  -50.9088 C.3       19 UNK        -0.1800 
    107 C         -4.0949  -18.9046  -53.1140 C.2       19 UNK         0.5000 
    108 O         -3.4315  -17.9067  -52.8302 O.2       19 UNK        -0.5000 
    109 N         -4.9447  -18.9501  -54.1499 N.am      20 UNK        -0.5000 
    110 CA        -5.1089  -17.9286  -55.1846 C.3       20 UNK         0.1400 
    111 CB        -6.4348  -18.1905  -55.9208 C.3       20 UNK        -0.1800 
    112 C         -3.8953  -17.8755  -56.1434 C.2       20 UNK         0.5000 
    113 O         -4.0309  -18.1343  -57.3410 O.2       20 UNK        -0.5000 
    114 N         -2.7224  -17.5570  -55.5796 N.am      21 UNK        -0.5000 
    115 CA        -1.4213  -17.3545  -56.2272 C.3       21 UNK         0.1400 
    116 CB        -1.4734  -16.1298  -57.1645 C.3       21 UNK        -0.1800 
    117 C         -0.8261  -18.5983  -56.9251 C.2       21 UNK         0.5000 
    118 O          0.1197  -18.4502  -57.7009 O.2       21 UNK        -0.5000 
    119 N         -1.3463  -19.7968  -56.6233 N.am      22 UNK        -0.5000 
    120 CA        -0.8929  -21.0991  -57.1493 C.3       22 UNK         0.1400 
    121 C         -1.0358  -21.2649  -58.6943 C.2       22 UNK         0.5000 
    122 N         -1.9153  -20.5182  -59.3524 N.am      22 UNK        -0.7600 
    123 O         -0.3713  -22.0984  -59.3047 O.2       22 UNK        -0.5000 
    124 C124        0.5039  -21.5141  -56.6037 C.3       23 UNK        -0.0398 
    125 S125        0.5185  -21.6633  -54.7808 S.3       23 UNK        -0.2404 
    126 C126        1.4157  -20.1540  -54.3116 C.3       23 UNK        -0.0205 
    127 H127        1.9553  -12.1990  -48.1620 H         1 UNK         0.0600 
    128 H128        2.2843  -13.4119  -46.9233 H         1 UNK         0.0600 
    129 H129        1.4519  -11.9156  -46.4920 H         1 UNK         0.0600 
    130 H130        0.8772  -15.1109  -46.9392 H         1 UNK         0.3000 
    131 H131       -0.8573  -16.4360  -47.1392 H         1 UNK         0.0600 
    132 H132       -1.8348  -14.6381  -49.4105 H         1 UNK         0.0800 
    133 H133       -2.4059  -16.2504  -49.0871 H         1 UNK         0.0800 
    134 H134       -1.6490  -17.9698  -50.9195 H         1 UNK         0.0800 
    135 H135       -1.0635  -18.4131  -49.3354 H         1 UNK         0.0800 
    136 H136       -0.4116  -18.6891  -52.9068 H         1 UNK         0.1150 
    137 H137        3.1124  -21.0787  -52.3960 H         1 UNK         0.1150 
    138 H138        1.2979  -19.1597  -49.0125 H         1 UNK         0.1150 
    139 H139        4.2771  -21.0474  -50.3074 H         1 UNK         0.0800 
    140 H140        3.7668  -20.0030  -49.0128 H         1 UNK         0.0800 
    141 H141        1.9884  -20.4498  -47.3935 H         1 UNK         0.0800 
    142 H142        3.1094  -21.4755  -46.5559 H         1 UNK         0.0800 
    143 H143        1.3421  -23.3250  -46.6089 H         1 UNK         0.0600 
    144 H144        1.4609  -21.1042  -44.8488 H         1 UNK         0.3000 
    145 H145       -0.9009  -22.3035  -42.4543 H         1 UNK         0.0600 
    146 H146        1.0640  -21.9093  -40.9922 H         1 UNK         0.0600 
    147 H147        2.1427  -21.9341  -42.3844 H         1 UNK         0.0600 
    148 H148        1.2785  -23.3920  -41.9116 H         1 UNK         0.0600 
    149 H149        0.6569  -19.9241  -42.5432 H         1 UNK         0.3000 
    150 H150       -1.6586  -17.9258  -44.4458 H         1 UNK         0.0600 
    151 H151       -2.4027  -17.6195  -42.1844 H         1 UNK         0.0600 
    152 H152       -1.0098  -16.5563  -42.3384 H         1 UNK         0.0600 
    153 H153       -0.8566  -18.0882  -41.4984 H         1 UNK         0.0600 
    154 H154        0.9222  -17.3202  -43.4356 H         1 UNK         0.3000 
    155 H155        2.8614  -18.5547  -46.1576 H         1 UNK         0.0600 
    156 H156        2.1895  -16.4030  -47.0675 H         1 UNK         0.0600 
    157 H157        3.6626  -16.1719  -46.1448 H         1 UNK         0.0600 
    158 H158        2.1181  -15.6713  -45.4606 H         1 UNK         0.0600 
    159 H159        3.2883  -17.0683  -43.6816 H         1 UNK         0.3000 
    160 H160        4.0775  -19.9490  -41.7414 H         1 UNK         0.0600 
    161 H161        5.8978  -17.7498  -42.8628 H         1 UNK         0.0600 
    162 H162        6.1820  -19.4807  -43.0022 H         1 UNK         0.0600 
    163 H163        6.2051  -18.7176  -41.4205 H         1 UNK         0.0600 
    164 H164        4.1513  -17.1224  -41.2160 H         1 UNK         0.3000 
    165 H165        0.7504  -16.7938  -40.2099 H         1 UNK         0.0600 
    166 H166        1.7214  -16.1082  -38.0570 H         1 UNK         0.0600 
    167 H167        1.8508  -17.8512  -38.2241 H         1 UNK         0.0600 
    168 H168        3.2709  -16.8420  -38.4747 H         1 UNK         0.0600 
    169 H169        2.6066  -14.8266  -39.9313 H         1 UNK         0.3000 
    170 H170        3.3885  -13.3149  -41.5591 H         1 UNK         0.0600 
    171 H171        1.9064  -13.4766  -44.2475 H         1 UNK         0.0600 
    172 H172        3.0535  -12.2289  -43.7712 H         1 UNK         0.0600 
    173 H173        3.6028  -13.8831  -44.0015 H         1 UNK         0.0600 
    174 H174        0.4556  -13.1233  -42.1122 H         1 UNK         0.3000 
    175 H175       -0.0363  -11.0265  -39.3455 H         1 UNK         0.0600 
    176 H176       -0.3399  -10.1050  -42.2561 H         1 UNK         0.0600 
    177 H177       -1.2277   -9.4679  -40.8707 H         1 UNK         0.0600 
    178 H178        0.5072   -9.2230  -40.9908 H         1 UNK         0.0600 
    179 H179       -1.7761  -11.9274  -41.4455 H         1 UNK         0.3000 
    180 H180       -2.1292  -15.2539  -40.5284 H         1 UNK         0.0600 
    181 H181       -4.4938  -14.8715  -39.9341 H         1 UNK         0.0600 
    182 H182       -4.1896  -13.1509  -39.6881 H         1 UNK         0.0600 
    183 H183       -3.4639  -14.3422  -38.6156 H         1 UNK         0.0600 
    184 H184       -3.9393  -13.9198  -42.0898 H         1 UNK         0.3000 
    185 H185       -3.7683  -14.5816  -44.3574 H         1 UNK         0.0600 
    186 H186       -3.9685  -12.0923  -44.0010 H         1 UNK         0.0600 
    187 H187       -2.4226  -11.8433  -44.8068 H         1 UNK         0.0600 
    188 H188       -3.8046  -12.4566  -45.7109 H         1 UNK         0.0600 
    189 H189       -0.9948  -14.4030  -45.1471 H         1 UNK         0.3000 
    190 H190       -0.5765  -20.2715  -46.5351 H         1 UNK         0.3000 
    191 H191       -2.2400  -20.7747  -48.7366 H         1 UNK         0.0600 
    192 H192       -2.0490  -18.5894  -47.3797 H         1 UNK         0.0600 
    193 H193       -3.0868  -19.3193  -46.1740 H         1 UNK         0.0600 
    194 H194       -3.6862  -19.0647  -47.8011 H         1 UNK         0.0600 
    195 H195       -2.6872  -21.7074  -45.2910 H         1 UNK         0.3000 
    196 H196       -5.1863  -23.0039  -45.5811 H         1 UNK         0.0600 
    197 H197       -4.2410  -22.3065  -43.3938 H         1 UNK         0.0600 
    198 H198       -2.9582  -23.5054  -43.5374 H         1 UNK         0.0600 
    199 H199       -4.6320  -24.0201  -43.3770 H         1 UNK         0.0600 
    200 H200       -1.8612  -24.2743  -45.9430 H         1 UNK         0.3000 
    201 H201       -2.6197  -27.0025  -46.4252 H         1 UNK         0.0600 
    202 H202       -0.3500  -26.3605  -45.6595 H         1 UNK         0.0600 
    203 H203       -0.0609  -25.4845  -47.1600 H         1 UNK         0.0600 
    204 H204       -0.2601  -27.2317  -47.1835 H         1 UNK         0.0600 
    205 H205       -1.9128  -24.2336  -48.5990 H         1 UNK         0.3000 
    206 H206       -2.2335  -25.6199  -51.0597 H         1 UNK         0.0600 
    207 H207       -2.5273  -22.6369  -50.4133 H         1 UNK         0.0600 
    208 H208       -2.3004  -23.3178  -52.0174 H         1 UNK         0.0600 
    209 H209       -1.0239  -23.4565  -50.8257 H         1 UNK         0.0600 
    210 H210       -4.5526  -23.8306  -49.0355 H         1 UNK         0.3000 
    211 H211       -6.7423  -23.6738  -48.9178 H         1 UNK         0.0600 
    212 H212       -6.7830  -26.3747  -50.3849 H         1 UNK         0.0600 
    213 H213       -8.1536  -25.6482  -49.5465 H         1 UNK         0.0600 
    214 H214       -6.7230  -26.1203  -48.6474 H         1 UNK         0.0600 
    215 H215       -7.6685  -25.2522  -51.8421 H         1 UNK         0.3000 
    216 H216       -8.7620  -22.9114  -53.0449 H         1 UNK         0.0600 
    217 H217       -9.2183  -24.4612  -54.9542 H         1 UNK         0.0600 
    218 H218       -9.6761  -25.1872  -53.4221 H         1 UNK         0.0600 
    219 H219       -8.1845  -25.6834  -54.2235 H         1 UNK         0.0600 
    220 H220       -5.5549  -24.3662  -53.2754 H         1 UNK         0.3000 
    221 H221       -4.8140  -22.9307  -55.7199 H         1 UNK         0.0600 
    222 H222       -3.1290  -24.6086  -53.7946 H         1 UNK         0.0600 
    223 H223       -3.9062  -25.1919  -55.2627 H         1 UNK         0.0600 
    224 H224       -2.6181  -24.0028  -55.3610 H         1 UNK         0.0600 
    225 H225       -5.1898  -21.8818  -52.5015 H         1 UNK         0.3000 
    226 H226       -2.8421  -20.3254  -52.1280 H         1 UNK         0.0600 
    227 H227       -4.1437  -19.2115  -50.3549 H         1 UNK         0.0600 
    228 H228       -5.6477  -19.8606  -50.9967 H         1 UNK         0.0600 
    229 H229       -4.4404  -20.9426  -50.3066 H         1 UNK         0.0600 
    230 H230       -5.4305  -19.8207  -54.3097 H         1 UNK         0.3000 
    231 H231       -5.1829  -16.9527  -54.7004 H         1 UNK         0.0600 
    232 H232       -7.2802  -18.1582  -55.2333 H         1 UNK         0.0600 
    233 H233       -6.4384  -19.1659  -56.4096 H         1 UNK         0.0600 
    234 H234       -6.6129  -17.4359  -56.6880 H         1 UNK         0.0600 
    235 H235       -2.7314  -17.4355  -54.5703 H         1 UNK         0.3000 
    236 H236       -0.7280  -17.1158  -55.4195 H         1 UNK         0.0600 
    237 H237       -2.1001  -16.3154  -58.0373 H         1 UNK         0.0600 
    238 H238       -1.8671  -15.2542  -56.6484 H         1 UNK         0.0600 
    239 H239       -0.4788  -15.8680  -57.5272 H         1 UNK         0.0600 
    240 H240       -2.1012  -19.8559  -55.9508 H         1 UNK         0.3000 
    241 H241       -1.6007  -21.8316  -56.7639 H         1 UNK         0.0600 
    242 H242       -2.0173  -20.6292  -60.3489 H         1 UNK         0.3800 
    243 H243       -2.4737  -19.8357  -58.8610 H         1 UNK         0.3800 
    244 H244        1.2741  -20.8159  -56.9337 H         1 UNK         0.0800 
    245 H245        0.7932  -22.4887  -56.9994 H         1 UNK         0.0800 
    246 H246        0.9974  -19.2955  -54.8355 H         1 UNK         0.0800 
    247 H247        2.4532  -20.2355  -54.6393 H         1 UNK         0.0800 
@<TRIPOS>BOND
     1    1    2 1    
     2    1  127 1    
     3    1  128 1    
     4    1  129 1    
     5    2    3 2    
     6    2    4 am   BACKBONE|DICT|INTERRES
     7    4    5 1    
     8    4  130 1    
     9    5    6 1    
    10    5   65 1    
    11    5  131 1    
    12    6    7 1    
    13    6  132 1    
    14    6  133 1    
    15    7    8 1    
    16    8    9 1    
    17    8  134 1    
    18    8  135 1    
    19    9   10 ar   
    20    9   14 ar   
    21   10   11 ar   
    22   10  136 1    
    23   11   12 ar   
    24   11  126 1    
    25   12   13 ar   
    26   12  137 1    
    27   13   14 ar   
    28   13   15 1    
    29   14  138 1    
    30   15   16 1    
    31   15  139 1    
    32   15  140 1    
    33   16   17 1    
    34   17   18 1    
    35   17  141 1    
    36   17  142 1    
    37   18   19 1    
    38   18   67 1    
    39   18  143 1    
    40   19   20 am   BACKBONE|DICT|INTERRES
    41   19  144 1    
    42   20   21 2    
    43   20   22 1    
    44   22   23 1    
    45   22   24 1    
    46   22  145 1    
    47   23  146 1    
    48   23  147 1    
    49   23  148 1    
    50   24   25 am   BACKBONE|DICT|INTERRES
    51   24  149 1    
    52   25   26 2    
    53   25   27 1    
    54   27   28 1    
    55   27   29 1    
    56   27  150 1    
    57   28  151 1    
    58   28  152 1    
    59   28  153 1    
    60   29   30 am   BACKBONE|DICT|INTERRES
    61   29  154 1    
    62   30   31 2    
    63   30   32 1    
    64   32   33 1    
    65   32   34 1    
    66   32  155 1    
    67   33  156 1    
    68   33  157 1    
    69   33  158 1    
    70   34   35 am   BACKBONE|DICT|INTERRES
    71   34  159 1    
    72   35   36 2    
    73   35   37 1    
    74   37   38 1    
    75   37   39 1    
    76   37  160 1    
    77   38  161 1    
    78   38  162 1    
    79   38  163 1    
    80   39   40 am   BACKBONE|DICT|INTERRES
    81   39  164 1    
    82   40   41 2    
    83   40   42 1    
    84   42   43 1    
    85   42   44 1    
    86   42  165 1    
    87   43  166 1    
    88   43  167 1    
    89   43  168 1    
    90   44   45 am   BACKBONE|DICT|INTERRES
    91   44  169 1    
    92   45   46 2    
    93   45   47 1    
    94   47   48 1    
    95   47   49 1    
    96   47  170 1    
    97   48  171 1    
    98   48  172 1    
    99   48  173 1    
   100   49   50 am   BACKBONE|DICT|INTERRES
   101   49  174 1    
   102   50   51 2    
   103   50   52 1    
   104   52   53 1    
   105   52   54 1    
   106   52  175 1    
   107   53  176 1    
   108   53  177 1    
   109   53  178 1    
   110   54   55 am   BACKBONE|DICT|INTERRES
   111   54  179 1    
   112   55   56 2    
   113   55   57 1    
   114   57   58 1    
   115   57   59 1    
   116   57  180 1    
   117   58  181 1    
   118   58  182 1    
   119   58  183 1    
   120   59   60 am   BACKBONE|DICT|INTERRES
   121   59  184 1    
   122   60   61 2    
   123   60   62 1    
   124   62   63 1    
   125   62   64 1    
   126   62  185 1    
   127   63  186 1    
   128   63  187 1    
   129   63  188 1    
   130   64   65 am   BACKBONE|DICT|INTERRES
   131   64  189 1    
   132   65   66 2    
   133   67   68 2    
   134   67   69 am   BACKBONE|DICT|INTERRES
   135   69   70 1    
   136   69  190 1    
   137   70   71 1    
   138   70   72 1    
   139   70  191 1    
   140   71  192 1    
   141   71  193 1    
   142   71  194 1    
   143   72   73 2    
   144   72   74 am   BACKBONE|DICT|INTERRES
   145   74   75 1    
   146   74  195 1    
   147   75   76 1    
   148   75   77 1    
   149   75  196 1    
   150   76  197 1    
   151   76  198 1    
   152   76  199 1    
   153   77   78 2    
   154   77   79 am   BACKBONE|DICT|INTERRES
   155   79   80 1    
   156   79  200 1    
   157   80   81 1    
   158   80   82 1    
   159   80  201 1    
   160   81  202 1    
   161   81  203 1    
   162   81  204 1    
   163   82   83 2    
   164   82   84 am   BACKBONE|DICT|INTERRES
   165   84   85 1    
   166   84  205 1    
   167   85   86 1    
   168   85   87 1    
   169   85  206 1    
   170   86  207 1    
   171   86  208 1    
   172   86  209 1    
   173   87   88 2    
   174   87   89 am   BACKBONE|DICT|INTERRES
   175   89   90 1    
   176   89  210 1    
   177   90   91 1    
   178   90   92 1    
   179   90  211 1    
   180   91  212 1    
   181   91  213 1    
   182   91  214 1    
   183   92   93 2    
   184   92   94 am   BACKBONE|DICT|INTERRES
   185   94   95 1    
   186   94  215 1    
   187   95   96 1    
   188   95   97 1    
   189   95  216 1    
   190   96  217 1    
   191   96  218 1    
   192   96  219 1    
   193   97   98 2    
   194   97   99 am   BACKBONE|DICT|INTERRES
   195   99  100 1    
   196   99  220 1    
   197  100  101 1    
   198  100  102 1    
   199  100  221 1    
   200  101  222 1    
   201  101  223 1    
   202  101  224 1    
   203  102  103 2    
   204  102  104 am   BACKBONE|DICT|INTERRES
   205  104  105 1    
   206  104  225 1    
   207  105  106 1    
   208  105  107 1    
   209  105  226 1    
   210  106  227 1    
   211  106  228 1    
   212  106  229 1    
   213  107  108 2    
   214  107  109 am   BACKBONE|DICT|INTERRES
   215  109  110 1    
   216  109  230 1    
   217  110  111 1    
   218  110  112 1    
   219  110  231 1    
   220  111  232 1    
   221  111  233 1    
   222  111  234 1    
   223  112  113 2    
   224  112  114 am   BACKBONE|DICT|INTERRES
   225  114  115 1    
   226  114  235 1    
   227  115  116 1    
   228  115  117 1    
   229  115  236 1    
   230  116  237 1    
   231  116  238 1    
   232  116  239 1    
   233  117  118 2    
   234  117  119 am   BACKBONE|DICT|INTERRES
   235  119  120 1    
   236  119  240 1    
   237  120  121 1    
   238  120  124 1    
   239  120  241 1    
   240  121  122 am   BACKBONE|DICT|INTERRES
   241  121  123 2    
   242  122  242 1    
   243  122  243 1    
   244  124  125 1    
   245  124  244 1    
   246  124  245 1    
   247  125  126 1    
   248  126  246 1    
   249  126  247 1    
@<TRIPOS>SUBSTRUCTURE
     1 UNK         1 GROUP             0       ****    0 ROOT    
