@<TRIPOS>MOLECULE
3R540
247   249    1
SMALL
USER_CHARGES


@<TRIPOS>ATOM
      1 CA         -1.6048  -12.4943  -53.5052 C.3       0 UNK        -0.1800 
      2 C          -1.4384  -12.3452  -51.9995 C.2       0 UNK         0.5000 
      3 O          -1.3853  -11.2228  -51.4970 O.2       0 UNK        -0.5000 
      4 N          -1.3487  -13.4757  -51.2871 N.am      1 UNK        -0.5000 
      5 CA         -1.2136  -13.5863  -49.8257 C.3       1 UNK         0.1400 
      6 C6         -2.4181  -13.0160  -49.0183 C.3       23 UNK        -0.0398 
      7 S7         -4.0575  -13.5521  -49.6311 S.3       23 UNK        -0.2404 
      8 C8         -4.3424  -15.0901  -48.6932 C.3       23 UNK        -0.0205 
      9 C9         -3.2929  -16.1510  -48.9931 C.ar      23 UNK        -0.0193 
     10 C10        -3.0485  -16.5513  -50.3103 C.ar      23 UNK        -0.1150 
     11 C11        -2.0279  -17.4593  -50.5973 C.ar      23 UNK        -0.0193 
     12 C12        -1.2777  -18.0047  -49.5551 C.ar      23 UNK        -0.1150 
     13 C13        -1.5352  -17.6452  -48.2304 C.ar      23 UNK        -0.0193 
     14 C14        -2.5349  -16.7050  -47.9574 C.ar      23 UNK        -0.1150 
     15 C15        -0.6987  -18.2519  -47.1121 C.3       23 UNK        -0.0205 
     16 S16        -1.6911  -18.8421  -45.7048 S.3       23 UNK        -0.2404 
     17 C17        -2.5997  -20.2404  -46.4361 C.3       23 UNK        -0.0398 
     18 CA         -1.9591  -21.6128  -46.1269 C.3       11 UNK         0.1400 
     19 N          -1.6412  -21.7650  -44.6995 N.am      11 UNK        -0.5000 
     20 C          -1.1491  -22.8440  -44.0741 C.2       10 UNK         0.5000 
     21 O          -1.0081  -23.9412  -44.6166 O.2       10 UNK        -0.5000 
     22 CA         -0.7271  -22.6734  -42.6031 C.3       10 UNK         0.1400 
     23 CB          0.7730  -22.9643  -42.4347 C.3       10 UNK        -0.1800 
     24 N          -0.9996  -21.3343  -42.0760 N.am      10 UNK        -0.5000 
     25 C          -2.1287  -20.9565  -41.4612 C.2       9 UNK         0.5000 
     26 O          -3.1156  -21.6843  -41.3430 O.2       9 UNK        -0.5000 
     27 CA         -2.1332  -19.5244  -40.8799 C.3       9 UNK         0.1400 
     28 CB         -3.2477  -19.2868  -39.8403 C.3       9 UNK        -0.1800 
     29 N          -0.8175  -19.1444  -40.3520 N.am      9 UNK        -0.5000 
     30 C          -0.1407  -19.7142  -39.3426 C.2       8 UNK         0.5000 
     31 O          -0.6154  -20.5572  -38.5809 O.2       8 UNK        -0.5000 
     32 CA          1.3377  -19.3087  -39.1828 C.3       8 UNK         0.1400 
     33 CB          2.2499  -20.4219  -39.7236 C.3       8 UNK        -0.1800 
     34 N           1.6631  -18.0676  -39.8867 N.am      8 UNK        -0.5000 
     35 C           1.5555  -16.8389  -39.3647 C.2       7 UNK         0.5000 
     36 O           1.2018  -16.6133  -38.2070 O.2       7 UNK        -0.5000 
     37 CA          1.8881  -15.6630  -40.3032 C.3       7 UNK         0.1400 
     38 CB          3.3790  -15.3046  -40.2135 C.3       7 UNK        -0.1800 
     39 N           1.5402  -15.9481  -41.6974 N.am      7 UNK        -0.5000 
     40 C           0.2814  -15.9875  -42.1606 C.2       6 UNK         0.5000 
     41 O          -0.7050  -15.7359  -41.4687 O.2       6 UNK        -0.5000 
     42 CA          0.0762  -16.4119  -43.6267 C.3       6 UNK         0.1400 
     43 CB         -0.0421  -15.1780  -44.5344 C.3       6 UNK        -0.1800 
     44 N           1.1314  -17.2908  -44.1351 N.am      6 UNK        -0.5000 
     45 C           1.3841  -18.5294  -43.6828 C.2       5 UNK         0.5000 
     46 O           0.7199  -19.0831  -42.8066 O.2       5 UNK        -0.5000 
     47 CA          2.5972  -19.2754  -44.2713 C.3       5 UNK         0.1400 
     48 CB          2.1331  -20.2913  -45.3253 C.3       5 UNK        -0.1800 
     49 N           3.6106  -18.4047  -44.8687 N.am      5 UNK        -0.5000 
     50 C           4.2597  -17.4055  -44.2533 C.2       4 UNK         0.5000 
     51 O           4.1264  -17.1373  -43.0587 O.2       4 UNK        -0.5000 
     52 CA          5.1602  -16.5201  -45.1375 C.3       4 UNK         0.1400 
     53 CB          6.6326  -16.9276  -44.9791 C.3       4 UNK        -0.1800 
     54 N           4.8081  -16.5386  -46.5638 N.am      4 UNK        -0.5000 
     55 C           3.6415  -16.1281  -47.0821 C.2       3 UNK         0.5000 
     56 O           2.6882  -15.7379  -46.4042 O.2       3 UNK        -0.5000 
     57 CA          3.5005  -16.2330  -48.6119 C.3       3 UNK         0.1400 
     58 CB          2.6798  -17.4762  -48.9908 C.3       3 UNK        -0.1800 
     59 N           2.8645  -15.0533  -49.1953 N.am      3 UNK        -0.5000 
     60 C           3.3746  -13.8134  -49.1920 C.2       2 UNK         0.5000 
     61 O           4.4696  -13.5287  -48.7044 O.2       2 UNK        -0.5000 
     62 CA          2.5456  -12.7066  -49.8751 C.3       2 UNK         0.1400 
     63 CB          3.2145  -12.2655  -51.1870 C.3       2 UNK        -0.1800 
     64 N           1.1720  -13.1166  -50.1728 N.am      2 UNK        -0.5000 
     65 C           0.1505  -13.0770  -49.3060 C.2       1 UNK         0.5000 
     66 O           0.2629  -12.6795  -48.1456 O.2       1 UNK        -0.5000 
     67 C          -2.8458  -22.7320  -46.7085 C.2       11 UNK         0.5000 
     68 O          -2.6584  -23.1113  -47.8656 O.2       11 UNK        -0.5000 
     69 N          -3.7582  -23.2688  -45.8866 N.am      12 UNK        -0.5000 
     70 CA         -4.6445  -24.3859  -46.2162 C.3       12 UNK         0.1400 
     71 CB         -5.5619  -24.6690  -45.0181 C.3       12 UNK        -0.1800 
     72 C          -3.9044  -25.6694  -46.6437 C.2       12 UNK         0.5000 
     73 O          -4.4257  -26.4117  -47.4755 O.2       12 UNK        -0.5000 
     74 N          -2.7041  -25.8864  -46.0915 N.am      13 UNK        -0.5000 
     75 CA         -1.8156  -26.9928  -46.4380 C.3       13 UNK         0.1400 
     76 CB         -1.3495  -27.6816  -45.1456 C.3       13 UNK        -0.1800 
     77 C          -0.6043  -26.5027  -47.2478 C.2       13 UNK         0.5000 
     78 O          -0.1989  -27.1788  -48.1933 O.2       13 UNK        -0.5000 
     79 N          -0.0362  -25.3527  -46.8564 N.am      14 UNK        -0.5000 
     80 CA          1.2030  -24.8094  -47.4126 C.3       14 UNK         0.1400 
     81 CB          1.7397  -23.7119  -46.4816 C.3       14 UNK        -0.1800 
     82 C           1.0532  -24.2746  -48.8465 C.2       14 UNK         0.5000 
     83 O           1.9416  -24.5050  -49.6679 O.2       14 UNK        -0.5000 
     84 N          -0.0547  -23.5727  -49.1194 N.am      15 UNK        -0.5000 
     85 CA         -0.3726  -23.0287  -50.4405 C.3       15 UNK         0.1400 
     86 CB         -0.9310  -21.6042  -50.2926 C.3       15 UNK        -0.1800 
     87 C          -1.3557  -23.9375  -51.1950 C.2       15 UNK         0.5000 
     88 O          -1.2477  -24.0384  -52.4161 O.2       15 UNK        -0.5000 
     89 N          -2.2655  -24.5930  -50.4539 N.am      16 UNK        -0.5000 
     90 CA         -3.2893  -25.5352  -50.9243 C.3       16 UNK         0.1400 
     91 CB         -2.6312  -26.8049  -51.5042 C.3       16 UNK        -0.1800 
     92 C          -4.2746  -24.8622  -51.9107 C.2       16 UNK         0.5000 
     93 O          -4.1768  -25.0843  -53.1172 O.2       16 UNK        -0.5000 
     94 N          -5.2020  -24.0167  -51.4418 N.am      17 UNK        -0.5000 
     95 CA         -5.5414  -23.7314  -50.0498 C.3       17 UNK         0.1400 
     96 CB         -6.6886  -24.6600  -49.6074 C.3       17 UNK        -0.1800 
     97 C          -5.8811  -22.2408  -49.9233 C.2       17 UNK         0.5000 
     98 O          -7.0417  -21.8840  -49.7146 O.2       17 UNK        -0.5000 
     99 N          -4.8430  -21.4075  -50.0798 N.am      18 UNK        -0.5000 
    100 CA        -4.8677  -19.9399  -50.0674 C.3       18 UNK         0.1400 
    101 CB        -5.4262  -19.4112  -48.7268 C.3       18 UNK        -0.1800 
    102 C         -5.6082  -19.3379  -51.2822 C.2       18 UNK         0.5000 
    103 O         -5.9683  -20.0614  -52.2144 O.2       18 UNK        -0.5000 
    104 N         -5.7883  -18.0089  -51.2535 N.am      19 UNK        -0.5000 
    105 CA        -6.5009  -17.1732  -52.2258 C.3       19 UNK         0.1400 
    106 CB        -8.0244  -17.3411  -52.0363 C.3       19 UNK        -0.1800 
    107 C         -6.0238  -17.4106  -53.6737 C.2       19 UNK         0.5000 
    108 O         -4.9151  -16.9988  -54.0221 O.2       19 UNK        -0.5000 
    109 N         -6.8404  -18.1129  -54.4716 N.am      20 UNK        -0.5000 
    110 CA        -6.5906  -18.5020  -55.8628 C.3       20 UNK         0.1400 
    111 CB        -7.8343  -19.2276  -56.3992 C.3       20 UNK        -0.1800 
    112 C         -5.3263  -19.3597  -56.0856 C.2       20 UNK         0.5000 
    113 O         -4.8724  -19.4680  -57.2254 O.2       20 UNK        -0.5000 
    114 N         -4.7593  -19.9243  -55.0088 N.am      21 UNK        -0.5000 
    115 CA        -3.4618  -20.6020  -54.9998 C.3       21 UNK         0.1400 
    116 CB        -3.2427  -21.2493  -53.6233 C.3       21 UNK        -0.1800 
    117 C         -2.2703  -19.6835  -55.3512 C.2       21 UNK         0.5000 
    118 O         -1.2280  -20.1981  -55.7588 O.2       21 UNK        -0.5000 
    119 N         -2.4266  -18.3607  -55.1946 N.am      22 UNK        -0.5000 
    120 CA        -1.3921  -17.3642  -55.5140 C.3       22 UNK         0.1400 
    121 C         -1.9321  -15.9765  -55.9623 C.2       22 UNK         0.5000 
    122 N         -3.1898  -15.6255  -55.7236 N.am      22 UNK        -0.7600 
    123 O         -1.1947  -15.2049  -56.5695 O.2       22 UNK        -0.5000 
    124 C124       -0.2988  -17.2651  -54.4148 C.3       23 UNK        -0.0398 
    125 S125       -0.8308  -16.4699  -52.8582 S.3       23 UNK        -0.2404 
    126 C126       -1.7193  -17.8249  -52.0354 C.3       23 UNK        -0.0205 
    127 H127       -1.6618  -13.5409  -53.8062 H         1 UNK         0.0600 
    128 H128       -0.7623  -12.0374  -54.0240 H         1 UNK         0.0600 
    129 H129       -2.5187  -11.9989  -53.8325 H         1 UNK         0.0600 
    130 H130       -1.3983  -14.3615  -51.7744 H         1 UNK         0.3000 
    131 H131       -1.1691  -14.6556  -49.6310 H         1 UNK         0.0600 
    132 H132       -2.4009  -11.9255  -49.0423 H         1 UNK         0.0800 
    133 H133       -2.3351  -13.2932  -47.9661 H         1 UNK         0.0800 
    134 H134       -5.3273  -15.4825  -48.9484 H         1 UNK         0.0800 
    135 H135       -4.3697  -14.8562  -47.6278 H         1 UNK         0.0800 
    136 H136       -3.6141  -16.1132  -51.1212 H         1 UNK         0.1150 
    137 H137       -0.4793  -18.6962  -49.7795 H         1 UNK         0.1150 
    138 H138       -2.7149  -16.3993  -46.9364 H         1 UNK         0.1150 
    139 H139       -0.1020  -19.0841  -47.4871 H         1 UNK         0.0800 
    140 H140        0.0064  -17.5001  -46.7588 H         1 UNK         0.0800 
    141 H141       -2.6855  -20.0923  -47.5139 H         1 UNK         0.0800 
    142 H142       -3.6145  -20.1970  -46.0369 H         1 UNK         0.0800 
    143 H143       -1.0075  -21.6587  -46.6587 H         1 UNK         0.0600 
    144 H144       -1.7055  -20.9142  -44.1592 H         1 UNK         0.3000 
    145 H145       -1.2816  -23.4137  -42.0229 H         1 UNK         0.0600 
    146 H146        1.0610  -22.9334  -41.3838 H         1 UNK         0.0600 
    147 H147        1.0285  -23.9567  -42.8089 H         1 UNK         0.0600 
    148 H148        1.3893  -22.2421  -42.9702 H         1 UNK         0.0600 
    149 H149       -0.2624  -20.6428  -42.1827 H         1 UNK         0.3000 
    150 H150       -2.3226  -18.8577  -41.7225 H         1 UNK         0.0600 
    151 H151       -4.2326  -19.4254  -40.2875 H         1 UNK         0.0600 
    152 H152       -3.2099  -18.2703  -39.4488 H         1 UNK         0.0600 
    153 H153       -3.1739  -19.9747  -38.9979 H         1 UNK         0.0600 
    154 H154       -0.2967  -18.5063  -40.9386 H         1 UNK         0.3000 
    155 H155        1.5374  -19.1904  -38.1157 H         1 UNK         0.0600 
    156 H156        2.0998  -20.5826  -40.7919 H         1 UNK         0.0600 
    157 H157        2.0552  -21.3691  -39.2189 H         1 UNK         0.0600 
    158 H158        3.3013  -20.1810  -39.5657 H         1 UNK         0.0600 
    159 H159        1.9507  -18.1572  -40.8507 H         1 UNK         0.3000 
    160 H160        1.3110  -14.7969  -39.9722 H         1 UNK         0.0600 
    161 H161        4.0137  -16.1397  -40.5118 H         1 UNK         0.0600 
    162 H162        3.6534  -15.0331  -39.1934 H         1 UNK         0.0600 
    163 H163        3.6204  -14.4549  -40.8524 H         1 UNK         0.0600 
    164 H164        2.3040  -16.1921  -42.3173 H         1 UNK         0.3000 
    165 H165       -0.8677  -16.9571  -43.6691 H         1 UNK         0.0600 
    166 H166       -0.2792  -15.4589  -45.5603 H         1 UNK         0.0600 
    167 H167       -0.8360  -14.5137  -44.1909 H         1 UNK         0.0600 
    168 H168        0.8841  -14.6023  -44.5517 H         1 UNK         0.0600 
    169 H169        1.7282  -16.9007  -44.8557 H         1 UNK         0.3000 
    170 H170        3.0666  -19.8193  -43.4492 H         1 UNK         0.0600 
    171 H171        1.3132  -20.9046  -44.9511 H         1 UNK         0.0600 
    172 H172        1.7824  -19.7981  -46.2313 H         1 UNK         0.0600 
    173 H173        2.9431  -20.9653  -45.6037 H         1 UNK         0.0600 
    174 H174        3.7938  -18.5411  -45.8511 H         1 UNK         0.3000 
    175 H175        5.0486  -15.4933  -44.7833 H         1 UNK         0.0600 
    176 H176        6.8116  -17.9396  -45.3444 H         1 UNK         0.0600 
    177 H177        7.2907  -16.2510  -45.5246 H         1 UNK         0.0600 
    178 H178        6.9360  -16.8982  -43.9316 H         1 UNK         0.0600 
    179 H179        5.5320  -16.8568  -47.1922 H         1 UNK         0.3000 
    180 H180        4.4951  -16.3278  -49.0527 H         1 UNK         0.0600 
    181 H181        1.6565  -17.4062  -48.6230 H         1 UNK         0.0600 
    182 H182        3.1193  -18.3826  -48.5725 H         1 UNK         0.0600 
    183 H183        2.6364  -17.6064  -50.0724 H         1 UNK         0.0600 
    184 H184        1.9498  -15.1866  -49.5973 H         1 UNK         0.3000 
    185 H185        2.5245  -11.8488  -49.1995 H         1 UNK         0.0600 
    186 H186        4.2311  -11.9121  -51.0094 H         1 UNK         0.0600 
    187 H187        3.2724  -13.0846  -51.9050 H         1 UNK         0.0600 
    188 H188        2.6652  -11.4475  -51.6538 H         1 UNK         0.0600 
    189 H189        0.9888  -13.4441  -51.1104 H         1 UNK         0.3000 
    190 H190       -3.8213  -22.9075  -44.9458 H         1 UNK         0.3000 
    191 H191       -5.2679  -24.0687  -47.0516 H         1 UNK         0.0600 
    192 H192       -6.1605  -23.7942  -44.7633 H         1 UNK         0.0600 
    193 H193       -6.2551  -25.4816  -45.2400 H         1 UNK         0.0600 
    194 H194       -4.9913  -24.9558  -44.1338 H         1 UNK         0.0600 
    195 H195       -2.3357  -25.1997  -45.4421 H         1 UNK         0.3000 
    196 H196       -2.3407  -27.7344  -47.0437 H         1 UNK         0.0600 
    197 H197       -0.6760  -28.5111  -45.3652 H         1 UNK         0.0600 
    198 H198       -2.1955  -28.0877  -44.5911 H         1 UNK         0.0600 
    199 H199       -0.8193  -26.9913  -44.4879 H         1 UNK         0.0600 
    200 H200       -0.4137  -24.8676  -46.0459 H         1 UNK         0.3000 
    201 H201        1.9394  -25.6157  -47.4367 H         1 UNK         0.0600 
    202 H202        1.9093  -24.0941  -45.4747 H         1 UNK         0.0600 
    203 H203        1.0467  -22.8749  -46.4089 H         1 UNK         0.0600 
    204 H204        2.6904  -23.3204  -46.8458 H         1 UNK         0.0600 
    205 H205       -0.7649  -23.4678  -48.4056 H         1 UNK         0.3000 
    206 H206        0.5350  -22.9568  -51.0437 H         1 UNK         0.0600 
    207 H207       -0.2265  -20.9727  -49.7529 H         1 UNK         0.0600 
    208 H208       -1.0962  -21.1494  -51.2697 H         1 UNK         0.0600 
    209 H209       -1.8779  -21.5804  -49.7568 H         1 UNK         0.0600 
    210 H210       -2.2911  -24.3826  -49.4634 H         1 UNK         0.3000 
    211 H211       -3.8545  -25.8642  -50.0533 H         1 UNK         0.0600 
    212 H212       -2.0365  -26.5945  -52.3933 H         1 UNK         0.0600 
    213 H213       -3.3875  -27.5386  -51.7851 H         1 UNK         0.0600 
    214 H214       -1.9777  -27.2764  -50.7699 H         1 UNK         0.0600 
    215 H215       -5.7814  -23.5331  -52.1135 H         1 UNK         0.3000 
    216 H216       -4.6919  -23.8995  -49.3901 H         1 UNK         0.0600 
    217 H217       -7.0245  -24.4233  -48.5975 H         1 UNK         0.0600 
    218 H218       -6.3746  -25.7038  -49.6068 H         1 UNK         0.0600 
    219 H219       -7.5528  -24.5722  -50.2669 H         1 UNK         0.0600 
    220 H220       -3.9492  -21.8207  -50.2974 H         1 UNK         0.3000 
    221 H221       -3.8257  -19.6295  -50.1450 H         1 UNK         0.0600 
    222 H222       -6.5165  -19.4335  -48.7060 H         1 UNK         0.0600 
    223 H223       -5.0761  -20.0059  -47.8856 H         1 UNK         0.0600 
    224 H224       -5.1171  -18.3823  -48.5447 H         1 UNK         0.0600 
    225 H225       -5.4093  -17.5082  -50.4635 H         1 UNK         0.3000 
    226 H226       -6.2505  -16.1373  -51.9915 H         1 UNK         0.0600 
    227 H227       -8.3245  -17.0331  -51.0346 H         1 UNK         0.0600 
    228 H228       -8.5818  -16.7219  -52.7405 H         1 UNK         0.0600 
    229 H229       -8.3461  -18.3748  -52.1686 H         1 UNK         0.0600 
    230 H230       -7.7037  -18.4490  -54.0706 H         1 UNK         0.3000 
    231 H231       -6.4552  -17.5835  -56.4371 H         1 UNK         0.0600 
    232 H232       -8.0357  -20.1428  -55.8409 H         1 UNK         0.0600 
    233 H233       -7.7071  -19.5034  -57.4470 H         1 UNK         0.0600 
    234 H234       -8.7192  -18.5939  -56.3381 H         1 UNK         0.0600 
    235 H235       -5.2238  -19.8252  -54.1117 H         1 UNK         0.3000 
    236 H236       -3.4957  -21.3953  -55.7490 H         1 UNK         0.0600 
    237 H237       -4.0443  -21.9471  -53.3815 H         1 UNK         0.0600 
    238 H238       -2.3084  -21.8109  -53.6030 H         1 UNK         0.0600 
    239 H239       -3.1937  -20.5040  -52.8299 H         1 UNK         0.0600 
    240 H240       -3.3115  -18.0005  -54.8588 H         1 UNK         0.3000 
    241 H241       -0.8889  -17.7317  -56.4107 H         1 UNK         0.0600 
    242 H242       -3.8114  -16.1827  -55.1424 H         1 UNK         0.3800 
    243 H243       -3.5053  -14.7258  -56.0475 H         1 UNK         0.3800 
    244 H244        0.1038  -18.2532  -54.1891 H         1 UNK         0.0800 
    245 H245        0.5478  -16.6934  -54.7978 H         1 UNK         0.0800 
    246 H246       -2.6551  -18.0234  -52.5571 H         1 UNK         0.0800 
    247 H247       -1.1268  -18.7395  -52.0842 H         1 UNK         0.0800 
@<TRIPOS>BOND
     1    1    2 1    
     2    1  127 1    
     3    1  128 1    
     4    1  129 1    
     5    2    3 2    
     6    2    4 am   BACKBONE|DICT|INTERRES
     7    4    5 1    
     8    4  130 1    
     9    5    6 1    
    10    5   65 1    
    11    5  131 1    
    12    6    7 1    
    13    6  132 1    
    14    6  133 1    
    15    7    8 1    
    16    8    9 1    
    17    8  134 1    
    18    8  135 1    
    19    9   10 ar   
    20    9   14 ar   
    21   10   11 ar   
    22   10  136 1    
    23   11   12 ar   
    24   11  126 1    
    25   12   13 ar   
    26   12  137 1    
    27   13   14 ar   
    28   13   15 1    
    29   14  138 1    
    30   15   16 1    
    31   15  139 1    
    32   15  140 1    
    33   16   17 1    
    34   17   18 1    
    35   17  141 1    
    36   17  142 1    
    37   18   19 1    
    38   18   67 1    
    39   18  143 1    
    40   19   20 am   BACKBONE|DICT|INTERRES
    41   19  144 1    
    42   20   21 2    
    43   20   22 1    
    44   22   23 1    
    45   22   24 1    
    46   22  145 1    
    47   23  146 1    
    48   23  147 1    
    49   23  148 1    
    50   24   25 am   BACKBONE|DICT|INTERRES
    51   24  149 1    
    52   25   26 2    
    53   25   27 1    
    54   27   28 1    
    55   27   29 1    
    56   27  150 1    
    57   28  151 1    
    58   28  152 1    
    59   28  153 1    
    60   29   30 am   BACKBONE|DICT|INTERRES
    61   29  154 1    
    62   30   31 2    
    63   30   32 1    
    64   32   33 1    
    65   32   34 1    
    66   32  155 1    
    67   33  156 1    
    68   33  157 1    
    69   33  158 1    
    70   34   35 am   BACKBONE|DICT|INTERRES
    71   34  159 1    
    72   35   36 2    
    73   35   37 1    
    74   37   38 1    
    75   37   39 1    
    76   37  160 1    
    77   38  161 1    
    78   38  162 1    
    79   38  163 1    
    80   39   40 am   BACKBONE|DICT|INTERRES
    81   39  164 1    
    82   40   41 2    
    83   40   42 1    
    84   42   43 1    
    85   42   44 1    
    86   42  165 1    
    87   43  166 1    
    88   43  167 1    
    89   43  168 1    
    90   44   45 am   BACKBONE|DICT|INTERRES
    91   44  169 1    
    92   45   46 2    
    93   45   47 1    
    94   47   48 1    
    95   47   49 1    
    96   47  170 1    
    97   48  171 1    
    98   48  172 1    
    99   48  173 1    
   100   49   50 am   BACKBONE|DICT|INTERRES
   101   49  174 1    
   102   50   51 2    
   103   50   52 1    
   104   52   53 1    
   105   52   54 1    
   106   52  175 1    
   107   53  176 1    
   108   53  177 1    
   109   53  178 1    
   110   54   55 am   BACKBONE|DICT|INTERRES
   111   54  179 1    
   112   55   56 2    
   113   55   57 1    
   114   57   58 1    
   115   57   59 1    
   116   57  180 1    
   117   58  181 1    
   118   58  182 1    
   119   58  183 1    
   120   59   60 am   BACKBONE|DICT|INTERRES
   121   59  184 1    
   122   60   61 2    
   123   60   62 1    
   124   62   63 1    
   125   62   64 1    
   126   62  185 1    
   127   63  186 1    
   128   63  187 1    
   129   63  188 1    
   130   64   65 am   BACKBONE|DICT|INTERRES
   131   64  189 1    
   132   65   66 2    
   133   67   68 2    
   134   67   69 am   BACKBONE|DICT|INTERRES
   135   69   70 1    
   136   69  190 1    
   137   70   71 1    
   138   70   72 1    
   139   70  191 1    
   140   71  192 1    
   141   71  193 1    
   142   71  194 1    
   143   72   73 2    
   144   72   74 am   BACKBONE|DICT|INTERRES
   145   74   75 1    
   146   74  195 1    
   147   75   76 1    
   148   75   77 1    
   149   75  196 1    
   150   76  197 1    
   151   76  198 1    
   152   76  199 1    
   153   77   78 2    
   154   77   79 am   BACKBONE|DICT|INTERRES
   155   79   80 1    
   156   79  200 1    
   157   80   81 1    
   158   80   82 1    
   159   80  201 1    
   160   81  202 1    
   161   81  203 1    
   162   81  204 1    
   163   82   83 2    
   164   82   84 am   BACKBONE|DICT|INTERRES
   165   84   85 1    
   166   84  205 1    
   167   85   86 1    
   168   85   87 1    
   169   85  206 1    
   170   86  207 1    
   171   86  208 1    
   172   86  209 1    
   173   87   88 2    
   174   87   89 am   BACKBONE|DICT|INTERRES
   175   89   90 1    
   176   89  210 1    
   177   90   91 1    
   178   90   92 1    
   179   90  211 1    
   180   91  212 1    
   181   91  213 1    
   182   91  214 1    
   183   92   93 2    
   184   92   94 am   BACKBONE|DICT|INTERRES
   185   94   95 1    
   186   94  215 1    
   187   95   96 1    
   188   95   97 1    
   189   95  216 1    
   190   96  217 1    
   191   96  218 1    
   192   96  219 1    
   193   97   98 2    
   194   97   99 am   BACKBONE|DICT|INTERRES
   195   99  100 1    
   196   99  220 1    
   197  100  101 1    
   198  100  102 1    
   199  100  221 1    
   200  101  222 1    
   201  101  223 1    
   202  101  224 1    
   203  102  103 2    
   204  102  104 am   BACKBONE|DICT|INTERRES
   205  104  105 1    
   206  104  225 1    
   207  105  106 1    
   208  105  107 1    
   209  105  226 1    
   210  106  227 1    
   211  106  228 1    
   212  106  229 1    
   213  107  108 2    
   214  107  109 am   BACKBONE|DICT|INTERRES
   215  109  110 1    
   216  109  230 1    
   217  110  111 1    
   218  110  112 1    
   219  110  231 1    
   220  111  232 1    
   221  111  233 1    
   222  111  234 1    
   223  112  113 2    
   224  112  114 am   BACKBONE|DICT|INTERRES
   225  114  115 1    
   226  114  235 1    
   227  115  116 1    
   228  115  117 1    
   229  115  236 1    
   230  116  237 1    
   231  116  238 1    
   232  116  239 1    
   233  117  118 2    
   234  117  119 am   BACKBONE|DICT|INTERRES
   235  119  120 1    
   236  119  240 1    
   237  120  121 1    
   238  120  124 1    
   239  120  241 1    
   240  121  122 am   BACKBONE|DICT|INTERRES
   241  121  123 2    
   242  122  242 1    
   243  122  243 1    
   244  124  125 1    
   245  124  244 1    
   246  124  245 1    
   247  125  126 1    
   248  126  246 1    
   249  126  247 1    
@<TRIPOS>SUBSTRUCTURE
     1 UNK         1 GROUP             0       ****    0 ROOT    
