@<TRIPOS>MOLECULE
3R540
247   249    1
SMALL
USER_CHARGES


@<TRIPOS>ATOM
      1 CA          3.9129  -17.7588  -52.0236 C.3       0 UNK        -0.1800 
      2 C           4.5844  -16.4014  -51.8848 C.2       0 UNK         0.5000 
      3 O           5.1425  -15.8950  -52.8584 O.2       0 UNK        -0.5000 
      4 N           4.5499  -15.8194  -50.6782 N.am      1 UNK        -0.5000 
      5 CA          5.1772  -14.5304  -50.3609 C.3       1 UNK         0.1400 
      6 C6          5.3415  -14.3216  -48.8305 C.3       23 UNK        -0.0398 
      7 S7          3.8007  -13.9658  -47.9051 S.3       23 UNK        -0.2404 
      8 C8          3.5657  -15.4681  -46.9000 C.3       23 UNK        -0.0205 
      9 C9          3.1007  -16.6797  -47.6995 C.ar      23 UNK        -0.0193 
     10 C10         2.0645  -16.5730  -48.6329 C.ar      23 UNK        -0.1150 
     11 C11         1.6135  -17.6977  -49.3288 C.ar      23 UNK        -0.0193 
     12 C12         2.1845  -18.9451  -49.0683 C.ar      23 UNK        -0.1150 
     13 C13         3.2188  -19.0667  -48.1370 C.ar      23 UNK        -0.0193 
     14 C14         3.6782  -17.9306  -47.4640 C.ar      23 UNK        -0.1150 
     15 C15         3.8477  -20.4229  -47.8592 C.3       23 UNK        -0.0205 
     16 S16         3.3559  -21.0707  -46.2324 S.3       23 UNK        -0.2404 
     17 C17         1.6067  -21.5135  -46.5095 C.3       23 UNK        -0.0398 
     18 CA          1.3721  -23.0421  -46.5211 C.3       11 UNK         0.1400 
     19 N           1.8868  -23.6937  -45.3138 N.am      11 UNK        -0.5000 
     20 C           2.1212  -25.0058  -45.1896 C.2       10 UNK         0.5000 
     21 O           1.9269  -25.8203  -46.0901 O.2       10 UNK        -0.5000 
     22 CA          2.6180  -25.4915  -43.8145 C.3       10 UNK         0.1400 
     23 CB          4.1450  -25.3600  -43.7181 C.3       10 UNK        -0.1800 
     24 N           2.0001  -24.7673  -42.7020 N.am      10 UNK        -0.5000 
     25 C           0.6953  -24.8133  -42.3983 C.2       9 UNK         0.5000 
     26 O          -0.1177  -25.5176  -42.9942 O.2       9 UNK        -0.5000 
     27 CA          0.2041  -23.8697  -41.2846 C.3       9 UNK         0.1400 
     28 CB          0.3002  -24.5573  -39.9149 C.3       9 UNK        -0.1800 
     29 N           0.9207  -22.5910  -41.2389 N.am      9 UNK        -0.5000 
     30 C           0.9699  -21.7038  -42.2418 C.2       8 UNK         0.5000 
     31 O           0.4419  -21.8873  -43.3418 O.2       8 UNK        -0.5000 
     32 CA          1.8053  -20.4357  -41.9816 C.3       8 UNK         0.1400 
     33 CB          3.2982  -20.7327  -42.1948 C.3       8 UNK        -0.1800 
     34 N           1.4240  -19.3152  -42.8424 N.am      8 UNK        -0.5000 
     35 C           0.2439  -18.6837  -42.8031 C.2       7 UNK         0.5000 
     36 O          -0.6501  -18.9606  -41.9984 O.2       7 UNK        -0.5000 
     37 CA          0.0237  -17.5420  -43.8124 C.3       7 UNK         0.1400 
     38 CB          0.8220  -17.7025  -45.1246 C.3       7 UNK        -0.1800 
     39 N          -1.4068  -17.4375  -44.0857 N.am      7 UNK        -0.5000 
     40 C          -2.0406  -16.3383  -44.4999 C.2       6 UNK         0.5000 
     41 O          -1.4758  -15.2661  -44.7344 O.2       6 UNK        -0.5000 
     42 CA         -3.5659  -16.4478  -44.6541 C.3       6 UNK         0.1400 
     43 CB         -4.2594  -16.5092  -43.2791 C.3       6 UNK        -0.1800 
     44 N          -4.0281  -15.2853  -45.4016 N.am      6 UNK        -0.5000 
     45 C          -5.2138  -15.1304  -46.0003 C.2       5 UNK         0.5000 
     46 O          -6.1183  -15.9648  -45.9630 O.2       5 UNK        -0.5000 
     47 CA         -5.4333  -13.8096  -46.7658 C.3       5 UNK         0.1400 
     48 CB         -6.2056  -12.8059  -45.8957 C.3       5 UNK        -0.1800 
     49 N          -4.1868  -13.1860  -47.2221 N.am      5 UNK        -0.5000 
     50 C          -3.4306  -13.6656  -48.2179 C.2       4 UNK         0.5000 
     51 O          -3.7142  -14.6769  -48.8601 O.2       4 UNK        -0.5000 
     52 CA         -2.1201  -12.9075  -48.5020 C.3       4 UNK         0.1400 
     53 CB         -0.9918  -13.4179  -47.5920 C.3       4 UNK        -0.1800 
     54 N          -1.6841  -13.0509  -49.8873 N.am      4 UNK        -0.5000 
     55 C          -2.2488  -12.4767  -50.9547 C.2       3 UNK         0.5000 
     56 O          -3.2144  -11.7140  -50.8849 O.2       3 UNK        -0.5000 
     57 CA         -1.5745  -12.7674  -52.3165 C.3       3 UNK         0.1400 
     58 CB         -2.2777  -12.0635  -53.4910 C.3       3 UNK        -0.1800 
     59 N          -0.1578  -12.3853  -52.3149 N.am      3 UNK        -0.5000 
     60 C           0.8265  -13.0825  -51.7344 C.2       2 UNK         0.5000 
     61 O           0.6484  -14.1737  -51.1850 O.2       2 UNK        -0.5000 
     62 CA          2.2208  -12.4365  -51.7125 C.3       2 UNK         0.1400 
     63 CB          2.2124  -11.1808  -50.8143 C.3       2 UNK        -0.1800 
     64 N           3.1504  -13.4320  -51.1918 N.am      2 UNK        -0.5000 
     65 C           4.4767  -13.3355  -51.0502 C.2       1 UNK         0.5000 
     66 O           5.1442  -12.3734  -51.4336 O.2       1 UNK        -0.5000 
     67 C          -0.1229  -23.3561  -46.7253 C.2       11 UNK         0.5000 
     68 O          -0.5729  -23.4802  -47.8663 O.2       11 UNK        -0.5000 
     69 N          -0.8657  -23.4870  -45.6172 N.am      12 UNK        -0.5000 
     70 CA         -2.2582  -23.9280  -45.6064 C.3       12 UNK         0.1400 
     71 CB         -2.8979  -23.6028  -44.2498 C.3       12 UNK        -0.1800 
     72 C          -2.3829  -25.4232  -45.9484 C.2       12 UNK         0.5000 
     73 O          -3.2348  -25.7843  -46.7583 O.2       12 UNK        -0.5000 
     74 N          -1.4982  -26.2585  -45.3831 N.am      13 UNK        -0.5000 
     75 CA         -1.3946  -27.6937  -45.6712 C.3       13 UNK         0.1400 
     76 CB         -0.3964  -28.3431  -44.7015 C.3       13 UNK        -0.1800 
     77 C          -1.0054  -27.9936  -47.1323 C.2       13 UNK         0.5000 
     78 O          -1.4829  -28.9764  -47.6997 O.2       13 UNK        -0.5000 
     79 N          -0.1903  -27.1132  -47.7299 N.am      14 UNK        -0.5000 
     80 CA          0.1593  -27.1080  -49.1530 C.3       14 UNK         0.1400 
     81 CB          1.4043  -26.2283  -49.3528 C.3       14 UNK        -0.1800 
     82 C          -0.9883  -26.6374  -50.0749 C.2       14 UNK         0.5000 
     83 O          -0.8323  -26.6924  -51.2952 O.2       14 UNK        -0.5000 
     84 N          -2.1037  -26.1766  -49.4876 N.am      15 UNK        -0.5000 
     85 CA         -3.3212  -25.6718  -50.1285 C.3       15 UNK         0.1400 
     86 CB         -3.9860  -26.7532  -51.0058 C.3       15 UNK        -0.1800 
     87 C          -3.1279  -24.3309  -50.8648 C.2       15 UNK         0.5000 
     88 O          -3.9436  -23.9885  -51.7216 O.2       15 UNK        -0.5000 
     89 N          -2.0794  -23.5788  -50.5019 N.am      16 UNK        -0.5000 
     90 CA         -1.8274  -22.2291  -50.9967 C.3       16 UNK         0.1400 
     91 CB         -0.3131  -21.9469  -50.9990 C.3       16 UNK        -0.1800 
     92 C          -2.6077  -21.2334  -50.1294 C.2       16 UNK         0.5000 
     93 O          -3.6266  -20.7001  -50.5655 O.2       16 UNK        -0.5000 
     94 N          -2.1635  -21.0677  -48.8771 N.am      17 UNK        -0.5000 
     95 CA         -2.7203  -20.1194  -47.9071 C.3       17 UNK         0.1400 
     96 CB         -1.6926  -19.8898  -46.7934 C.3       17 UNK        -0.1800 
     97 C          -4.0925  -20.5251  -47.3333 C.2       17 UNK         0.5000 
     98 O          -4.6632  -19.7766  -46.5403 O.2       17 UNK        -0.5000 
     99 N          -4.6053  -21.6909  -47.7489 N.am      18 UNK        -0.5000 
    100 CA        -5.9827  -22.1227  -47.5247 C.3       18 UNK         0.1400 
    101 CB        -6.0979  -23.6151  -47.8692 C.3       18 UNK        -0.1800 
    102 C         -6.9949  -21.2971  -48.3463 C.2       18 UNK         0.5000 
    103 O         -8.1434  -21.1612  -47.9228 O.2       18 UNK        -0.5000 
    104 N         -6.5570  -20.7565  -49.4928 N.am      19 UNK        -0.5000 
    105 CA        -7.3254  -19.8289  -50.3161 C.3       19 UNK         0.1400 
    106 CB        -6.9262  -20.0219  -51.7877 C.3       19 UNK        -0.1800 
    107 C         -7.0349  -18.3867  -49.8746 C.2       19 UNK         0.5000 
    108 O         -5.8856  -18.0615  -49.5731 O.2       19 UNK        -0.5000 
    109 N         -8.0609  -17.5269  -49.9118 N.am      20 UNK        -0.5000 
    110 CA        -7.9695  -16.1049  -49.5544 C.3       20 UNK         0.1400 
    111 CB        -9.3891  -15.5345  -49.4137 C.3       20 UNK        -0.1800 
    112 C         -7.1410  -15.2586  -50.5452 C.2       20 UNK         0.5000 
    113 O         -6.7216  -14.1566  -50.1946 O.2       20 UNK        -0.5000 
    114 N         -6.9248  -15.7834  -51.7582 N.am      21 UNK        -0.5000 
    115 CA        -6.0363  -15.2153  -52.7734 C.3       21 UNK         0.1400 
    116 CB        -6.6365  -15.5045  -54.1592 C.3       21 UNK        -0.1800 
    117 C         -4.5999  -15.7725  -52.6797 C.2       21 UNK         0.5000 
    118 O         -3.7316  -15.3097  -53.4190 O.2       21 UNK        -0.5000 
    119 N         -4.3725  -16.7616  -51.8033 N.am      22 UNK        -0.5000 
    120 CA        -3.1000  -17.4721  -51.5932 C.3       22 UNK         0.1400 
    121 C         -2.6683  -18.4179  -52.7580 C.2       22 UNK         0.5000 
    122 N         -3.5311  -18.7230  -53.7204 N.am      22 UNK        -0.7600 
    123 O         -1.5418  -18.9042  -52.7869 O.2       22 UNK        -0.5000 
    124 C124       -1.9600  -16.5260  -51.1213 C.3       23 UNK        -0.0398 
    125 S125       -1.0716  -17.1500  -49.6564 S.3       23 UNK        -0.2404 
    126 C126        0.5386  -17.5500  -50.3896 C.3       23 UNK        -0.0205 
    127 H127        4.3987  -18.3465  -52.8026 H         1 UNK         0.0600 
    128 H128        2.8640  -17.6380  -52.2924 H         1 UNK         0.0600 
    129 H129        3.9769  -18.3241  -51.0949 H         1 UNK         0.0600 
    130 H130        4.0636  -16.2729  -49.9158 H         1 UNK         0.3000 
    131 H131        6.1871  -14.5692  -50.7756 H         1 UNK         0.0600 
    132 H132        5.8369  -15.1888  -48.3920 H         1 UNK         0.0800 
    133 H133        6.0208  -13.4859  -48.6547 H         1 UNK         0.0800 
    134 H134        4.4900  -15.6842  -46.3620 H         1 UNK         0.0800 
    135 H135        2.8120  -15.2571  -46.1403 H         1 UNK         0.0800 
    136 H136        1.6023  -15.6136  -48.8217 H         1 UNK         0.1150 
    137 H137        1.8349  -19.8171  -49.6027 H         1 UNK         0.1150 
    138 H138        4.4719  -18.0302  -46.7369 H         1 UNK         0.1150 
    139 H139        3.5868  -21.1447  -48.6348 H         1 UNK         0.0800 
    140 H140        4.9338  -20.3249  -47.8857 H         1 UNK         0.0800 
    141 H141        1.2621  -21.0741  -47.4458 H         1 UNK         0.0800 
    142 H142        1.0206  -21.0393  -45.7221 H         1 UNK         0.0800 
    143 H143        1.9086  -23.4541  -47.3785 H         1 UNK         0.0600 
    144 H144        2.0196  -23.0936  -44.5123 H         1 UNK         0.3000 
    145 H145        2.3580  -26.5475  -43.7186 H         1 UNK         0.0600 
    146 H146        4.5176  -25.7672  -42.7781 H         1 UNK         0.0600 
    147 H147        4.6349  -25.9069  -44.5249 H         1 UNK         0.0600 
    148 H148        4.4657  -24.3194  -43.7849 H         1 UNK         0.0600 
    149 H149        2.5991  -24.1623  -42.1602 H         1 UNK         0.3000 
    150 H150       -0.8469  -23.6503  -41.4830 H         1 UNK         0.0600 
    151 H151        1.3344  -24.7723  -39.6431 H         1 UNK         0.0600 
    152 H152       -0.2431  -25.5033  -39.9142 H         1 UNK         0.0600 
    153 H153       -0.1319  -23.9362  -39.1301 H         1 UNK         0.0600 
    154 H154        1.3919  -22.3746  -40.3722 H         1 UNK         0.3000 
    155 H155        1.6527  -20.1299  -40.9445 H         1 UNK         0.0600 
    156 H156        3.5038  -21.0518  -43.2168 H         1 UNK         0.0600 
    157 H157        3.6424  -21.5254  -41.5295 H         1 UNK         0.0600 
    158 H158        3.9091  -19.8535  -41.9895 H         1 UNK         0.0600 
    159 H159        2.0889  -19.0531  -43.5546 H         1 UNK         0.3000 
    160 H160        0.3495  -16.6242  -43.3188 H         1 UNK         0.0600 
    161 H161        0.6518  -18.6733  -45.5859 H         1 UNK         0.0600 
    162 H162        1.8937  -17.6055  -44.9502 H         1 UNK         0.0600 
    163 H163        0.5526  -16.9390  -45.8548 H         1 UNK         0.0600 
    164 H164       -1.9417  -18.2541  -43.8209 H         1 UNK         0.3000 
    165 H165       -3.7932  -17.3496  -45.2265 H         1 UNK         0.0600 
    166 H166       -5.3396  -16.6124  -43.3807 H         1 UNK         0.0600 
    167 H167       -3.9104  -17.3641  -42.6988 H         1 UNK         0.0600 
    168 H168       -4.0630  -15.6111  -42.6922 H         1 UNK         0.0600 
    169 H169       -3.3201  -14.5692  -45.5083 H         1 UNK         0.3000 
    170 H170       -6.0441  -14.0374  -47.6405 H         1 UNK         0.0600 
    171 H171       -7.1541  -13.2285  -45.5615 H         1 UNK         0.0600 
    172 H172       -5.6400  -12.5249  -45.0064 H         1 UNK         0.0600 
    173 H173       -6.4350  -11.8965  -46.4514 H         1 UNK         0.0600 
    174 H174       -3.8916  -12.3541  -46.7316 H         1 UNK         0.3000 
    175 H175       -2.2777  -11.8453  -48.3039 H         1 UNK         0.0600 
    176 H176       -1.2287  -13.2458  -46.5419 H         1 UNK         0.0600 
    177 H177       -0.8240  -14.4887  -47.7203 H         1 UNK         0.0600 
    178 H178       -0.0513  -12.9062  -47.7986 H         1 UNK         0.0600 
    179 H179       -0.8952  -13.6677  -50.0522 H         1 UNK         0.3000 
    180 H180       -1.6451  -13.8423  -52.4903 H         1 UNK         0.0600 
    181 H181       -2.2419  -10.9780  -53.3923 H         1 UNK         0.0600 
    182 H182       -3.3269  -12.3565  -53.5483 H         1 UNK         0.0600 
    183 H183       -1.8173  -12.3309  -54.4422 H         1 UNK         0.0600 
    184 H184        0.0567  -11.4835  -52.7154 H         1 UNK         0.3000 
    185 H185        2.5083  -12.1747  -52.7322 H         1 UNK         0.0600 
    186 H186        1.4885  -10.4446  -51.1649 H         1 UNK         0.0600 
    187 H187        1.9541  -11.4302  -49.7841 H         1 UNK         0.0600 
    188 H188        3.1826  -10.6850  -50.8031 H         1 UNK         0.0600 
    189 H189        2.6839  -14.2723  -50.8705 H         1 UNK         0.3000 
    190 H190       -0.4310  -23.3052  -44.7200 H         1 UNK         0.3000 
    191 H191       -2.7971  -23.3674  -46.3720 H         1 UNK         0.0600 
    192 H192       -2.8320  -22.5369  -44.0300 H         1 UNK         0.0600 
    193 H193       -3.9548  -23.8719  -44.2452 H         1 UNK         0.0600 
    194 H194       -2.4179  -24.1433  -43.4342 H         1 UNK         0.0600 
    195 H195       -0.8690  -25.8962  -44.6710 H         1 UNK         0.3000 
    196 H196       -2.3766  -28.1374  -45.4951 H         1 UNK         0.0600 
    197 H197       -0.3274  -29.4180  -44.8732 H         1 UNK         0.0600 
    198 H198       -0.7019  -28.1987  -43.6651 H         1 UNK         0.0600 
    199 H199        0.6044  -27.9274  -44.8173 H         1 UNK         0.0600 
    200 H200        0.2315  -26.3875  -47.1615 H         1 UNK         0.3000 
    201 H201        0.4126  -28.1283  -49.4474 H         1 UNK         0.0600 
    202 H202        1.7311  -26.2386  -50.3933 H         1 UNK         0.0600 
    203 H203        2.2398  -26.5835  -48.7495 H         1 UNK         0.0600 
    204 H204        1.2108  -25.1906  -49.0811 H         1 UNK         0.0600 
    205 H205       -2.1349  -26.1691  -48.4747 H         1 UNK         0.3000 
    206 H206       -4.0119  -25.4576  -49.3129 H         1 UNK         0.0600 
    207 H207       -4.1065  -27.6870  -50.4564 H         1 UNK         0.0600 
    208 H208       -4.9792  -26.4385  -51.3281 H         1 UNK         0.0600 
    209 H209       -3.4051  -26.9632  -51.9040 H         1 UNK         0.0600 
    210 H210       -1.4831  -23.9038  -49.7493 H         1 UNK         0.3000 
    211 H211       -2.1845  -22.1324  -52.0245 H         1 UNK         0.0600 
    212 H212        0.1401  -22.0710  -50.0158 H         1 UNK         0.0600 
    213 H213       -0.1105  -20.9270  -51.3279 H         1 UNK         0.0600 
    214 H214        0.2046  -22.6167  -51.6857 H         1 UNK         0.0600 
    215 H215       -1.3855  -21.6354  -48.5662 H         1 UNK         0.3000 
    216 H216       -2.8747  -19.1686  -48.4205 H         1 UNK         0.0600 
    217 H217       -2.0273  -19.1005  -46.1232 H         1 UNK         0.0600 
    218 H218       -0.7360  -19.5750  -47.2098 H         1 UNK         0.0600 
    219 H219       -1.5342  -20.7839  -46.1919 H         1 UNK         0.0600 
    220 H220       -4.0605  -22.2309  -48.4034 H         1 UNK         0.3000 
    221 H221       -6.2198  -21.9920  -46.4667 H         1 UNK         0.0600 
    222 H222       -5.8712  -23.8044  -48.9191 H         1 UNK         0.0600 
    223 H223       -5.4192  -24.2142  -47.2626 H         1 UNK         0.0600 
    224 H224       -7.1080  -23.9811  -47.6812 H         1 UNK         0.0600 
    225 H225       -5.5781  -20.8497  -49.7410 H         1 UNK         0.3000 
    226 H226       -8.3934  -20.0337  -50.2156 H         1 UNK         0.0600 
    227 H227       -7.4990  -19.3619  -52.4402 H         1 UNK         0.0600 
    228 H228       -5.8685  -19.8097  -51.9504 H         1 UNK         0.0600 
    229 H229       -7.1134  -21.0448  -52.1147 H         1 UNK         0.0600 
    230 H230       -8.9743  -17.8614  -50.1846 H         1 UNK         0.3000 
    231 H231       -7.4767  -16.0347  -48.5821 H         1 UNK         0.0600 
    232 H232       -9.9407  -15.5920  -50.3529 H         1 UNK         0.0600 
    233 H233       -9.3613  -14.4863  -49.1129 H         1 UNK         0.0600 
    234 H234       -9.9575  -16.0726  -48.6549 H         1 UNK         0.0600 
    235 H235       -7.3422  -16.6770  -51.9709 H         1 UNK         0.3000 
    236 H236       -5.9739  -14.1321  -52.6491 H         1 UNK         0.0600 
    237 H237       -7.6356  -15.0784  -54.2519 H         1 UNK         0.0600 
    238 H238       -6.0253  -15.0681  -54.9504 H         1 UNK         0.0600 
    239 H239       -6.7087  -16.5754  -54.3528 H         1 UNK         0.0600 
    240 H240       -5.1187  -17.0514  -51.1818 H         1 UNK         0.3000 
    241 H241       -3.3319  -18.1458  -50.7699 H         1 UNK         0.0600 
    242 H242       -4.4608  -18.3394  -53.7174 H         1 UNK         0.3800 
    243 H243       -3.2427  -19.3401  -54.4624 H         1 UNK         0.3800 
    244 H244       -1.2665  -16.2946  -51.9312 H         1 UNK         0.0800 
    245 H245       -2.3695  -15.5628  -50.8275 H         1 UNK         0.0800 
    246 H246        0.4454  -18.4607  -50.9821 H         1 UNK         0.0800 
    247 H247        0.8407  -16.7629  -51.0798 H         1 UNK         0.0800 
@<TRIPOS>BOND
     1    1    2 1    
     2    1  127 1    
     3    1  128 1    
     4    1  129 1    
     5    2    3 2    
     6    2    4 am   BACKBONE|DICT|INTERRES
     7    4    5 1    
     8    4  130 1    
     9    5    6 1    
    10    5   65 1    
    11    5  131 1    
    12    6    7 1    
    13    6  132 1    
    14    6  133 1    
    15    7    8 1    
    16    8    9 1    
    17    8  134 1    
    18    8  135 1    
    19    9   10 ar   
    20    9   14 ar   
    21   10   11 ar   
    22   10  136 1    
    23   11   12 ar   
    24   11  126 1    
    25   12   13 ar   
    26   12  137 1    
    27   13   14 ar   
    28   13   15 1    
    29   14  138 1    
    30   15   16 1    
    31   15  139 1    
    32   15  140 1    
    33   16   17 1    
    34   17   18 1    
    35   17  141 1    
    36   17  142 1    
    37   18   19 1    
    38   18   67 1    
    39   18  143 1    
    40   19   20 am   BACKBONE|DICT|INTERRES
    41   19  144 1    
    42   20   21 2    
    43   20   22 1    
    44   22   23 1    
    45   22   24 1    
    46   22  145 1    
    47   23  146 1    
    48   23  147 1    
    49   23  148 1    
    50   24   25 am   BACKBONE|DICT|INTERRES
    51   24  149 1    
    52   25   26 2    
    53   25   27 1    
    54   27   28 1    
    55   27   29 1    
    56   27  150 1    
    57   28  151 1    
    58   28  152 1    
    59   28  153 1    
    60   29   30 am   BACKBONE|DICT|INTERRES
    61   29  154 1    
    62   30   31 2    
    63   30   32 1    
    64   32   33 1    
    65   32   34 1    
    66   32  155 1    
    67   33  156 1    
    68   33  157 1    
    69   33  158 1    
    70   34   35 am   BACKBONE|DICT|INTERRES
    71   34  159 1    
    72   35   36 2    
    73   35   37 1    
    74   37   38 1    
    75   37   39 1    
    76   37  160 1    
    77   38  161 1    
    78   38  162 1    
    79   38  163 1    
    80   39   40 am   BACKBONE|DICT|INTERRES
    81   39  164 1    
    82   40   41 2    
    83   40   42 1    
    84   42   43 1    
    85   42   44 1    
    86   42  165 1    
    87   43  166 1    
    88   43  167 1    
    89   43  168 1    
    90   44   45 am   BACKBONE|DICT|INTERRES
    91   44  169 1    
    92   45   46 2    
    93   45   47 1    
    94   47   48 1    
    95   47   49 1    
    96   47  170 1    
    97   48  171 1    
    98   48  172 1    
    99   48  173 1    
   100   49   50 am   BACKBONE|DICT|INTERRES
   101   49  174 1    
   102   50   51 2    
   103   50   52 1    
   104   52   53 1    
   105   52   54 1    
   106   52  175 1    
   107   53  176 1    
   108   53  177 1    
   109   53  178 1    
   110   54   55 am   BACKBONE|DICT|INTERRES
   111   54  179 1    
   112   55   56 2    
   113   55   57 1    
   114   57   58 1    
   115   57   59 1    
   116   57  180 1    
   117   58  181 1    
   118   58  182 1    
   119   58  183 1    
   120   59   60 am   BACKBONE|DICT|INTERRES
   121   59  184 1    
   122   60   61 2    
   123   60   62 1    
   124   62   63 1    
   125   62   64 1    
   126   62  185 1    
   127   63  186 1    
   128   63  187 1    
   129   63  188 1    
   130   64   65 am   BACKBONE|DICT|INTERRES
   131   64  189 1    
   132   65   66 2    
   133   67   68 2    
   134   67   69 am   BACKBONE|DICT|INTERRES
   135   69   70 1    
   136   69  190 1    
   137   70   71 1    
   138   70   72 1    
   139   70  191 1    
   140   71  192 1    
   141   71  193 1    
   142   71  194 1    
   143   72   73 2    
   144   72   74 am   BACKBONE|DICT|INTERRES
   145   74   75 1    
   146   74  195 1    
   147   75   76 1    
   148   75   77 1    
   149   75  196 1    
   150   76  197 1    
   151   76  198 1    
   152   76  199 1    
   153   77   78 2    
   154   77   79 am   BACKBONE|DICT|INTERRES
   155   79   80 1    
   156   79  200 1    
   157   80   81 1    
   158   80   82 1    
   159   80  201 1    
   160   81  202 1    
   161   81  203 1    
   162   81  204 1    
   163   82   83 2    
   164   82   84 am   BACKBONE|DICT|INTERRES
   165   84   85 1    
   166   84  205 1    
   167   85   86 1    
   168   85   87 1    
   169   85  206 1    
   170   86  207 1    
   171   86  208 1    
   172   86  209 1    
   173   87   88 2    
   174   87   89 am   BACKBONE|DICT|INTERRES
   175   89   90 1    
   176   89  210 1    
   177   90   91 1    
   178   90   92 1    
   179   90  211 1    
   180   91  212 1    
   181   91  213 1    
   182   91  214 1    
   183   92   93 2    
   184   92   94 am   BACKBONE|DICT|INTERRES
   185   94   95 1    
   186   94  215 1    
   187   95   96 1    
   188   95   97 1    
   189   95  216 1    
   190   96  217 1    
   191   96  218 1    
   192   96  219 1    
   193   97   98 2    
   194   97   99 am   BACKBONE|DICT|INTERRES
   195   99  100 1    
   196   99  220 1    
   197  100  101 1    
   198  100  102 1    
   199  100  221 1    
   200  101  222 1    
   201  101  223 1    
   202  101  224 1    
   203  102  103 2    
   204  102  104 am   BACKBONE|DICT|INTERRES
   205  104  105 1    
   206  104  225 1    
   207  105  106 1    
   208  105  107 1    
   209  105  226 1    
   210  106  227 1    
   211  106  228 1    
   212  106  229 1    
   213  107  108 2    
   214  107  109 am   BACKBONE|DICT|INTERRES
   215  109  110 1    
   216  109  230 1    
   217  110  111 1    
   218  110  112 1    
   219  110  231 1    
   220  111  232 1    
   221  111  233 1    
   222  111  234 1    
   223  112  113 2    
   224  112  114 am   BACKBONE|DICT|INTERRES
   225  114  115 1    
   226  114  235 1    
   227  115  116 1    
   228  115  117 1    
   229  115  236 1    
   230  116  237 1    
   231  116  238 1    
   232  116  239 1    
   233  117  118 2    
   234  117  119 am   BACKBONE|DICT|INTERRES
   235  119  120 1    
   236  119  240 1    
   237  120  121 1    
   238  120  124 1    
   239  120  241 1    
   240  121  122 am   BACKBONE|DICT|INTERRES
   241  121  123 2    
   242  122  242 1    
   243  122  243 1    
   244  124  125 1    
   245  124  244 1    
   246  124  245 1    
   247  125  126 1    
   248  126  246 1    
   249  126  247 1    
@<TRIPOS>SUBSTRUCTURE
     1 UNK         1 GROUP             0       ****    0 ROOT    
