@<TRIPOS>MOLECULE
3R540
247   249    1
SMALL
USER_CHARGES


@<TRIPOS>ATOM
      1 CA         -4.8203  -16.2257  -42.0909 C.3       0 UNK        -0.1800 
      2 C          -5.4959  -15.5999  -43.3025 C.2       0 UNK         0.5000 
      3 O          -5.6688  -14.3822  -43.3465 O.2       0 UNK        -0.5000 
      4 N          -5.8823  -16.4277  -44.2812 N.am      1 UNK        -0.5000 
      5 CA         -6.5303  -16.0042  -45.5295 C.3       1 UNK         0.1400 
      6 C6         -7.3802  -17.1422  -46.1501 C.3       23 UNK        -0.0398 
      7 S7         -6.4507  -18.6786  -46.5101 S.3       23 UNK        -0.2404 
      8 C8         -7.4122  -19.8985  -45.5636 C.3       23 UNK        -0.0205 
      9 C9         -6.9862  -21.3153  -45.9099 C.ar      23 UNK        -0.0193 
     10 C10        -7.5221  -21.9460  -47.0365 C.ar      23 UNK        -0.1150 
     11 C11        -7.1230  -23.2398  -47.3899 C.ar      23 UNK        -0.0193 
     12 C12        -6.2152  -23.9139  -46.5689 C.ar      23 UNK        -0.1150 
     13 C13        -5.6816  -23.3032  -45.4313 C.ar      23 UNK        -0.0193 
     14 C14        -6.0645  -21.9975  -45.1104 C.ar      23 UNK        -0.1150 
     15 C15        -4.7218  -24.0761  -44.5378 C.3       23 UNK        -0.0205 
     16 S16        -3.0472  -24.1871  -45.2447 S.3       23 UNK        -0.2404 
     17 C17        -2.3777  -22.5194  -44.8907 C.3       23 UNK        -0.0398 
     18 CA         -1.5701  -21.7972  -46.0161 C.3       11 UNK         0.1400 
     19 N          -0.1279  -21.7553  -45.7704 N.am      11 UNK        -0.5000 
     20 C           0.7150  -22.7802  -45.5861 C.2       10 UNK         0.5000 
     21 O           0.3930  -23.9675  -45.6010 O.2       10 UNK        -0.5000 
     22 CA          2.1713  -22.3904  -45.2709 C.3       10 UNK         0.1400 
     23 CB          2.9184  -21.9338  -46.5356 C.3       10 UNK        -0.1800 
     24 N           2.2190  -21.3364  -44.2549 N.am      10 UNK        -0.5000 
     25 C           1.9764  -21.5449  -42.9519 C.2       9 UNK         0.5000 
     26 O           1.8552  -22.6629  -42.4496 O.2       9 UNK        -0.5000 
     27 CA          1.8083  -20.2991  -42.0605 C.3       9 UNK         0.1400 
     28 CB          3.1661  -19.8288  -41.5175 C.3       9 UNK        -0.1800 
     29 N           1.1421  -19.1917  -42.7479 N.am      9 UNK        -0.5000 
     30 C          -0.1304  -19.2077  -43.1706 C.2       8 UNK         0.5000 
     31 O          -0.9105  -20.1357  -42.9598 O.2       8 UNK        -0.5000 
     32 CA         -0.6115  -17.9984  -43.9939 C.3       8 UNK         0.1400 
     33 CB         -1.2473  -16.9411  -43.0802 C.3       8 UNK        -0.1800 
     34 N           0.4464  -17.3796  -44.7952 N.am      8 UNK        -0.5000 
     35 C           1.0799  -17.9709  -45.8177 C.2       7 UNK         0.5000 
     36 O           0.8342  -19.1152  -46.1973 O.2       7 UNK        -0.5000 
     37 CA          2.2130  -17.1715  -46.4856 C.3       7 UNK         0.1400 
     38 CB          1.6702  -16.1040  -47.4472 C.3       7 UNK        -0.1800 
     39 N           3.0648  -16.5274  -45.4905 N.am      7 UNK        -0.5000 
     40 C           3.9140  -17.1759  -44.6833 C.2       6 UNK         0.5000 
     41 O           4.1292  -18.3864  -44.7449 O.2       6 UNK        -0.5000 
     42 CA          4.6077  -16.3265  -43.6017 C.3       6 UNK         0.1400 
     43 CB          5.9056  -15.7125  -44.1469 C.3       6 UNK        -0.1800 
     44 N           3.7455  -15.2580  -43.0874 N.am      6 UNK        -0.5000 
     45 C           2.6453  -15.4661  -42.3497 C.2       5 UNK         0.5000 
     46 O           2.2606  -16.5809  -42.0012 O.2       5 UNK        -0.5000 
     47 CA          1.8103  -14.2257  -41.9813 C.3       5 UNK         0.1400 
     48 CB          2.3721  -13.5503  -40.7215 C.3       5 UNK        -0.1800 
     49 N           1.7269  -13.2435  -43.0662 N.am      5 UNK        -0.5000 
     50 C           1.1388  -13.4665  -44.2484 C.2       4 UNK         0.5000 
     51 O           0.6146  -14.5377  -44.5617 O.2       4 UNK        -0.5000 
     52 CA          1.1930  -12.3202  -45.2646 C.3       4 UNK         0.1400 
     53 CB          2.5753  -12.2589  -45.9394 C.3       4 UNK        -0.1800 
     54 N           0.1646  -12.5170  -46.2828 N.am      4 UNK        -0.5000 
     55 C          -0.4358  -11.5362  -46.9669 C.2       3 UNK         0.5000 
     56 O          -0.1882  -10.3420  -46.7913 O.2       3 UNK        -0.5000 
     57 CA         -1.4673  -11.9292  -48.0463 C.3       3 UNK         0.1400 
     58 CB         -0.8908  -11.6718  -49.4485 C.3       3 UNK        -0.1800 
     59 N          -1.9284  -13.3187  -47.9904 N.am      3 UNK        -0.5000 
     60 C          -2.7554  -13.8255  -47.0682 C.2       2 UNK         0.5000 
     61 O          -3.1643  -13.1919  -46.0928 O.2       2 UNK        -0.5000 
     62 CA         -3.1643  -15.2962  -47.2863 C.3       2 UNK         0.1400 
     63 CB         -1.9668  -16.2294  -47.0728 C.3       2 UNK        -0.1800 
     64 N          -4.2431  -15.7226  -46.3993 N.am      2 UNK        -0.5000 
     65 C          -5.5371  -15.4162  -46.5584 C.2       1 UNK         0.5000 
     66 O          -5.9644  -14.7203  -47.4815 O.2       1 UNK        -0.5000 
     67 C          -1.9011  -22.2113  -47.4662 C.2       11 UNK         0.5000 
     68 O          -1.0771  -22.8045  -48.1678 O.2       11 UNK        -0.5000 
     69 N          -3.1098  -21.8530  -47.9145 N.am      12 UNK        -0.5000 
     70 CA         -3.5451  -21.9711  -49.3071 C.3       12 UNK         0.1400 
     71 CB         -4.7504  -21.0506  -49.5297 C.3       12 UNK        -0.1800 
     72 C          -3.7818  -23.4134  -49.8050 C.2       12 UNK         0.5000 
     73 O          -3.9226  -23.6107  -51.0130 O.2       12 UNK        -0.5000 
     74 N          -3.7411  -24.4099  -48.9075 N.am      13 UNK        -0.5000 
     75 CA         -3.6320  -25.8276  -49.2745 C.3       13 UNK         0.1400 
     76 CB         -3.9593  -26.7172  -48.0656 C.3       13 UNK        -0.1800 
     77 C          -2.2414  -26.1874  -49.8396 C.2       13 UNK         0.5000 
     78 O          -2.1387  -27.1092  -50.6488 O.2       13 UNK        -0.5000 
     79 N          -1.2080  -25.4386  -49.4302 N.am      14 UNK        -0.5000 
     80 CA          0.1671  -25.5261  -49.9261 C.3       14 UNK         0.1400 
     81 CB          1.1211  -25.5739  -48.7203 C.3       14 UNK        -0.1800 
     82 C           0.4913  -24.3378  -50.8561 C.2       14 UNK         0.5000 
     83 O           1.6622  -23.9982  -51.0319 O.2       14 UNK        -0.5000 
     84 N          -0.5559  -23.7051  -51.4082 N.am      15 UNK        -0.5000 
     85 CA         -0.5442  -22.5288  -52.2837 C.3       15 UNK         0.1400 
     86 CB          0.1818  -22.8308  -53.6110 C.3       15 UNK        -0.1800 
     87 C          -0.0325  -21.2337  -51.6205 C.2       15 UNK         0.5000 
     88 O           0.2253  -20.2646  -52.3341 O.2       15 UNK        -0.5000 
     89 N           0.0929  -21.2238  -50.2838 N.am      16 UNK        -0.5000 
     90 CA          0.4714  -20.0970  -49.4251 C.3       16 UNK         0.1400 
     91 CB         -0.7144  -19.1225  -49.2812 C.3       16 UNK        -0.1800 
     92 C           1.7621  -19.3868  -49.8771 C.2       16 UNK         0.5000 
     93 O           1.7914  -18.1608  -49.9598 O.2       16 UNK        -0.5000 
     94 N           2.7871  -20.1701  -50.2441 N.am      17 UNK        -0.5000 
     95 CA          4.0572  -19.7022  -50.8200 C.3       17 UNK         0.1400 
     96 CB          4.8859  -18.9475  -49.7581 C.3       17 UNK        -0.1800 
     97 C           3.8731  -18.8946  -52.1304 C.2       17 UNK         0.5000 
     98 O           4.6369  -17.9665  -52.3996 O.2       17 UNK        -0.5000 
     99 N           2.8496  -19.2767  -52.9082 N.am      18 UNK        -0.5000 
    100 CA         2.3680  -18.6954  -54.1641 C.3       18 UNK         0.1400 
    101 CB         3.4923  -18.5626  -55.2137 C.3       18 UNK        -0.1800 
    102 C          1.5412  -17.4025  -53.9927 C.2       18 UNK         0.5000 
    103 O          1.3002  -16.7181  -54.9891 O.2       18 UNK        -0.5000 
    104 N          1.0920  -17.0847  -52.7674 N.am      19 UNK        -0.5000 
    105 CA         0.2340  -15.9263  -52.4979 C.3       19 UNK         0.1400 
    106 CB         0.2678  -15.5725  -51.0028 C.3       19 UNK        -0.1800 
    107 C         -1.2187  -16.1304  -52.9710 C.2       19 UNK         0.5000 
    108 O         -1.7998  -15.2043  -53.5384 O.2       19 UNK        -0.5000 
    109 N         -1.7774  -17.3248  -52.7359 N.am      20 UNK        -0.5000 
    110 CA        -3.1513  -17.7090  -53.0636 C.3       20 UNK         0.1400 
    111 CB        -4.1625  -16.9345  -52.1942 C.3       20 UNK        -0.1800 
    112 C         -3.2993  -19.2141  -52.8157 C.2       20 UNK         0.5000 
    113 O         -2.7685  -19.7044  -51.8203 O.2       20 UNK        -0.5000 
    114 N         -4.0205  -19.9189  -53.6936 N.am      21 UNK        -0.5000 
    115 CA        -4.2149  -21.3655  -53.6128 C.3       21 UNK         0.1400 
    116 CB        -3.4921  -22.0344  -54.7934 C.3       21 UNK        -0.1800 
    117 C         -5.7075  -21.7176  -53.6261 C.2       21 UNK         0.5000 
    118 O         -6.4846  -21.0583  -54.3209 O.2       21 UNK        -0.5000 
    119 N         -6.0654  -22.7744  -52.8876 N.am      22 UNK        -0.5000 
    120 CA        -7.4235  -23.3485  -52.8404 C.3       22 UNK         0.1400 
    121 C         -7.7477  -24.3140  -54.0190 C.2       22 UNK         0.5000 
    122 N         -6.7964  -24.6754  -54.8718 N.am      22 UNK        -0.7600 
    123 O         -8.8909  -24.7362  -54.1706 O.2       22 UNK        -0.5000 
    124 C124       -7.7187  -24.0255  -51.4757 C.3       23 UNK        -0.0398 
    125 S125       -7.6574  -22.8312  -50.1025 S.3       23 UNK        -0.2404 
    126 C126       -7.6654  -23.9244  -48.6429 C.3       23 UNK        -0.0205 
    127 H127       -3.8703  -15.7293  -41.8931 H         1 UNK         0.0600 
    128 H128       -4.6260  -17.2884  -42.2383 H         1 UNK         0.0600 
    129 H129       -5.4528  -16.1137  -41.2103 H         1 UNK         0.0600 
    130 H130       -5.7243  -17.4214  -44.1915 H         1 UNK         0.3000 
    131 H131       -7.2219  -15.1946  -45.2858 H         1 UNK         0.0600 
    132 H132       -7.8540  -16.8053  -47.0739 H         1 UNK         0.0800 
    133 H133       -8.2052  -17.3709  -45.4743 H         1 UNK         0.0800 
    134 H134       -8.4744  -19.7773  -45.7823 H         1 UNK         0.0800 
    135 H135       -7.2914  -19.7110  -44.4956 H         1 UNK         0.0800 
    136 H136       -8.2328  -21.4156  -47.6544 H         1 UNK         0.1150 
    137 H137       -5.9224  -24.9230  -46.8097 H         1 UNK         0.1150 
    138 H138       -5.6578  -21.5165  -44.2320 H         1 UNK         0.1150 
    139 H139       -4.6718  -23.6319  -43.5423 H         1 UNK         0.0800 
    140 H140       -5.1056  -25.0875  -44.3959 H         1 UNK         0.0800 
    141 H141       -1.7818  -22.5888  -43.9795 H         1 UNK         0.0800 
    142 H142       -3.2134  -21.8767  -44.6146 H         1 UNK         0.0800 
    143 H143       -1.8468  -20.7428  -45.9606 H         1 UNK         0.0600 
    144 H144        0.2735  -20.8210  -45.7924 H         1 UNK         0.3000 
    145 H145        2.6799  -23.2764  -44.8846 H         1 UNK         0.0600 
    146 H146        3.9743  -21.7635  -46.3255 H         1 UNK         0.0600 
    147 H147        2.8597  -22.6911  -47.3185 H         1 UNK         0.0600 
    148 H148        2.5108  -21.0093  -46.9423 H         1 UNK         0.0600 
    149 H149        2.3081  -20.3848  -44.5846 H         1 UNK         0.3000 
    150 H150        1.1855  -20.5842  -41.2100 H         1 UNK         0.0600 
    151 H151        3.6677  -20.6306  -40.9744 H         1 UNK         0.0600 
    152 H152        3.0471  -18.9942  -40.8265 H         1 UNK         0.0600 
    153 H153        3.8324  -19.5089  -42.3183 H         1 UNK         0.0600 
    154 H154        1.6808  -18.3418  -42.8730 H         1 UNK         0.3000 
    155 H155       -1.3799  -18.3579  -44.6814 H         1 UNK         0.0600 
    156 H156       -0.5187  -16.5214  -42.3870 H         1 UNK         0.0600 
    157 H157       -2.0505  -17.3761  -42.4851 H         1 UNK         0.0600 
    158 H158       -1.6737  -16.1194  -43.6556 H         1 UNK         0.0600 
    159 H159        0.6711  -16.4126  -44.5756 H         1 UNK         0.3000 
    160 H160        2.8186  -17.8722  -47.0649 H         1 UNK         0.0600 
    161 H161        2.4798  -15.6205  -47.9939 H         1 UNK         0.0600 
    162 H162        1.1048  -15.3299  -46.9333 H         1 UNK         0.0600 
    163 H163        1.0069  -16.5466  -48.1859 H         1 UNK         0.0600 
    164 H164        2.9232  -15.5400  -45.3436 H         1 UNK         0.3000 
    165 H165        4.8636  -16.9892  -42.7720 H         1 UNK         0.0600 
    166 H166        6.4416  -15.1685  -43.3689 H         1 UNK         0.0600 
    167 H167        6.5763  -16.4873  -44.5209 H         1 UNK         0.0600 
    168 H168        5.7119  -15.0213  -44.9682 H         1 UNK         0.0600 
    169 H169        3.9965  -14.3101  -43.3262 H         1 UNK         0.3000 
    170 H170        0.7964  -14.5643  -41.7596 H         1 UNK         0.0600 
    171 H171        2.4273  -14.2567  -39.8919 H         1 UNK         0.0600 
    172 H172        3.3766  -13.1584  -40.8863 H         1 UNK         0.0600 
    173 H173        1.7373  -12.7241  -40.4006 H         1 UNK         0.0600 
    174 H174        2.1427  -12.3406  -42.8873 H         1 UNK         0.3000 
    175 H175        1.0051  -11.3881  -44.7274 H         1 UNK         0.0600 
    176 H176        2.7938  -13.1738  -46.4916 H         1 UNK         0.0600 
    177 H177        2.6347  -11.4260  -46.6402 H         1 UNK         0.0600 
    178 H178        3.3695  -12.1183  -45.2055 H         1 UNK         0.0600 
    179 H179       -0.1341  -13.4741  -46.4098 H         1 UNK         0.3000 
    180 H180       -2.3351  -11.2802  -47.9114 H         1 UNK         0.0600 
    181 H181       -0.0178  -12.2957  -49.6445 H         1 UNK         0.0600 
    182 H182       -0.5814  -10.6318  -49.5610 H         1 UNK         0.0600 
    183 H183       -1.6299  -11.8730  -50.2243 H         1 UNK         0.0600 
    184 H184       -1.6282  -13.9107  -48.7503 H         1 UNK         0.3000 
    185 H185       -3.5072  -15.4064  -48.3177 H         1 UNK         0.0600 
    186 H186       -1.2190  -16.0758  -47.8488 H         1 UNK         0.0600 
    187 H187       -1.4914  -16.0436  -46.1110 H         1 UNK         0.0600 
    188 H188       -2.2607  -17.2786  -47.1115 H         1 UNK         0.0600 
    189 H189       -3.9805  -16.2614  -45.5889 H         1 UNK         0.3000 
    190 H190       -3.7602  -21.4026  -47.2867 H         1 UNK         0.3000 
    191 H191       -2.7391  -21.5853  -49.9326 H         1 UNK         0.0600 
    192 H192       -5.1492  -21.1510  -50.5389 H         1 UNK         0.0600 
    193 H193       -4.4690  -20.0051  -49.4018 H         1 UNK         0.0600 
    194 H194       -5.5531  -21.2626  -48.8274 H         1 UNK         0.0600 
    195 H195       -3.6231  -24.1755  -47.9318 H         1 UNK         0.3000 
    196 H196       -4.3653  -26.0408  -50.0553 H         1 UNK         0.0600 
    197 H197       -3.7686  -27.7676  -48.2901 H         1 UNK         0.0600 
    198 H198       -5.0104  -26.6447  -47.7936 H         1 UNK         0.0600 
    199 H199       -3.3576  -26.4573  -47.1947 H         1 UNK         0.0600 
    200 H200       -1.3775  -24.6709  -48.7871 H         1 UNK         0.3000 
    201 H201        0.3064  -26.4392  -50.5076 H         1 UNK         0.0600 
    202 H202        0.8580  -26.3829  -48.0388 H         1 UNK         0.0600 
    203 H203        1.0974  -24.6409  -48.1567 H         1 UNK         0.0600 
    204 H204        2.1510  -25.7396  -49.0383 H         1 UNK         0.0600 
    205 H205       -1.4741  -24.0670  -51.1907 H         1 UNK         0.3000 
    206 H206       -1.5884  -22.3355  -52.5209 H         1 UNK         0.0600 
    207 H207       -0.2174  -23.7286  -54.0828 H         1 UNK         0.0600 
    208 H208        0.0588  -22.0125  -54.3214 H         1 UNK         0.0600 
    209 H209        1.2527  -22.9740  -53.4656 H         1 UNK         0.0600 
    210 H210       -0.1622  -22.0660  -49.7787 H         1 UNK         0.3000 
    211 H211        0.6778  -20.5196  -48.4426 H         1 UNK         0.0600 
    212 H212       -1.6183  -19.6304  -48.9516 H         1 UNK         0.0600 
    213 H213       -0.9402  -18.6251  -50.2231 H         1 UNK         0.0600 
    214 H214       -0.4955  -18.3508  -48.5457 H         1 UNK         0.0600 
    215 H215        2.6645  -21.1724  -50.1933 H         1 UNK         0.3000 
    216 H216        4.6149  -20.5982  -51.0956 H         1 UNK         0.0600 
    217 H217        5.8880  -18.7275  -50.1277 H         1 UNK         0.0600 
    218 H218        4.9985  -19.5409  -48.8507 H         1 UNK         0.0600 
    219 H219        4.4248  -17.9987  -49.4819 H         1 UNK         0.0600 
    220 H220        2.2271  -19.9853  -52.5360 H         1 UNK         0.3000 
    221 H221        1.6624  -19.4289  -54.5567 H         1 UNK         0.0600 
    222 H222        4.1873  -17.7599  -54.9668 H         1 UNK         0.0600 
    223 H223        4.0615  -19.4877  -55.3040 H         1 UNK         0.0600 
    224 H224        3.0809  -18.3400  -56.1988 H         1 UNK         0.0600 
    225 H225        1.3348  -17.6720  -51.9772 H         1 UNK         0.3000 
    226 H226        0.6415  -15.0712  -53.0417 H         1 UNK         0.0600 
    227 H227       -0.2877  -14.6545  -50.8092 H         1 UNK         0.0600 
    228 H228       -0.1769  -16.3569  -50.3915 H         1 UNK         0.0600 
    229 H229        1.2892  -15.4146  -50.6559 H         1 UNK         0.0600 
    230 H230       -1.2330  -18.0592  -52.2975 H         1 UNK         0.3000 
    231 H231       -3.3340  -17.4992  -54.1193 H         1 UNK         0.0600 
    232 H232       -4.1372  -15.8646  -52.3990 H         1 UNK         0.0600 
    233 H233       -3.9653  -17.0765  -51.1306 H         1 UNK         0.0600 
    234 H234       -5.1816  -17.2723  -52.3863 H         1 UNK         0.0600 
    235 H235       -4.5090  -19.4513  -54.4449 H         1 UNK         0.3000 
    236 H236       -3.7911  -21.7504  -52.6875 H         1 UNK         0.0600 
    237 H237       -2.4367  -21.7639  -54.8149 H         1 UNK         0.0600 
    238 H238       -3.5478  -23.1211  -54.7212 H         1 UNK         0.0600 
    239 H239       -3.9281  -21.7430  -55.7499 H         1 UNK         0.0600 
    240 H240       -5.3634  -23.2385  -52.3184 H         1 UNK         0.3000 
    241 H241       -8.1342  -22.5264  -52.9463 H         1 UNK         0.0600 
    242 H242       -5.8541  -24.3388  -54.7627 H         1 UNK         0.3800 
    243 H243       -7.0229  -25.2962  -55.6331 H         1 UNK         0.3800 
    244 H244       -8.7099  -24.4826  -51.4699 H         1 UNK         0.0800 
    245 H245       -7.0027  -24.8278  -51.2898 H         1 UNK         0.0800 
    246 H246       -7.0715  -24.8122  -48.8659 H         1 UNK         0.0800 
    247 H247       -8.6836  -24.2662  -48.4540 H         1 UNK         0.0800 
@<TRIPOS>BOND
     1    1    2 1    
     2    1  127 1    
     3    1  128 1    
     4    1  129 1    
     5    2    3 2    
     6    2    4 am   BACKBONE|DICT|INTERRES
     7    4    5 1    
     8    4  130 1    
     9    5    6 1    
    10    5   65 1    
    11    5  131 1    
    12    6    7 1    
    13    6  132 1    
    14    6  133 1    
    15    7    8 1    
    16    8    9 1    
    17    8  134 1    
    18    8  135 1    
    19    9   10 ar   
    20    9   14 ar   
    21   10   11 ar   
    22   10  136 1    
    23   11   12 ar   
    24   11  126 1    
    25   12   13 ar   
    26   12  137 1    
    27   13   14 ar   
    28   13   15 1    
    29   14  138 1    
    30   15   16 1    
    31   15  139 1    
    32   15  140 1    
    33   16   17 1    
    34   17   18 1    
    35   17  141 1    
    36   17  142 1    
    37   18   19 1    
    38   18   67 1    
    39   18  143 1    
    40   19   20 am   BACKBONE|DICT|INTERRES
    41   19  144 1    
    42   20   21 2    
    43   20   22 1    
    44   22   23 1    
    45   22   24 1    
    46   22  145 1    
    47   23  146 1    
    48   23  147 1    
    49   23  148 1    
    50   24   25 am   BACKBONE|DICT|INTERRES
    51   24  149 1    
    52   25   26 2    
    53   25   27 1    
    54   27   28 1    
    55   27   29 1    
    56   27  150 1    
    57   28  151 1    
    58   28  152 1    
    59   28  153 1    
    60   29   30 am   BACKBONE|DICT|INTERRES
    61   29  154 1    
    62   30   31 2    
    63   30   32 1    
    64   32   33 1    
    65   32   34 1    
    66   32  155 1    
    67   33  156 1    
    68   33  157 1    
    69   33  158 1    
    70   34   35 am   BACKBONE|DICT|INTERRES
    71   34  159 1    
    72   35   36 2    
    73   35   37 1    
    74   37   38 1    
    75   37   39 1    
    76   37  160 1    
    77   38  161 1    
    78   38  162 1    
    79   38  163 1    
    80   39   40 am   BACKBONE|DICT|INTERRES
    81   39  164 1    
    82   40   41 2    
    83   40   42 1    
    84   42   43 1    
    85   42   44 1    
    86   42  165 1    
    87   43  166 1    
    88   43  167 1    
    89   43  168 1    
    90   44   45 am   BACKBONE|DICT|INTERRES
    91   44  169 1    
    92   45   46 2    
    93   45   47 1    
    94   47   48 1    
    95   47   49 1    
    96   47  170 1    
    97   48  171 1    
    98   48  172 1    
    99   48  173 1    
   100   49   50 am   BACKBONE|DICT|INTERRES
   101   49  174 1    
   102   50   51 2    
   103   50   52 1    
   104   52   53 1    
   105   52   54 1    
   106   52  175 1    
   107   53  176 1    
   108   53  177 1    
   109   53  178 1    
   110   54   55 am   BACKBONE|DICT|INTERRES
   111   54  179 1    
   112   55   56 2    
   113   55   57 1    
   114   57   58 1    
   115   57   59 1    
   116   57  180 1    
   117   58  181 1    
   118   58  182 1    
   119   58  183 1    
   120   59   60 am   BACKBONE|DICT|INTERRES
   121   59  184 1    
   122   60   61 2    
   123   60   62 1    
   124   62   63 1    
   125   62   64 1    
   126   62  185 1    
   127   63  186 1    
   128   63  187 1    
   129   63  188 1    
   130   64   65 am   BACKBONE|DICT|INTERRES
   131   64  189 1    
   132   65   66 2    
   133   67   68 2    
   134   67   69 am   BACKBONE|DICT|INTERRES
   135   69   70 1    
   136   69  190 1    
   137   70   71 1    
   138   70   72 1    
   139   70  191 1    
   140   71  192 1    
   141   71  193 1    
   142   71  194 1    
   143   72   73 2    
   144   72   74 am   BACKBONE|DICT|INTERRES
   145   74   75 1    
   146   74  195 1    
   147   75   76 1    
   148   75   77 1    
   149   75  196 1    
   150   76  197 1    
   151   76  198 1    
   152   76  199 1    
   153   77   78 2    
   154   77   79 am   BACKBONE|DICT|INTERRES
   155   79   80 1    
   156   79  200 1    
   157   80   81 1    
   158   80   82 1    
   159   80  201 1    
   160   81  202 1    
   161   81  203 1    
   162   81  204 1    
   163   82   83 2    
   164   82   84 am   BACKBONE|DICT|INTERRES
   165   84   85 1    
   166   84  205 1    
   167   85   86 1    
   168   85   87 1    
   169   85  206 1    
   170   86  207 1    
   171   86  208 1    
   172   86  209 1    
   173   87   88 2    
   174   87   89 am   BACKBONE|DICT|INTERRES
   175   89   90 1    
   176   89  210 1    
   177   90   91 1    
   178   90   92 1    
   179   90  211 1    
   180   91  212 1    
   181   91  213 1    
   182   91  214 1    
   183   92   93 2    
   184   92   94 am   BACKBONE|DICT|INTERRES
   185   94   95 1    
   186   94  215 1    
   187   95   96 1    
   188   95   97 1    
   189   95  216 1    
   190   96  217 1    
   191   96  218 1    
   192   96  219 1    
   193   97   98 2    
   194   97   99 am   BACKBONE|DICT|INTERRES
   195   99  100 1    
   196   99  220 1    
   197  100  101 1    
   198  100  102 1    
   199  100  221 1    
   200  101  222 1    
   201  101  223 1    
   202  101  224 1    
   203  102  103 2    
   204  102  104 am   BACKBONE|DICT|INTERRES
   205  104  105 1    
   206  104  225 1    
   207  105  106 1    
   208  105  107 1    
   209  105  226 1    
   210  106  227 1    
   211  106  228 1    
   212  106  229 1    
   213  107  108 2    
   214  107  109 am   BACKBONE|DICT|INTERRES
   215  109  110 1    
   216  109  230 1    
   217  110  111 1    
   218  110  112 1    
   219  110  231 1    
   220  111  232 1    
   221  111  233 1    
   222  111  234 1    
   223  112  113 2    
   224  112  114 am   BACKBONE|DICT|INTERRES
   225  114  115 1    
   226  114  235 1    
   227  115  116 1    
   228  115  117 1    
   229  115  236 1    
   230  116  237 1    
   231  116  238 1    
   232  116  239 1    
   233  117  118 2    
   234  117  119 am   BACKBONE|DICT|INTERRES
   235  119  120 1    
   236  119  240 1    
   237  120  121 1    
   238  120  124 1    
   239  120  241 1    
   240  121  122 am   BACKBONE|DICT|INTERRES
   241  121  123 2    
   242  122  242 1    
   243  122  243 1    
   244  124  125 1    
   245  124  244 1    
   246  124  245 1    
   247  125  126 1    
   248  126  246 1    
   249  126  247 1    
@<TRIPOS>SUBSTRUCTURE
     1 UNK         1 GROUP             0       ****    0 ROOT    
