@<TRIPOS>MOLECULE
3R540
247   249    1
SMALL
USER_CHARGES


@<TRIPOS>ATOM
      1 CA          4.1893  -12.6217  -48.4157 C.3       0 UNK        -0.1800 
      2 C           2.9978  -13.0471  -47.5708 C.2       0 UNK         0.5000 
      3 O           3.0777  -13.0123  -46.3409 O.2       0 UNK        -0.5000 
      4 N           1.8929  -13.4451  -48.2201 N.am      1 UNK        -0.5000 
      5 CA          0.6457  -13.8407  -47.5583 C.3       1 UNK         0.1400 
      6 C6         -0.3782  -14.4781  -48.5307 C.3       23 UNK        -0.0398 
      7 S7         -1.4805  -15.6444  -47.6548 S.3       23 UNK        -0.2404 
      8 C8         -2.1479  -16.6525  -49.0223 C.3       23 UNK        -0.0205 
      9 C9         -1.1828  -17.6381  -49.6867 C.ar      23 UNK        -0.0193 
     10 C10        -1.6253  -18.3040  -50.8334 C.ar      23 UNK        -0.1150 
     11 C11        -0.7896  -19.1855  -51.5237 C.ar      23 UNK        -0.0193 
     12 C12         0.5028  -19.4156  -51.0493 C.ar      23 UNK        -0.1150 
     13 C13         0.9587  -18.7759  -49.8939 C.ar      23 UNK        -0.0193 
     14 C14         0.1110  -17.8973  -49.2112 C.ar      23 UNK        -0.1150 
     15 C15         2.3839  -19.0072  -49.4146 C.3       23 UNK        -0.0205 
     16 S16         2.6017  -20.6477  -48.6587 S.3       23 UNK        -0.2404 
     17 C17         1.8260  -20.4031  -47.0283 C.3       23 UNK        -0.0398 
     18 CA          0.9800  -21.6190  -46.5819 C.3       11 UNK         0.1400 
     19 N           0.8656  -21.6835  -45.1236 N.am      11 UNK        -0.5000 
     20 C           0.3358  -22.7005  -44.4315 C.2       10 UNK         0.5000 
     21 O          -0.1050  -23.7253  -44.9494 O.2       10 UNK        -0.5000 
     22 CA          0.2491  -22.5250  -42.9055 C.3       10 UNK         0.1400 
     23 CB          1.5912  -22.8540  -42.2346 C.3       10 UNK        -0.1800 
     24 N          -0.1689  -21.1745  -42.5314 N.am      10 UNK        -0.5000 
     25 C          -1.3967  -20.6803  -42.7430 C.2       9 UNK         0.5000 
     26 O          -2.3190  -21.3249  -43.2430 O.2       9 UNK        -0.5000 
     27 CA         -1.6109  -19.1993  -42.3797 C.3       9 UNK         0.1400 
     28 CB         -1.7967  -19.0302  -40.8644 C.3       9 UNK        -0.1800 
     29 N          -0.5162  -18.3401  -42.8328 N.am      9 UNK        -0.5000 
     30 C          -0.1494  -18.1932  -44.1138 C.2       8 UNK         0.5000 
     31 O          -0.7088  -18.7450  -45.0580 O.2       8 UNK        -0.5000 
     32 CA          1.0755  -17.3124  -44.3903 C.3       8 UNK         0.1400 
     33 CB          0.6696  -15.8361  -44.3664 C.3       8 UNK        -0.1800 
     34 N           2.1701  -17.5252  -43.4487 N.am      8 UNK        -0.5000 
     35 C           2.7909  -18.6864  -43.2045 C.2       7 UNK         0.5000 
     36 O           2.4920  -19.7525  -43.7411 O.2       7 UNK        -0.5000 
     37 CA          3.9171  -18.6463  -42.1611 C.3       7 UNK         0.1400 
     38 CB          5.2220  -18.1349  -42.7905 C.3       7 UNK        -0.1800 
     39 N           3.5533  -17.7921  -41.0318 N.am      7 UNK        -0.5000 
     40 C           2.7861  -18.1858  -40.0074 C.2       6 UNK         0.5000 
     41 O           2.3585  -19.3331  -39.8737 O.2       6 UNK        -0.5000 
     42 CA          2.4203  -17.1126  -38.9640 C.3       6 UNK         0.1400 
     43 CB          3.5180  -17.0030  -37.8950 C.3       6 UNK        -0.1800 
     44 N           2.1792  -15.7892  -39.5448 N.am      6 UNK        -0.5000 
     45 C           1.1553  -15.4958  -40.3576 C.2       5 UNK         0.5000 
     46 O           0.3223  -16.3211  -40.7355 O.2       5 UNK        -0.5000 
     47 CA          1.0568  -14.0388  -40.8531 C.3       5 UNK         0.1400 
     48 CB          0.4708  -13.1421  -39.7519 C.3       5 UNK        -0.1800 
     49 N           2.2956  -13.4293  -41.3568 N.am      5 UNK        -0.5000 
     50 C           3.2231  -13.9838  -42.1519 C.2       4 UNK         0.5000 
     51 O           3.2630  -15.1809  -42.4320 O.2       4 UNK        -0.5000 
     52 CA          4.2435  -13.0183  -42.7804 C.3       4 UNK         0.1400 
     53 CB          5.2691  -13.7405  -43.6735 C.3       4 UNK        -0.1800 
     54 N           3.5306  -12.0299  -43.5882 N.am      4 UNK        -0.5000 
     55 C           3.1746  -10.8089  -43.1700 C.2       3 UNK         0.5000 
     56 O           3.4673  -10.3527  -42.0641 O.2       3 UNK        -0.5000 
     57 CA          2.2943   -9.9851  -44.1261 C.3       3 UNK         0.1400 
     58 CB          3.1067   -9.4685  -45.3240 C.3       3 UNK        -0.1800 
     59 N           1.1438  -10.7498  -44.6075 N.am      3 UNK        -0.5000 
     60 C           0.1190  -11.1661  -43.8515 C.2       2 UNK         0.5000 
     61 O           0.0122  -10.9040  -42.6536 O.2       2 UNK        -0.5000 
     62 CA         -0.9623  -12.0420  -44.5192 C.3       2 UNK         0.1400 
     63 CB         -2.1398  -11.1898  -45.0296 C.3       2 UNK        -0.1800 
     64 N          -0.4549  -12.9510  -45.5566 N.am      2 UNK        -0.5000 
     65 C           0.0397  -12.6600  -46.7669 C.2       1 UNK         0.5000 
     66 O           0.0805  -11.5221  -47.2404 O.2       1 UNK        -0.5000 
     67 C          -0.4001  -21.6576  -47.2721 C.2       11 UNK         0.5000 
     68 O          -0.5989  -22.4545  -48.1884 O.2       11 UNK        -0.5000 
     69 N          -1.3464  -20.8488  -46.7760 N.am      12 UNK        -0.5000 
     70 CA         -2.7342  -20.8061  -47.2326 C.3       12 UNK         0.1400 
     71 CB         -3.4613  -19.6405  -46.5464 C.3       12 UNK        -0.1800 
     72 C          -3.4803  -22.1299  -46.9880 C.2       12 UNK         0.5000 
     73 O          -4.2120  -22.5818  -47.8693 O.2       12 UNK        -0.5000 
     74 N          -3.2590  -22.7449  -45.8165 N.am      13 UNK        -0.5000 
     75 CA         -3.8152  -24.0497  -45.4531 C.3       13 UNK         0.1400 
     76 CB         -3.5594  -24.3265  -43.9642 C.3       13 UNK        -0.1800 
     77 C          -3.2720  -25.1980  -46.3240 C.2       13 UNK         0.5000 
     78 O          -4.0338  -26.0980  -46.6774 O.2       13 UNK        -0.5000 
     79 N          -1.9780  -25.1396  -46.6681 N.am      14 UNK        -0.5000 
     80 CA         -1.3202  -26.0763  -47.5784 C.3       14 UNK         0.1400 
     81 CB          0.2041  -25.9166  -47.4685 C.3       14 UNK        -0.1800 
     82 C          -1.7864  -25.9054  -49.0360 C.2       14 UNK         0.5000 
     83 O          -1.9855  -26.9056  -49.7265 O.2       14 UNK        -0.5000 
     84 N          -1.9563  -24.6491  -49.4726 N.am      15 UNK        -0.5000 
     85 CA         -2.4518  -24.2825  -50.7989 C.3       15 UNK         0.1400 
     86 CB         -2.2815  -22.7703  -51.0096 C.3       15 UNK        -0.1800 
     87 C          -3.9148  -24.7019  -51.0228 C.2       15 UNK         0.5000 
     88 O          -4.2227  -25.3029  -52.0544 O.2       15 UNK        -0.5000 
     89 N          -4.7735  -24.3917  -50.0398 N.am      16 UNK        -0.5000 
     90 CA         -6.1981  -24.7231  -49.9685 C.3       16 UNK         0.1400 
     91 CB         -6.3612  -26.2229  -49.6328 C.3       16 UNK        -0.1800 
     92 C          -6.9802  -24.2751  -51.2254 C.2       16 UNK         0.5000 
     93 O          -6.7204  -23.1921  -51.7546 O.2       16 UNK        -0.5000 
     94 N          -7.9171  -25.1132  -51.6864 N.am      17 UNK        -0.5000 
     95 CA         -8.6527  -24.9281  -52.9371 C.3       17 UNK         0.1400 
     96 CB         -9.9509  -25.7475  -52.8735 C.3       17 UNK        -0.1800 
     97 C          -7.8271  -25.3305  -54.1764 C.2       17 UNK         0.5000 
     98 O          -8.1313  -24.8713  -55.2775 O.2       17 UNK        -0.5000 
     99 N          -6.8171  -26.1926  -53.9851 N.am      18 UNK        -0.5000 
    100 CA        -5.9867  -26.7643  -55.0463 C.3       18 UNK         0.1400 
    101 CB        -5.1556  -27.9222  -54.4720 C.3       18 UNK        -0.1800 
    102 C         -5.0784  -25.7282  -55.7299 C.2       18 UNK         0.5000 
    103 O         -4.9538  -25.7466  -56.9550 O.2       18 UNK        -0.5000 
    104 N         -4.4833  -24.8367  -54.9299 N.am      19 UNK        -0.5000 
    105 CA        -3.6141  -23.7505  -55.3780 C.3       19 UNK         0.1400 
    106 CB        -2.1985  -23.9632  -54.8143 C.3       19 UNK        -0.1800 
    107 C         -4.2217  -22.3899  -54.9964 C.2       19 UNK         0.5000 
    108 O         -3.5096  -21.4930  -54.5486 O.2       19 UNK        -0.5000 
    109 N         -5.5359  -22.2417  -55.2109 N.am      20 UNK        -0.5000 
    110 CA        -6.3055  -21.0196  -54.9462 C.3       20 UNK         0.1400 
    111 CB        -7.8015  -21.3692  -54.9688 C.3       20 UNK        -0.1800 
    112 C         -6.0057  -19.8474  -55.9096 C.2       20 UNK         0.5000 
    113 O         -6.5577  -18.7621  -55.7281 O.2       20 UNK        -0.5000 
    114 N         -5.1554  -20.0788  -56.9192 N.am      21 UNK        -0.5000 
    115 CA        -4.7454  -19.1154  -57.9431 C.3       21 UNK         0.1400 
    116 CB        -4.0172  -19.8782  -59.0616 C.3       21 UNK        -0.1800 
    117 C         -3.8711  -17.9517  -57.4268 C.2       21 UNK         0.5000 
    118 O         -3.7087  -16.9688  -58.1520 O.2       21 UNK        -0.5000 
    119 N         -3.3130  -18.0774  -56.2142 N.am      22 UNK        -0.5000 
    120 CA        -2.5193  -17.0425  -55.5291 C.3       22 UNK         0.1400 
    121 C         -3.2908  -15.7053  -55.3321 C.2       22 UNK         0.5000 
    122 N         -2.6503  -14.5692  -55.5727 N.am      22 UNK        -0.7600 
    123 O         -4.4470  -15.6887  -54.9163 O.2       22 UNK        -0.5000 
    124 C124       -1.9957  -17.5391  -54.1593 C.3       23 UNK        -0.0398 
    125 S125       -0.8701  -18.9678  -54.2946 S.3       23 UNK        -0.2404 
    126 C126       -1.2821  -19.8898  -52.7792 C.3       23 UNK        -0.0205 
    127 H127        4.4429  -11.5824  -48.2072 H         1 UNK         0.0600 
    128 H128        3.9849  -12.7160  -49.4824 H         1 UNK         0.0600 
    129 H129        5.0554  -13.2393  -48.1783 H         1 UNK         0.0600 
    130 H130        1.8735  -13.4178  -49.2292 H         1 UNK         0.3000 
    131 H131        0.9490  -14.6101  -46.8488 H         1 UNK         0.0600 
    132 H132       -0.9734  -13.7228  -49.0473 H         1 UNK         0.0800 
    133 H133        0.1448  -15.0330  -49.3103 H         1 UNK         0.0800 
    134 H134       -2.5465  -15.9768  -49.7807 H         1 UNK         0.0800 
    135 H135       -2.9996  -17.2160  -48.6404 H         1 UNK         0.0800 
    136 H136       -2.6266  -18.1239  -51.1976 H         1 UNK         0.1150 
    137 H137        1.1575  -20.0914  -51.5814 H         1 UNK         0.1150 
    138 H138        0.4759  -17.4077  -48.3209 H         1 UNK         0.1150 
    139 H139        3.0610  -18.9235  -50.2660 H         1 UNK         0.0800 
    140 H140        2.6908  -18.2340  -48.7084 H         1 UNK         0.0800 
    141 H141        1.2359  -19.4859  -47.0110 H         1 UNK         0.0800 
    142 H142        2.6460  -20.2409  -46.3282 H         1 UNK         0.0800 
    143 H143        1.5113  -22.5264  -46.8779 H         1 UNK         0.0600 
    144 H144        1.2498  -20.8983  -44.6047 H         1 UNK         0.3000 
    145 H145       -0.4974  -23.2283  -42.5306 H         1 UNK         0.0600 
    146 H146        1.5160  -22.7862  -41.1492 H         1 UNK         0.0600 
    147 H147        1.9079  -23.8694  -42.4762 H         1 UNK         0.0600 
    148 H148        2.3837  -22.1783  -42.5572 H         1 UNK         0.0600 
    149 H149        0.5432  -20.5629  -42.1584 H         1 UNK         0.3000 
    150 H150       -2.5240  -18.8653  -42.8768 H         1 UNK         0.0600 
    151 H151       -2.6044  -19.6634  -40.4951 H         1 UNK         0.0600 
    152 H152       -2.0499  -18.0001  -40.6125 H         1 UNK         0.0600 
    153 H153       -0.8916  -19.2939  -40.3154 H         1 UNK         0.0600 
    154 H154       -0.0272  -17.8078  -42.1202 H         1 UNK         0.3000 
    155 H155        1.4453  -17.5533  -45.3887 H         1 UNK         0.0600 
    156 H156        1.5010  -15.1901  -44.6496 H         1 UNK         0.0600 
    157 H157       -0.1548  -15.6610  -45.0546 H         1 UNK         0.0600 
    158 H158        0.3296  -15.5343  -43.3782 H         1 UNK         0.0600 
    159 H159        2.5200  -16.6921  -42.9784 H         1 UNK         0.3000 
    160 H160        4.0875  -19.6651  -41.8062 H         1 UNK         0.0600 
    161 H161        5.1192  -17.1168  -43.1681 H         1 UNK         0.0600 
    162 H162        5.5238  -18.7661  -43.6273 H         1 UNK         0.0600 
    163 H163        6.0369  -18.1424  -42.0667 H         1 UNK         0.0600 
    164 H164        3.7857  -16.8102  -41.1149 H         1 UNK         0.3000 
    165 H165        1.4995  -17.4345  -38.4727 H         1 UNK         0.0600 
    166 H166        3.2296  -16.3120  -37.1027 H         1 UNK         0.0600 
    167 H167        3.7061  -17.9707  -37.4279 H         1 UNK         0.0600 
    168 H168        4.4604  -16.6543  -38.3193 H         1 UNK         0.0600 
    169 H169        2.8293  -15.0558  -39.3029 H         1 UNK         0.3000 
    170 H170        0.3503  -14.0287  -41.6834 H         1 UNK         0.0600 
    171 H171       -0.4642  -13.5521  -39.3673 H         1 UNK         0.0600 
    172 H172        1.1560  -13.0384  -38.9098 H         1 UNK         0.0600 
    173 H173        0.2525  -12.1434  -40.1304 H         1 UNK         0.0600 
    174 H174        2.3731  -12.4330  -41.2031 H         1 UNK         0.3000 
    175 H175        4.7884  -12.5337  -41.9679 H         1 UNK         0.0600 
    176 H176        4.7866  -14.2693  -44.4968 H         1 UNK         0.0600 
    177 H177        5.9816  -13.0361  -44.1025 H         1 UNK         0.0600 
    178 H178        5.8393  -14.4730  -43.1010 H         1 UNK         0.0600 
    179 H179        3.2404  -12.3384  -44.5132 H         1 UNK         0.3000 
    180 H180        1.9181   -9.1210  -43.5743 H         1 UNK         0.0600 
    181 H181        3.4902  -10.2843  -45.9372 H         1 UNK         0.0600 
    182 H182        3.9615   -8.8791  -44.9900 H         1 UNK         0.0600 
    183 H183        2.4998   -8.8273  -45.9635 H         1 UNK         0.0600 
    184 H184        1.1278  -10.9896  -45.5923 H         1 UNK         0.3000 
    185 H185       -1.3526  -12.6927  -43.7350 H         1 UNK         0.0600 
    186 H186       -2.5945  -10.6303  -44.2113 H         1 UNK         0.0600 
    187 H187       -1.8268  -10.4643  -45.7806 H         1 UNK         0.0600 
    188 H188       -2.9180  -11.8144  -45.4683 H         1 UNK         0.0600 
    189 H189       -0.4298  -13.9198  -45.2737 H         1 UNK         0.3000 
    190 H190       -1.0974  -20.1913  -46.0384 H         1 UNK         0.3000 
    191 H191       -2.7234  -20.6164  -48.3078 H         1 UNK         0.0600 
    192 H192       -3.4980  -19.7714  -45.4641 H         1 UNK         0.0600 
    193 H193       -4.4875  -19.5533  -46.9051 H         1 UNK         0.0600 
    194 H194       -2.9623  -18.6927  -46.7469 H         1 UNK         0.0600 
    195 H195       -2.6729  -22.2911  -45.1249 H         1 UNK         0.3000 
    196 H196       -4.8955  -24.0045  -45.6061 H         1 UNK         0.0600 
    197 H197       -3.9802  -25.2880  -43.6674 H         1 UNK         0.0600 
    198 H198       -4.0201  -23.5631  -43.3370 H         1 UNK         0.0600 
    199 H199       -2.4939  -24.3494  -43.7353 H         1 UNK         0.0600 
    200 H200       -1.3984  -24.4056  -46.2723 H         1 UNK         0.3000 
    201 H201       -1.5755  -27.0904  -47.2639 H         1 UNK         0.0600 
    202 H202        0.5476  -26.1104  -46.4523 H         1 UNK         0.0600 
    203 H203        0.5261  -24.9117  -47.7429 H         1 UNK         0.0600 
    204 H204        0.7189  -26.6181  -48.1260 H         1 UNK         0.0600 
    205 H205       -1.6916  -23.8817  -48.8607 H         1 UNK         0.3000 
    206 H206       -1.8389  -24.8028  -51.5371 H         1 UNK         0.0600 
    207 H207       -1.2297  -22.4857  -50.9780 H         1 UNK         0.0600 
    208 H208       -2.6791  -22.4600  -51.9759 H         1 UNK         0.0600 
    209 H209       -2.8037  -22.1939  -50.2462 H         1 UNK         0.0600 
    210 H210       -4.4264  -23.8355  -49.2619 H         1 UNK         0.3000 
    211 H211       -6.6021  -24.1469  -49.1351 H         1 UNK         0.0600 
    212 H212       -6.0265  -26.8620  -50.4510 H         1 UNK         0.0600 
    213 H213       -7.3980  -26.4744  -49.4076 H         1 UNK         0.0600 
    214 H214       -5.7765  -26.4889  -48.7524 H         1 UNK         0.0600 
    215 H215       -8.0862  -25.9732  -51.1849 H         1 UNK         0.3000 
    216 H216       -8.9250  -23.8764  -53.0368 H         1 UNK         0.0600 
    217 H217      -10.5432  -25.6113  -53.7795 H         1 UNK         0.0600 
    218 H218      -10.5716  -25.4385  -52.0322 H         1 UNK         0.0600 
    219 H219       -9.7504  -26.8146  -52.7700 H         1 UNK         0.0600 
    220 H220       -6.6029  -26.4804  -53.0420 H         1 UNK         0.3000 
    221 H221       -6.6531  -27.1730  -55.8088 H         1 UNK         0.0600 
    222 H222       -4.4890  -27.5853  -53.6770 H         1 UNK         0.0600 
    223 H223       -5.7968  -28.7034  -54.0636 H         1 UNK         0.0600 
    224 H224       -4.5382  -28.3807  -55.2455 H         1 UNK         0.0600 
    225 H225       -4.6216  -24.9145  -53.9249 H         1 UNK         0.3000 
    226 H226       -3.5335  -23.7467  -56.4666 H         1 UNK         0.0600 
    227 H227       -1.7825  -24.9135  -55.1488 H         1 UNK         0.0600 
    228 H228       -1.5184  -23.1771  -55.1451 H         1 UNK         0.0600 
    229 H229       -2.1966  -23.9648  -53.7268 H         1 UNK         0.0600 
    230 H230       -6.0543  -23.0284  -55.5765 H         1 UNK         0.3000 
    231 H231       -6.0547  -20.6750  -53.9408 H         1 UNK         0.0600 
    232 H232       -8.0383  -22.1029  -54.2008 H         1 UNK         0.0600 
    233 H233       -8.1059  -21.7783  -55.9329 H         1 UNK         0.0600 
    234 H234       -8.4186  -20.4916  -54.7720 H         1 UNK         0.0600 
    235 H235       -4.7505  -21.0000  -56.9848 H         1 UNK         0.3000 
    236 H236       -5.6499  -18.6729  -58.3652 H         1 UNK         0.0600 
    237 H237       -3.7275  -19.2064  -59.8708 H         1 UNK         0.0600 
    238 H238       -3.1100  -20.3593  -58.6940 H         1 UNK         0.0600 
    239 H239       -4.6552  -20.6483  -59.4955 H         1 UNK         0.0600 
    240 H240       -3.4824  -18.9261  -55.6936 H         1 UNK         0.3000 
    241 H241       -1.6562  -16.8392  -56.1660 H         1 UNK         0.0600 
    242 H242       -1.6993  -14.5577  -55.9085 H         1 UNK         0.3800 
    243 H243       -3.1343  -13.6956  -55.4335 H         1 UNK         0.3800 
    244 H244       -2.8404  -17.7995  -53.5200 H         1 UNK         0.0800 
    245 H245       -1.4512  -16.7469  -53.6417 H         1 UNK         0.0800 
    246 H246       -0.8339  -20.8817  -52.8474 H         1 UNK         0.0800 
    247 H247       -2.3596  -20.0470  -52.7220 H         1 UNK         0.0800 
@<TRIPOS>BOND
     1    1    2 1    
     2    1  127 1    
     3    1  128 1    
     4    1  129 1    
     5    2    3 2    
     6    2    4 am   BACKBONE|DICT|INTERRES
     7    4    5 1    
     8    4  130 1    
     9    5    6 1    
    10    5   65 1    
    11    5  131 1    
    12    6    7 1    
    13    6  132 1    
    14    6  133 1    
    15    7    8 1    
    16    8    9 1    
    17    8  134 1    
    18    8  135 1    
    19    9   10 ar   
    20    9   14 ar   
    21   10   11 ar   
    22   10  136 1    
    23   11   12 ar   
    24   11  126 1    
    25   12   13 ar   
    26   12  137 1    
    27   13   14 ar   
    28   13   15 1    
    29   14  138 1    
    30   15   16 1    
    31   15  139 1    
    32   15  140 1    
    33   16   17 1    
    34   17   18 1    
    35   17  141 1    
    36   17  142 1    
    37   18   19 1    
    38   18   67 1    
    39   18  143 1    
    40   19   20 am   BACKBONE|DICT|INTERRES
    41   19  144 1    
    42   20   21 2    
    43   20   22 1    
    44   22   23 1    
    45   22   24 1    
    46   22  145 1    
    47   23  146 1    
    48   23  147 1    
    49   23  148 1    
    50   24   25 am   BACKBONE|DICT|INTERRES
    51   24  149 1    
    52   25   26 2    
    53   25   27 1    
    54   27   28 1    
    55   27   29 1    
    56   27  150 1    
    57   28  151 1    
    58   28  152 1    
    59   28  153 1    
    60   29   30 am   BACKBONE|DICT|INTERRES
    61   29  154 1    
    62   30   31 2    
    63   30   32 1    
    64   32   33 1    
    65   32   34 1    
    66   32  155 1    
    67   33  156 1    
    68   33  157 1    
    69   33  158 1    
    70   34   35 am   BACKBONE|DICT|INTERRES
    71   34  159 1    
    72   35   36 2    
    73   35   37 1    
    74   37   38 1    
    75   37   39 1    
    76   37  160 1    
    77   38  161 1    
    78   38  162 1    
    79   38  163 1    
    80   39   40 am   BACKBONE|DICT|INTERRES
    81   39  164 1    
    82   40   41 2    
    83   40   42 1    
    84   42   43 1    
    85   42   44 1    
    86   42  165 1    
    87   43  166 1    
    88   43  167 1    
    89   43  168 1    
    90   44   45 am   BACKBONE|DICT|INTERRES
    91   44  169 1    
    92   45   46 2    
    93   45   47 1    
    94   47   48 1    
    95   47   49 1    
    96   47  170 1    
    97   48  171 1    
    98   48  172 1    
    99   48  173 1    
   100   49   50 am   BACKBONE|DICT|INTERRES
   101   49  174 1    
   102   50   51 2    
   103   50   52 1    
   104   52   53 1    
   105   52   54 1    
   106   52  175 1    
   107   53  176 1    
   108   53  177 1    
   109   53  178 1    
   110   54   55 am   BACKBONE|DICT|INTERRES
   111   54  179 1    
   112   55   56 2    
   113   55   57 1    
   114   57   58 1    
   115   57   59 1    
   116   57  180 1    
   117   58  181 1    
   118   58  182 1    
   119   58  183 1    
   120   59   60 am   BACKBONE|DICT|INTERRES
   121   59  184 1    
   122   60   61 2    
   123   60   62 1    
   124   62   63 1    
   125   62   64 1    
   126   62  185 1    
   127   63  186 1    
   128   63  187 1    
   129   63  188 1    
   130   64   65 am   BACKBONE|DICT|INTERRES
   131   64  189 1    
   132   65   66 2    
   133   67   68 2    
   134   67   69 am   BACKBONE|DICT|INTERRES
   135   69   70 1    
   136   69  190 1    
   137   70   71 1    
   138   70   72 1    
   139   70  191 1    
   140   71  192 1    
   141   71  193 1    
   142   71  194 1    
   143   72   73 2    
   144   72   74 am   BACKBONE|DICT|INTERRES
   145   74   75 1    
   146   74  195 1    
   147   75   76 1    
   148   75   77 1    
   149   75  196 1    
   150   76  197 1    
   151   76  198 1    
   152   76  199 1    
   153   77   78 2    
   154   77   79 am   BACKBONE|DICT|INTERRES
   155   79   80 1    
   156   79  200 1    
   157   80   81 1    
   158   80   82 1    
   159   80  201 1    
   160   81  202 1    
   161   81  203 1    
   162   81  204 1    
   163   82   83 2    
   164   82   84 am   BACKBONE|DICT|INTERRES
   165   84   85 1    
   166   84  205 1    
   167   85   86 1    
   168   85   87 1    
   169   85  206 1    
   170   86  207 1    
   171   86  208 1    
   172   86  209 1    
   173   87   88 2    
   174   87   89 am   BACKBONE|DICT|INTERRES
   175   89   90 1    
   176   89  210 1    
   177   90   91 1    
   178   90   92 1    
   179   90  211 1    
   180   91  212 1    
   181   91  213 1    
   182   91  214 1    
   183   92   93 2    
   184   92   94 am   BACKBONE|DICT|INTERRES
   185   94   95 1    
   186   94  215 1    
   187   95   96 1    
   188   95   97 1    
   189   95  216 1    
   190   96  217 1    
   191   96  218 1    
   192   96  219 1    
   193   97   98 2    
   194   97   99 am   BACKBONE|DICT|INTERRES
   195   99  100 1    
   196   99  220 1    
   197  100  101 1    
   198  100  102 1    
   199  100  221 1    
   200  101  222 1    
   201  101  223 1    
   202  101  224 1    
   203  102  103 2    
   204  102  104 am   BACKBONE|DICT|INTERRES
   205  104  105 1    
   206  104  225 1    
   207  105  106 1    
   208  105  107 1    
   209  105  226 1    
   210  106  227 1    
   211  106  228 1    
   212  106  229 1    
   213  107  108 2    
   214  107  109 am   BACKBONE|DICT|INTERRES
   215  109  110 1    
   216  109  230 1    
   217  110  111 1    
   218  110  112 1    
   219  110  231 1    
   220  111  232 1    
   221  111  233 1    
   222  111  234 1    
   223  112  113 2    
   224  112  114 am   BACKBONE|DICT|INTERRES
   225  114  115 1    
   226  114  235 1    
   227  115  116 1    
   228  115  117 1    
   229  115  236 1    
   230  116  237 1    
   231  116  238 1    
   232  116  239 1    
   233  117  118 2    
   234  117  119 am   BACKBONE|DICT|INTERRES
   235  119  120 1    
   236  119  240 1    
   237  120  121 1    
   238  120  124 1    
   239  120  241 1    
   240  121  122 am   BACKBONE|DICT|INTERRES
   241  121  123 2    
   242  122  242 1    
   243  122  243 1    
   244  124  125 1    
   245  124  244 1    
   246  124  245 1    
   247  125  126 1    
   248  126  246 1    
   249  126  247 1    
@<TRIPOS>SUBSTRUCTURE
     1 UNK         1 GROUP             0       ****    0 ROOT    
