@<TRIPOS>MOLECULE
3R540
247   249    1
SMALL
USER_CHARGES


@<TRIPOS>ATOM
      1 CA          2.2900  -12.4896  -50.2780 C.3       0 UNK        -0.1800 
      2 C           1.2657  -11.4520  -49.8205 C.2       0 UNK         0.5000 
      3 O           1.1413  -10.4057  -50.4538 O.2       0 UNK        -0.5000 
      4 N           0.5128  -11.6875  -48.7369 N.am      1 UNK        -0.5000 
      5 CA          0.5697  -12.8770  -47.8758 C.3       1 UNK         0.1400 
      6 C6         -0.7856  -13.1648  -47.1851 C.3       23 UNK        -0.0398 
      7 S7         -2.1165  -13.5656  -48.3656 S.3       23 UNK        -0.2404 
      8 C8         -2.1274  -15.3867  -48.3020 C.3       23 UNK        -0.0205 
      9 C9         -0.9911  -15.9862  -49.1164 C.ar      23 UNK        -0.0193 
     10 C10        -1.1525  -16.1859  -50.4893 C.ar      23 UNK        -0.1150 
     11 C11        -0.1283  -16.7532  -51.2510 C.ar      23 UNK        -0.0193 
     12 C12         1.0820  -17.0863  -50.6352 C.ar      23 UNK        -0.1150 
     13 C13         1.2597  -16.8923  -49.2600 C.ar      23 UNK        -0.0193 
     14 C14         0.2116  -16.3538  -48.5054 C.ar      23 UNK        -0.1150 
     15 C15         2.5844  -17.2201  -48.5747 C.3       23 UNK        -0.0205 
     16 S16         3.3537  -18.7970  -49.0892 S.3       23 UNK        -0.2404 
     17 C17         1.9793  -19.9848  -48.9360 C.3       23 UNK        -0.0398 
     18 CA          2.4579  -21.4041  -48.5298 C.3       11 UNK         0.1400 
     19 N           2.7971  -21.4807  -47.1041 N.am      11 UNK        -0.5000 
     20 C           3.4861  -22.4734  -46.5247 C.2       10 UNK         0.5000 
     21 O           3.9671  -23.4233  -47.1432 O.2       10 UNK        -0.5000 
     22 CA          3.6306  -22.4132  -44.9910 C.3       10 UNK         0.1400 
     23 CB          4.7579  -21.4531  -44.5815 C.3       10 UNK        -0.1800 
     24 N           2.3875  -22.0266  -44.3182 N.am      10 UNK        -0.5000 
     25 C           1.2737  -22.7739  -44.2852 C.2       9 UNK         0.5000 
     26 O           1.1811  -23.8888  -44.7980 O.2       9 UNK        -0.5000 
     27 CA          0.0389  -22.1527  -43.6071 C.3       9 UNK         0.1400 
     28 CB          0.0860  -22.3387  -42.0833 C.3       9 UNK        -0.1800 
     29 N          -0.0970  -20.7333  -43.9288 N.am      9 UNK        -0.5000 
     30 C          -0.4527  -20.2742  -45.1361 C.2       8 UNK         0.5000 
     31 O          -0.7837  -21.0025  -46.0704 O.2       8 UNK        -0.5000 
     32 CA         -0.3863  -18.7540  -45.3567 C.3       8 UNK         0.1400 
     33 CB         -1.7429  -18.1039  -45.0544 C.3       8 UNK        -0.1800 
     34 N           0.6814  -18.1195  -44.5763 N.am      8 UNK        -0.5000 
     35 C           1.9821  -18.3353  -44.8292 C.2       7 UNK         0.5000 
     36 O           2.3733  -19.0885  -45.7175 O.2       7 UNK        -0.5000 
     37 CA          3.0296  -17.6498  -43.9402 C.3       7 UNK         0.1400 
     38 CB          3.3695  -16.2532  -44.4728 C.3       7 UNK        -0.1800 
     39 N           2.6486  -17.5625  -42.5341 N.am      7 UNK        -0.5000 
     40 C           2.4999  -18.6185  -41.7229 C.2       6 UNK         0.5000 
     41 O           2.5500  -19.7863  -42.1125 O.2       6 UNK        -0.5000 
     42 CA          2.2577  -18.3202  -40.2351 C.3       6 UNK         0.1400 
     43 CB          3.5810  -17.9683  -39.5378 C.3       6 UNK        -0.1800 
     44 N           1.3223  -17.2087  -40.0745 N.am      6 UNK        -0.5000 
     45 C           0.0823  -17.3196  -39.5812 C.2       5 UNK         0.5000 
     46 O          -0.3768  -18.3571  -39.1016 O.2       5 UNK        -0.5000 
     47 CA         -0.8136  -16.0644  -39.6495 C.3       5 UNK         0.1400 
     48 CB         -0.7417  -15.2825  -38.3290 C.3       5 UNK        -0.1800 
     49 N          -0.5013  -15.1559  -40.7569 N.am      5 UNK        -0.5000 
     50 C          -0.5114  -15.4846  -42.0561 C.2       4 UNK         0.5000 
     51 O          -0.7799  -16.6076  -42.4784 O.2       4 UNK        -0.5000 
     52 CA         -0.1005  -14.3938  -43.0587 C.3       4 UNK         0.1400 
     53 CB         -1.3274  -13.5703  -43.4757 C.3       4 UNK        -0.1800 
     54 N           0.9553  -13.4788  -42.6145 N.am      4 UNK        -0.5000 
     55 C           2.1330  -13.7876  -42.0541 C.2       3 UNK         0.5000 
     56 O           2.4275  -14.9109  -41.6379 O.2       3 UNK        -0.5000 
     57 CA          3.1705  -12.6461  -42.0136 C.3       3 UNK         0.1400 
     58 CB          4.4391  -13.0335  -41.2329 C.3       3 UNK        -0.1800 
     59 N           3.5570  -12.2452  -43.3699 N.am      3 UNK        -0.5000 
     60 C           2.8181  -11.5049  -44.2080 C.2       2 UNK         0.5000 
     61 O           1.7396  -10.9991  -43.8867 O.2       2 UNK        -0.5000 
     62 CA          3.3398  -11.3025  -45.6483 C.3       2 UNK         0.1400 
     63 CB          4.6475  -12.0636  -45.9680 C.3       2 UNK        -0.1800 
     64 N           2.3021  -11.6145  -46.6390 N.am      2 UNK        -0.5000 
     65 C           1.6916  -12.7972  -46.8191 C.2       1 UNK         0.5000 
     66 O           1.9759  -13.8153  -46.1914 O.2       1 UNK        -0.5000 
     67 C           1.3943  -22.4421  -48.9483 C.2       11 UNK         0.5000 
     68 O           1.2924  -22.7297  -50.1391 O.2       11 UNK        -0.5000 
     69 N           0.6009  -22.9404  -47.9865 N.am      12 UNK        -0.5000 
     70 CA         -0.6193  -23.7433  -48.1578 C.3       12 UNK         0.1400 
     71 CB         -0.3425  -25.0717  -48.8909 C.3       12 UNK        -0.1800 
     72 C          -1.7841  -22.9413  -48.7824 C.2       12 UNK         0.5000 
     73 O          -2.7574  -23.5236  -49.2605 O.2       12 UNK        -0.5000 
     74 N          -1.6901  -21.6079  -48.7080 N.am      13 UNK        -0.5000 
     75 CA         -2.7124  -20.6457  -49.1095 C.3       13 UNK         0.1400 
     76 CB         -2.0466  -19.2779  -49.2952 C.3       13 UNK        -0.1800 
     77 C          -3.8704  -20.5527  -48.0964 C.2       13 UNK         0.5000 
     78 O          -4.9160  -19.9943  -48.4225 O.2       13 UNK        -0.5000 
     79 N          -3.6746  -21.1190  -46.8967 N.am      14 UNK        -0.5000 
     80 CA         -4.6883  -21.2962  -45.8555 C.3       14 UNK         0.1400 
     81 CB         -3.9828  -21.7095  -44.5535 C.3       14 UNK        -0.1800 
     82 C          -5.7951  -22.3108  -46.2251 C.2       14 UNK         0.5000 
     83 O          -6.8146  -22.3621  -45.5351 O.2       14 UNK        -0.5000 
     84 N          -5.5854  -23.0979  -47.2918 N.am      15 UNK        -0.5000 
     85 CA         -6.5745  -23.9919  -47.8969 C.3       15 UNK         0.1400 
     86 CB         -5.8721  -24.8294  -48.9780 C.3       15 UNK        -0.1800 
     87 C          -7.7685  -23.2278  -48.5073 C.2       15 UNK         0.5000 
     88 O          -7.6750  -22.0218  -48.7504 O.2       15 UNK        -0.5000 
     89 N          -8.8635  -23.9531  -48.7754 N.am      16 UNK        -0.5000 
     90 CA        -10.0916  -23.4444  -49.3945 C.3       16 UNK         0.1400 
     91 CB        -11.0996  -24.5957  -49.5361 C.3       16 UNK        -0.1800 
     92 C          -9.8167  -22.7789  -50.7570 C.2       16 UNK         0.5000 
     93 O          -9.3757  -23.4574  -51.6872 O.2       16 UNK        -0.5000 
     94 N         -10.0111  -21.4529  -50.8160 N.am      17 UNK        -0.5000 
     95 CA         -9.7025  -20.5597  -51.9426 C.3       17 UNK         0.1400 
     96 CB        -10.6572  -20.8355  -53.1232 C.3       17 UNK        -0.1800 
     97 C          -8.2135  -20.5827  -52.3651 C.2       17 UNK         0.5000 
     98 O          -7.9052  -20.3254  -53.5292 O.2       17 UNK        -0.5000 
     99 N          -7.3253  -20.9206  -51.4158 N.am      18 UNK        -0.5000 
    100 CA        -5.8902  -21.1822  -51.5735 C.3       18 UNK         0.1400 
    101 CB        -5.1338  -19.9182  -52.0372 C.3       18 UNK        -0.1800 
    102 C         -5.5687  -22.4192  -52.4397 C.2       18 UNK         0.5000 
    103 O         -4.4243  -22.5662  -52.8723 O.2       18 UNK        -0.5000 
    104 N         -6.5654  -23.2928  -52.6689 N.am      19 UNK        -0.5000 
    105 CA        -6.5277  -24.4791  -53.5283 C.3       19 UNK         0.1400 
    106 CB        -5.7158  -25.6030  -52.8452 C.3       19 UNK        -0.1800 
    107 C         -6.0425  -24.1144  -54.9479 C.2       19 UNK         0.5000 
    108 O         -6.7621  -23.4298  -55.6769 O.2       19 UNK        -0.5000 
    109 N         -4.8174  -24.5271  -55.2843 N.am      20 UNK        -0.5000 
    110 CA        -4.0442  -24.0496  -56.4286 C.3       20 UNK         0.1400 
    111 CB        -4.1075  -25.0944  -57.5572 C.3       20 UNK        -0.1800 
    112 C         -2.5966  -23.7371  -55.9956 C.2       20 UNK         0.5000 
    113 O         -1.7003  -23.7052  -56.8405 O.2       20 UNK        -0.5000 
    114 N         -2.3773  -23.5268  -54.6871 N.am      21 UNK        -0.5000 
    115 CA        -1.0582  -23.3879  -54.0647 C.3       21 UNK         0.1400 
    116 CB        -1.2183  -23.4397  -52.5388 C.3       21 UNK        -0.1800 
    117 C         -0.3087  -22.1128  -54.4897 C.2       21 UNK         0.5000 
    118 O          0.9189  -22.1316  -54.5872 O.2       21 UNK        -0.5000 
    119 N         -1.0657  -21.0456  -54.7661 N.am      22 UNK        -0.5000 
    120 CA        -0.5625  -19.7701  -55.2995 C.3       22 UNK         0.1400 
    121 C         -0.3839  -19.7631  -56.8485 C.2       22 UNK         0.5000 
    122 N         -0.6617  -20.8455  -57.5680 N.am      22 UNK        -0.7600 
    123 O          0.0296  -18.7546  -57.4140 O.2       22 UNK        -0.5000 
    124 C124       -1.4230  -18.5731  -54.8182 C.3       23 UNK        -0.0398 
    125 S125       -1.4529  -18.4287  -52.9984 S.3       23 UNK        -0.2404 
    126 C126       -0.3404  -17.0113  -52.7346 C.3       23 UNK        -0.0205 
    127 H127        2.8702  -12.1087  -51.1187 H         1 UNK         0.0600 
    128 H128        1.7928  -13.4035  -50.6046 H         1 UNK         0.0600 
    129 H129        2.9893  -12.7347  -49.4789 H         1 UNK         0.0600 
    130 H130       -0.1773  -10.9987  -48.4729 H         1 UNK         0.3000 
    131 H131        0.8052  -13.7395  -48.4973 H         1 UNK         0.0600 
    132 H132       -0.6966  -13.9889  -46.4750 H         1 UNK         0.0800 
    133 H133       -1.1028  -12.2993  -46.6013 H         1 UNK         0.0800 
    134 H134       -2.0861  -15.7297  -47.2677 H         1 UNK         0.0800 
    135 H135       -3.0803  -15.7434  -48.6960 H         1 UNK         0.0800 
    136 H136       -2.0859  -15.9184  -50.9645 H         1 UNK         0.1150 
    137 H137        1.8840  -17.5061  -51.2255 H         1 UNK         0.1150 
    138 H138        0.3404  -16.1966  -47.4434 H         1 UNK         0.1150 
    139 H139        3.2858  -16.4109  -48.7805 H         1 UNK         0.0800 
    140 H140        2.4540  -17.2332  -47.4945 H         1 UNK         0.0800 
    141 H141        1.2424  -19.6108  -48.2237 H         1 UNK         0.0800 
    142 H142        1.4797  -19.9956  -49.9073 H         1 UNK         0.0800 
    143 H143        3.3577  -21.6412  -49.1016 H         1 UNK         0.0600 
    144 H144        2.5206  -20.6829  -46.5337 H         1 UNK         0.3000 
    145 H145        3.8986  -23.4131  -44.6434 H         1 UNK         0.0600 
    146 H146        4.8788  -21.4241  -43.4984 H         1 UNK         0.0600 
    147 H147        4.5688  -20.4364  -44.9246 H         1 UNK         0.0600 
    148 H148        5.7107  -21.7690  -45.0081 H         1 UNK         0.0600 
    149 H149        2.3840  -21.1300  -43.8467 H         1 UNK         0.3000 
    150 H150       -0.8448  -22.6744  -43.9810 H         1 UNK         0.0600 
    151 H151        0.9521  -21.8483  -41.6391 H         1 UNK         0.0600 
    152 H152       -0.8082  -21.9335  -41.6095 H         1 UNK         0.0600 
    153 H153        0.1408  -23.3965  -41.8233 H         1 UNK         0.0600 
    154 H154        0.1972  -20.0723  -43.2243 H         1 UNK         0.3000 
    155 H155       -0.1683  -18.5858  -46.4130 H         1 UNK         0.0600 
    156 H156       -2.5132  -18.4824  -45.7277 H         1 UNK         0.0600 
    157 H157       -1.7015  -17.0222  -45.1805 H         1 UNK         0.0600 
    158 H158       -2.0715  -18.3120  -44.0356 H         1 UNK         0.0600 
    159 H159        0.3969  -17.5359  -43.7961 H         1 UNK         0.3000 
    160 H160        3.9398  -18.2504  -43.9921 H         1 UNK         0.0600 
    161 H161        2.5067  -15.5925  -44.4199 H         1 UNK         0.0600 
    162 H162        3.6896  -16.2929  -45.5146 H         1 UNK         0.0600 
    163 H163        4.1768  -15.7955  -43.9011 H         1 UNK         0.0600 
    164 H164        2.5936  -16.6238  -42.1457 H         1 UNK         0.3000 
    165 H165        1.8653  -19.2309  -39.7780 H         1 UNK         0.0600 
    166 H166        3.4316  -17.8147  -38.4690 H         1 UNK         0.0600 
    167 H167        4.3096  -18.7720  -39.6526 H         1 UNK         0.0600 
    168 H168        4.0246  -17.0593  -39.9469 H         1 UNK         0.0600 
    169 H169        1.6054  -16.3176  -40.4688 H         1 UNK         0.3000 
    170 H170       -1.8407  -16.4076  -39.7892 H         1 UNK         0.0600 
    171 H171       -0.9948  -15.9213  -37.4817 H         1 UNK         0.0600 
    172 H172        0.2583  -14.8841  -38.1528 H         1 UNK         0.0600 
    173 H173       -1.4427  -14.4477  -38.3251 H         1 UNK         0.0600 
    174 H174       -0.2387  -14.2134  -40.5088 H         1 UNK         0.3000 
    175 H175        0.2791  -14.8998  -43.9480 H         1 UNK         0.0600 
    176 H176       -1.7706  -13.0525  -42.6242 H         1 UNK         0.0600 
    177 H177       -1.0654  -12.8185  -44.2193 H         1 UNK         0.0600 
    178 H178       -2.0976  -14.2079  -43.9122 H         1 UNK         0.0600 
    179 H179        0.8690  -12.5246  -42.9499 H         1 UNK         0.3000 
    180 H180        2.7094  -11.7962  -41.5060 H         1 UNK         0.0600 
    181 H181        4.1949  -13.3248  -40.2105 H         1 UNK         0.0600 
    182 H182        5.1360  -12.1974  -41.1737 H         1 UNK         0.0600 
    183 H183        4.9597  -13.8719  -41.6978 H         1 UNK         0.0600 
    184 H184        4.4102  -12.6515  -43.7247 H         1 UNK         0.3000 
    185 H185        3.5478  -10.2362  -45.7463 H         1 UNK         0.0600 
    186 H186        4.9630  -11.8771  -46.9946 H         1 UNK         0.0600 
    187 H187        5.4630  -11.7365  -45.3218 H         1 UNK         0.0600 
    188 H188        4.5393  -13.1425  -45.8497 H         1 UNK         0.0600 
    189 H189        1.9716  -10.8315  -47.1852 H         1 UNK         0.3000 
    190 H190        0.7772  -22.6355  -47.0384 H         1 UNK         0.3000 
    191 H191       -0.9444  -23.9942  -47.1471 H         1 UNK         0.0600 
    192 H192       -1.2110  -25.7294  -48.8428 H         1 UNK         0.0600 
    193 H193        0.4937  -25.6047  -48.4385 H         1 UNK         0.0600 
    194 H194       -0.1142  -24.9180  -49.9453 H         1 UNK         0.0600 
    195 H195       -0.9106  -21.2353  -48.1825 H         1 UNK         0.3000 
    196 H196       -3.1249  -20.9668  -50.0668 H         1 UNK         0.0600 
    197 H197       -1.6453  -18.8929  -48.3578 H         1 UNK         0.0600 
    198 H198       -1.2281  -19.3307  -50.0133 H         1 UNK         0.0600 
    199 H199       -2.7619  -18.5465  -49.6732 H         1 UNK         0.0600 
    200 H200       -2.7493  -21.4766  -46.6918 H         1 UNK         0.3000 
    201 H201       -5.1759  -20.3333  -45.6910 H         1 UNK         0.0600 
    202 H202       -4.7010  -21.8543  -43.7454 H         1 UNK         0.0600 
    203 H203       -3.2811  -20.9432  -44.2247 H         1 UNK         0.0600 
    204 H204       -3.4307  -22.6423  -44.6742 H         1 UNK         0.0600 
    205 H205       -4.7219  -22.9834  -47.8029 H         1 UNK         0.3000 
    206 H206       -6.9521  -24.6584  -47.1190 H         1 UNK         0.0600 
    207 H207       -5.0316  -25.3865  -48.5633 H         1 UNK         0.0600 
    208 H208       -6.5537  -25.5563  -49.4208 H         1 UNK         0.0600 
    209 H209       -5.4895  -24.2040  -49.7859 H         1 UNK         0.0600 
    210 H210       -8.8497  -24.9423  -48.5745 H         1 UNK         0.3000 
    211 H211      -10.5197  -22.7022  -48.7177 H         1 UNK         0.0600 
    212 H212      -10.7098  -25.3984  -50.1637 H         1 UNK         0.0600 
    213 H213      -12.0285  -24.2469  -49.9892 H         1 UNK         0.0600 
    214 H214      -11.3527  -25.0215  -48.5649 H         1 UNK         0.0600 
    215 H215      -10.3342  -20.9867  -49.9792 H         1 UNK         0.3000 
    216 H216       -9.8978  -19.5458  -51.5907 H         1 UNK         0.0600 
    217 H217      -11.6988  -20.8079  -52.8032 H         1 UNK         0.0600 
    218 H218      -10.4706  -21.8102  -53.5751 H         1 UNK         0.0600 
    219 H219      -10.5409  -20.0851  -53.9060 H         1 UNK         0.0600 
    220 H220       -7.6801  -21.1284  -50.4855 H         1 UNK         0.3000 
    221 H221       -5.5298  -21.4356  -50.5772 H         1 UNK         0.0600 
    222 H222       -4.0560  -20.0818  -52.0474 H         1 UNK         0.0600 
    223 H223       -5.4187  -19.6177  -53.0452 H         1 UNK         0.0600 
    224 H224       -5.3241  -19.0795  -51.3676 H         1 UNK         0.0600 
    225 H225       -7.4810  -23.0848  -52.2842 H         1 UNK         0.3000 
    226 H226       -7.5570  -24.8257  -53.6315 H         1 UNK         0.0600 
    227 H227       -6.1798  -25.8923  -51.9026 H         1 UNK         0.0600 
    228 H228       -5.6788  -26.4977  -53.4680 H         1 UNK         0.0600 
    229 H229       -4.6907  -25.3032  -52.6244 H         1 UNK         0.0600 
    230 H230       -4.3056  -25.0896  -54.6189 H         1 UNK         0.3000 
    231 H231       -4.4619  -23.1109  -56.7980 H         1 UNK         0.0600 
    232 H232       -3.5799  -24.7473  -58.4464 H         1 UNK         0.0600 
    233 H233       -5.1383  -25.2932  -57.8511 H         1 UNK         0.0600 
    234 H234       -3.6571  -26.0399  -57.2531 H         1 UNK         0.0600 
    235 H235       -3.1739  -23.4198  -54.0636 H         1 UNK         0.3000 
    236 H236       -0.4550  -24.2445  -54.3724 H         1 UNK         0.0600 
    237 H237       -1.7519  -24.3356  -52.2210 H         1 UNK         0.0600 
    238 H238       -0.2433  -23.4556  -52.0550 H         1 UNK         0.0600 
    239 H239       -1.7607  -22.5738  -52.1565 H         1 UNK         0.0600 
    240 H240       -2.0655  -21.1242  -54.6533 H         1 UNK         0.3000 
    241 H241        0.4418  -19.6133  -54.9012 H         1 UNK         0.0600 
    242 H242       -0.9695  -21.7056  -57.1325 H         1 UNK         0.3800 
    243 H243       -0.5315  -20.8166  -58.5670 H         1 UNK         0.3800 
    244 H244       -2.4502  -18.6799  -55.1701 H         1 UNK         0.0800 
    245 H245       -1.0568  -17.6353  -55.2395 H         1 UNK         0.0800 
    246 H246       -0.7644  -16.1216  -53.2025 H         1 UNK         0.0800 
    247 H247        0.6128  -17.2024  -53.2301 H         1 UNK         0.0800 
@<TRIPOS>BOND
     1    1    2 1    
     2    1  127 1    
     3    1  128 1    
     4    1  129 1    
     5    2    3 2    
     6    2    4 am   BACKBONE|DICT|INTERRES
     7    4    5 1    
     8    4  130 1    
     9    5    6 1    
    10    5   65 1    
    11    5  131 1    
    12    6    7 1    
    13    6  132 1    
    14    6  133 1    
    15    7    8 1    
    16    8    9 1    
    17    8  134 1    
    18    8  135 1    
    19    9   10 ar   
    20    9   14 ar   
    21   10   11 ar   
    22   10  136 1    
    23   11   12 ar   
    24   11  126 1    
    25   12   13 ar   
    26   12  137 1    
    27   13   14 ar   
    28   13   15 1    
    29   14  138 1    
    30   15   16 1    
    31   15  139 1    
    32   15  140 1    
    33   16   17 1    
    34   17   18 1    
    35   17  141 1    
    36   17  142 1    
    37   18   19 1    
    38   18   67 1    
    39   18  143 1    
    40   19   20 am   BACKBONE|DICT|INTERRES
    41   19  144 1    
    42   20   21 2    
    43   20   22 1    
    44   22   23 1    
    45   22   24 1    
    46   22  145 1    
    47   23  146 1    
    48   23  147 1    
    49   23  148 1    
    50   24   25 am   BACKBONE|DICT|INTERRES
    51   24  149 1    
    52   25   26 2    
    53   25   27 1    
    54   27   28 1    
    55   27   29 1    
    56   27  150 1    
    57   28  151 1    
    58   28  152 1    
    59   28  153 1    
    60   29   30 am   BACKBONE|DICT|INTERRES
    61   29  154 1    
    62   30   31 2    
    63   30   32 1    
    64   32   33 1    
    65   32   34 1    
    66   32  155 1    
    67   33  156 1    
    68   33  157 1    
    69   33  158 1    
    70   34   35 am   BACKBONE|DICT|INTERRES
    71   34  159 1    
    72   35   36 2    
    73   35   37 1    
    74   37   38 1    
    75   37   39 1    
    76   37  160 1    
    77   38  161 1    
    78   38  162 1    
    79   38  163 1    
    80   39   40 am   BACKBONE|DICT|INTERRES
    81   39  164 1    
    82   40   41 2    
    83   40   42 1    
    84   42   43 1    
    85   42   44 1    
    86   42  165 1    
    87   43  166 1    
    88   43  167 1    
    89   43  168 1    
    90   44   45 am   BACKBONE|DICT|INTERRES
    91   44  169 1    
    92   45   46 2    
    93   45   47 1    
    94   47   48 1    
    95   47   49 1    
    96   47  170 1    
    97   48  171 1    
    98   48  172 1    
    99   48  173 1    
   100   49   50 am   BACKBONE|DICT|INTERRES
   101   49  174 1    
   102   50   51 2    
   103   50   52 1    
   104   52   53 1    
   105   52   54 1    
   106   52  175 1    
   107   53  176 1    
   108   53  177 1    
   109   53  178 1    
   110   54   55 am   BACKBONE|DICT|INTERRES
   111   54  179 1    
   112   55   56 2    
   113   55   57 1    
   114   57   58 1    
   115   57   59 1    
   116   57  180 1    
   117   58  181 1    
   118   58  182 1    
   119   58  183 1    
   120   59   60 am   BACKBONE|DICT|INTERRES
   121   59  184 1    
   122   60   61 2    
   123   60   62 1    
   124   62   63 1    
   125   62   64 1    
   126   62  185 1    
   127   63  186 1    
   128   63  187 1    
   129   63  188 1    
   130   64   65 am   BACKBONE|DICT|INTERRES
   131   64  189 1    
   132   65   66 2    
   133   67   68 2    
   134   67   69 am   BACKBONE|DICT|INTERRES
   135   69   70 1    
   136   69  190 1    
   137   70   71 1    
   138   70   72 1    
   139   70  191 1    
   140   71  192 1    
   141   71  193 1    
   142   71  194 1    
   143   72   73 2    
   144   72   74 am   BACKBONE|DICT|INTERRES
   145   74   75 1    
   146   74  195 1    
   147   75   76 1    
   148   75   77 1    
   149   75  196 1    
   150   76  197 1    
   151   76  198 1    
   152   76  199 1    
   153   77   78 2    
   154   77   79 am   BACKBONE|DICT|INTERRES
   155   79   80 1    
   156   79  200 1    
   157   80   81 1    
   158   80   82 1    
   159   80  201 1    
   160   81  202 1    
   161   81  203 1    
   162   81  204 1    
   163   82   83 2    
   164   82   84 am   BACKBONE|DICT|INTERRES
   165   84   85 1    
   166   84  205 1    
   167   85   86 1    
   168   85   87 1    
   169   85  206 1    
   170   86  207 1    
   171   86  208 1    
   172   86  209 1    
   173   87   88 2    
   174   87   89 am   BACKBONE|DICT|INTERRES
   175   89   90 1    
   176   89  210 1    
   177   90   91 1    
   178   90   92 1    
   179   90  211 1    
   180   91  212 1    
   181   91  213 1    
   182   91  214 1    
   183   92   93 2    
   184   92   94 am   BACKBONE|DICT|INTERRES
   185   94   95 1    
   186   94  215 1    
   187   95   96 1    
   188   95   97 1    
   189   95  216 1    
   190   96  217 1    
   191   96  218 1    
   192   96  219 1    
   193   97   98 2    
   194   97   99 am   BACKBONE|DICT|INTERRES
   195   99  100 1    
   196   99  220 1    
   197  100  101 1    
   198  100  102 1    
   199  100  221 1    
   200  101  222 1    
   201  101  223 1    
   202  101  224 1    
   203  102  103 2    
   204  102  104 am   BACKBONE|DICT|INTERRES
   205  104  105 1    
   206  104  225 1    
   207  105  106 1    
   208  105  107 1    
   209  105  226 1    
   210  106  227 1    
   211  106  228 1    
   212  106  229 1    
   213  107  108 2    
   214  107  109 am   BACKBONE|DICT|INTERRES
   215  109  110 1    
   216  109  230 1    
   217  110  111 1    
   218  110  112 1    
   219  110  231 1    
   220  111  232 1    
   221  111  233 1    
   222  111  234 1    
   223  112  113 2    
   224  112  114 am   BACKBONE|DICT|INTERRES
   225  114  115 1    
   226  114  235 1    
   227  115  116 1    
   228  115  117 1    
   229  115  236 1    
   230  116  237 1    
   231  116  238 1    
   232  116  239 1    
   233  117  118 2    
   234  117  119 am   BACKBONE|DICT|INTERRES
   235  119  120 1    
   236  119  240 1    
   237  120  121 1    
   238  120  124 1    
   239  120  241 1    
   240  121  122 am   BACKBONE|DICT|INTERRES
   241  121  123 2    
   242  122  242 1    
   243  122  243 1    
   244  124  125 1    
   245  124  244 1    
   246  124  245 1    
   247  125  126 1    
   248  126  246 1    
   249  126  247 1    
@<TRIPOS>SUBSTRUCTURE
     1 UNK         1 GROUP             0       ****    0 ROOT    
