@<TRIPOS>MOLECULE
3R540
247   249    1
SMALL
USER_CHARGES


@<TRIPOS>ATOM
      1 CA         -0.4475  -11.6412  -42.9157 C.3       0 UNK        -0.1800 
      2 C          -0.0220  -12.5930  -44.0235 C.2       0 UNK         0.5000 
      3 O          -0.1796  -13.8036  -43.8779 O.2       0 UNK        -0.5000 
      4 N           0.5182  -12.0523  -45.1242 N.am      1 UNK        -0.5000 
      5 CA          0.9752  -12.7797  -46.3194 C.3       1 UNK         0.1400 
      6 C6         -0.1380  -13.5972  -47.0260 C.3       23 UNK        -0.0398 
      7 S7         -1.6030  -12.6449  -47.5528 S.3       23 UNK        -0.2404 
      8 C8         -2.7724  -13.9935  -47.9541 C.3       23 UNK        -0.0205 
      9 C9         -2.1458  -15.0438  -48.8628 C.ar      23 UNK        -0.0193 
     10 C10        -2.1189  -14.8681  -50.2481 C.ar      23 UNK        -0.1150 
     11 C11        -1.4547  -15.7892  -51.0644 C.ar      23 UNK        -0.0193 
     12 C12        -0.8132  -16.8888  -50.4845 C.ar      23 UNK        -0.1150 
     13 C13        -0.8365  -17.0808  -49.1000 C.ar      23 UNK        -0.0193 
     14 C14        -1.5295  -16.1649  -48.3018 C.ar      23 UNK        -0.1150 
     15 C15        -0.0286  -18.2217  -48.4848 C.3       23 UNK        -0.0205 
     16 S16        -0.7045  -18.8701  -46.9185 S.3       23 UNK        -0.2404 
     17 C17        -2.1347  -19.8176  -47.5204 C.3       23 UNK        -0.0398 
     18 CA         -2.2364  -21.1755  -46.7918 C.3       11 UNK         0.1400 
     19 N          -2.5523  -20.9954  -45.3707 N.am      11 UNK        -0.5000 
     20 C          -2.6054  -21.9499  -44.4311 C.2       10 UNK         0.5000 
     21 O          -2.3889  -23.1406  -44.6573 O.2       10 UNK        -0.5000 
     22 CA         -3.0401  -21.5140  -43.0212 C.3       10 UNK         0.1400 
     23 CB         -1.8183  -21.3809  -42.1009 C.3       10 UNK        -0.1800 
     24 N          -3.8166  -20.2675  -43.0252 N.am      10 UNK        -0.5000 
     25 C          -5.0473  -20.1616  -43.5544 C.2       9 UNK         0.5000 
     26 O          -5.6329  -21.1071  -44.0844 O.2       9 UNK        -0.5000 
     27 CA         -5.7490  -18.7908  -43.5107 C.3       9 UNK         0.1400 
     28 CB         -6.8306  -18.7799  -42.4194 C.3       9 UNK        -0.1800 
     29 N          -4.8536  -17.6553  -43.2935 N.am      9 UNK        -0.5000 
     30 C          -3.9796  -17.1695  -44.1851 C.2       8 UNK         0.5000 
     31 O          -3.7908  -17.6691  -45.2943 O.2       8 UNK        -0.5000 
     32 CA         -3.1854  -15.9095  -43.7681 C.3       8 UNK         0.1400 
     33 CB         -3.7244  -15.2244  -42.4936 C.3       8 UNK        -0.1800 
     34 N          -1.7441  -16.1207  -43.6109 N.am      8 UNK        -0.5000 
     35 C          -1.1099  -17.1551  -43.0462 C.2       7 UNK         0.5000 
     36 O          -1.6573  -18.1865  -42.6502 O.2       7 UNK        -0.5000 
     37 CA          0.3967  -16.9772  -42.8286 C.3       7 UNK         0.1400 
     38 CB          0.6747  -16.5273  -41.3808 C.3       7 UNK        -0.1800 
     39 N           1.0724  -18.2335  -43.1329 N.am      7 UNK        -0.5000 
     40 C           2.3901  -18.3685  -43.3159 C.2       6 UNK         0.5000 
     41 O           3.2003  -17.4633  -43.1019 O.2       6 UNK        -0.5000 
     42 CA          2.9172  -19.7294  -43.8295 C.3       6 UNK         0.1400 
     43 CB          1.8209  -20.6964  -44.3319 C.3       6 UNK        -0.1800 
     44 N           3.9545  -19.5399  -44.8526 N.am      6 UNK        -0.5000 
     45 C           3.8139  -18.8700  -46.0068 C.2       5 UNK         0.5000 
     46 O           2.7388  -18.4290  -46.4125 O.2       5 UNK        -0.5000 
     47 CA          5.1081  -18.6337  -46.8083 C.3       5 UNK         0.1400 
     48 CB          5.6165  -19.9257  -47.4811 C.3       5 UNK        -0.1800 
     49 N           4.9739  -17.5221  -47.7577 N.am      5 UNK        -0.5000 
     50 C           4.3130  -17.4802  -48.9270 C.2       4 UNK         0.5000 
     51 O           3.8221  -18.4649  -49.4809 O.2       4 UNK        -0.5000 
     52 CA          4.1746  -16.0992  -49.6061 C.3       4 UNK         0.1400 
     53 CB          2.7136  -15.8094  -49.9962 C.3       4 UNK        -0.1800 
     54 N           4.6609  -15.0049  -48.7610 N.am      4 UNK        -0.5000 
     55 C           5.9118  -14.5217  -48.7704 C.2       3 UNK         0.5000 
     56 O           6.7871  -14.9209  -49.5389 O.2       3 UNK        -0.5000 
     57 CA          6.2614  -13.4221  -47.7438 C.3       3 UNK         0.1400 
     58 CB          6.2560  -12.0407  -48.4164 C.3       3 UNK        -0.1800 
     59 N           5.3705  -13.3827  -46.5817 N.am      3 UNK        -0.5000 
     60 C           5.2604  -14.3439  -45.6538 C.2       2 UNK         0.5000 
     61 O           5.9443  -15.3682  -45.6516 O.2       2 UNK        -0.5000 
     62 CA          4.1663  -14.1515  -44.5814 C.3       2 UNK         0.1400 
     63 CB          4.7566  -13.5184  -43.3131 C.3       2 UNK        -0.1800 
     64 N           3.0089  -13.3587  -45.0203 N.am      2 UNK        -0.5000 
     65 C           2.2192  -13.6664  -46.0607 C.2       1 UNK         0.5000 
     66 O           2.4633  -14.6027  -46.8216 O.2       1 UNK        -0.5000 
     67 C          -3.1970  -22.1240  -47.5417 C.2       11 UNK         0.5000 
     68 O          -2.8642  -22.5610  -48.6439 O.2       11 UNK        -0.5000 
     69 N          -4.3434  -22.4589  -46.9339 N.am      12 UNK        -0.5000 
     70 CA         -5.2638  -23.5026  -47.3813 C.3       12 UNK         0.1400 
     71 CB         -6.5565  -23.4038  -46.5588 C.3       12 UNK        -0.1800 
     72 C          -4.6760  -24.9284  -47.2991 C.2       12 UNK         0.5000 
     73 O          -5.1998  -25.8187  -47.9686 O.2       12 UNK        -0.5000 
     74 N          -3.6081  -25.1263  -46.5116 N.am      13 UNK        -0.5000 
     75 CA         -2.9193  -26.4088  -46.3666 C.3       13 UNK         0.1400 
     76 CB         -3.4024  -27.1145  -45.0890 C.3       13 UNK        -0.1800 
     77 C          -1.3929  -26.2406  -46.3595 C.2       13 UNK         0.5000 
     78 O          -0.7038  -26.9420  -47.1004 O.2       13 UNK        -0.5000 
     79 N          -0.8830  -25.3081  -45.5434 N.am      14 UNK        -0.5000 
     80 CA          0.5465  -25.1173  -45.2752 C.3       14 UNK         0.1400 
     81 CB          0.7061  -24.1910  -44.0604 C.3       14 UNK        -0.1800 
     82 C           1.3490  -24.5780  -46.4736 C.2       14 UNK         0.5000 
     83 O           2.5537  -24.8199  -46.5496 O.2       14 UNK        -0.5000 
     84 N           0.6661  -23.8835  -47.3917 N.am      15 UNK        -0.5000 
     85 CA          1.2243  -23.3703  -48.6448 C.3       15 UNK         0.1400 
     86 CB          0.8534  -21.8852  -48.7888 C.3       15 UNK        -0.1800 
     87 C           0.7524  -24.2004  -49.8565 C.2       15 UNK         0.5000 
     88 O           0.8098  -23.7069  -50.9823 O.2       15 UNK        -0.5000 
     89 N           0.2861  -25.4365  -49.6116 N.am      16 UNK        -0.5000 
     90 CA         -0.2127  -26.4046  -50.5954 C.3       16 UNK         0.1400 
     91 CB          0.9200  -26.8703  -51.5350 C.3       16 UNK        -0.1800 
     92 C          -1.4632  -25.9019  -51.3470 C.2       16 UNK         0.5000 
     93 O          -1.5486  -26.0288  -52.5697 O.2       16 UNK        -0.5000 
     94 N          -2.4119  -25.3441  -50.5803 N.am      17 UNK        -0.5000 
     95 CA         -3.7059  -24.8124  -51.0213 C.3       17 UNK         0.1400 
     96 CB         -4.6004  -25.9231  -51.6108 C.3       17 UNK        -0.1800 
     97 C          -3.5872  -23.5753  -51.9321 C.2       17 UNK         0.5000 
     98 O          -4.3955  -23.3994  -52.8448 O.2       17 UNK        -0.5000 
     99 N          -2.6111  -22.7055  -51.6360 N.am      18 UNK        -0.5000 
    100 CA        -2.4149  -21.4178  -52.3063 C.3       18 UNK         0.1400 
    101 CB        -1.1119  -20.7686  -51.8199 C.3       18 UNK        -0.1800 
    102 C         -3.5966  -20.4549  -52.0975 C.2       18 UNK         0.5000 
    103 O         -3.9307  -19.7032  -53.0115 O.2       18 UNK        -0.5000 
    104 N         -4.2495  -20.5340  -50.9270 N.am      19 UNK        -0.5000 
    105 CA        -5.4209  -19.7263  -50.5697 C.3       19 UNK         0.1400 
    106 CB        -5.8440  -20.0391  -49.1274 C.3       19 UNK        -0.1800 
    107 C         -6.6192  -19.9044  -51.5235 C.2       19 UNK         0.5000 
    108 O         -7.3761  -18.9546  -51.7228 O.2       19 UNK        -0.5000 
    109 N         -6.7515  -21.0958  -52.1248 N.am      20 UNK        -0.5000 
    110 CA        -7.7810  -21.4067  -53.1179 C.3       20 UNK         0.1400 
    111 CB        -7.8379  -22.9273  -53.3290 C.3       20 UNK        -0.1800 
    112 C         -7.5656  -20.6781  -54.4597 C.2       20 UNK         0.5000 
    113 O         -8.5410  -20.4238  -55.1674 O.2       20 UNK        -0.5000 
    114 N         -6.3070  -20.3482  -54.7803 N.am      21 UNK        -0.5000 
    115 CA        -5.9333  -19.5594  -55.9518 C.3       21 UNK         0.1400 
    116 CB        -4.5552  -20.0162  -56.4575 C.3       21 UNK        -0.1800 
    117 C         -5.9268  -18.0569  -55.6247 C.2       21 UNK         0.5000 
    118 O         -6.4382  -17.2626  -56.4154 O.2       21 UNK        -0.5000 
    119 N         -5.3455  -17.6965  -54.4733 N.am      22 UNK        -0.5000 
    120 CA        -5.2050  -16.3091  -54.0046 C.3       22 UNK         0.1400 
    121 C         -6.5334  -15.6454  -53.5434 C.2       22 UNK         0.5000 
    122 N         -7.5148  -16.3881  -53.0472 N.am      22 UNK        -0.7600 
    123 O         -6.6781  -14.4302  -53.6450 O.2       22 UNK        -0.5000 
    124 C124       -4.1247  -16.1812  -52.9027 C.3       23 UNK        -0.0398 
    125 S125       -2.4739  -16.7144  -53.4736 S.3       23 UNK        -0.2404 
    126 C126       -1.3862  -15.5718  -52.5688 C.3       23 UNK        -0.0205 
    127 H127       -0.2564  -10.6005  -43.1784 H         1 UNK         0.0600 
    128 H128        0.0963  -11.8676  -41.9987 H         1 UNK         0.0600 
    129 H129       -1.5135  -11.7525  -42.7174 H         1 UNK         0.0600 
    130 H130        0.6110  -11.0473  -45.1760 H         1 UNK         0.3000 
    131 H131        1.3086  -12.0144  -47.0216 H         1 UNK         0.0600 
    132 H132       -0.4639  -14.4148  -46.3830 H         1 UNK         0.0800 
    133 H133        0.2651  -14.0582  -47.9296 H         1 UNK         0.0800 
    134 H134       -3.1169  -14.4562  -47.0281 H         1 UNK         0.0800 
    135 H135       -3.6572  -13.5696  -48.4310 H         1 UNK         0.0800 
    136 H136       -2.5875  -13.9975  -50.6850 H         1 UNK         0.1150 
    137 H137       -0.2726  -17.5814  -51.1141 H         1 UNK         0.1150 
    138 H138       -1.5411  -16.2863  -47.2284 H         1 UNK         0.1150 
    139 H139        0.0874  -19.0397  -49.1960 H         1 UNK         0.0800 
    140 H140        0.9767  -17.8490  -48.2892 H         1 UNK         0.0800 
    141 H141       -2.0387  -19.9537  -48.5984 H         1 UNK         0.0800 
    142 H142       -3.0342  -19.2202  -47.3682 H         1 UNK         0.0800 
    143 H143       -1.2593  -21.6585  -46.8260 H         1 UNK         0.0600 
    144 H144       -2.7539  -20.0451  -45.0878 H         1 UNK         0.3000 
    145 H145       -3.6783  -22.3032  -42.6183 H         1 UNK         0.0600 
    146 H146       -2.1046  -21.0396  -41.1061 H         1 UNK         0.0600 
    147 H147       -1.3161  -22.3421  -41.9842 H         1 UNK         0.0600 
    148 H148       -1.0847  -20.6817  -42.4996 H         1 UNK         0.0600 
    149 H149       -3.3515  -19.4394  -42.6677 H         1 UNK         0.3000 
    150 H150       -6.2398  -18.6512  -44.4762 H         1 UNK         0.0600 
    151 H151       -7.3970  -17.8485  -42.4334 H         1 UNK         0.0600 
    152 H152       -6.3990  -18.8970  -41.4245 H         1 UNK         0.0600 
    153 H153       -7.5431  -19.5930  -42.5656 H         1 UNK         0.0600 
    154 H154       -4.9223  -17.1969  -42.3968 H         1 UNK         0.3000 
    155 H155       -3.2986  -15.2023  -44.5908 H         1 UNK         0.0600 
    156 H156       -4.7869  -14.9934  -42.5826 H         1 UNK         0.0600 
    157 H157       -3.2094  -14.2797  -42.3168 H         1 UNK         0.0600 
    158 H158       -3.5834  -15.8433  -41.6065 H         1 UNK         0.0600 
    159 H159       -1.1720  -15.3132  -43.8548 H         1 UNK         0.3000 
    160 H160        0.7678  -16.2188  -43.5209 H         1 UNK         0.0600 
    161 H161        0.1218  -15.6168  -41.1457 H         1 UNK         0.0600 
    162 H162        1.7299  -16.3086  -41.2199 H         1 UNK         0.0600 
    163 H163        0.3755  -17.2900  -40.6609 H         1 UNK         0.0600 
    164 H164        0.4524  -19.0076  -43.3291 H         1 UNK         0.3000 
    165 H165        3.4092  -20.2035  -42.9792 H         1 UNK         0.0600 
    166 H166        2.2617  -21.6152  -44.7183 H         1 UNK         0.0600 
    167 H167        1.1454  -20.9799  -43.5250 H         1 UNK         0.0600 
    168 H168        1.2227  -20.2608  -45.1318 H         1 UNK         0.0600 
    169 H169        4.8809  -19.8402  -44.5848 H         1 UNK         0.3000 
    170 H170        5.8686  -18.3081  -46.0968 H         1 UNK         0.0600 
    171 H171        6.4872  -19.7310  -48.1074 H         1 UNK         0.0600 
    172 H172        5.9133  -20.6615  -46.7333 H         1 UNK         0.0600 
    173 H173        4.8510  -20.3929  -48.1011 H         1 UNK         0.0600 
    174 H174        5.3007  -16.6358  -47.3946 H         1 UNK         0.3000 
    175 H175        4.7599  -16.1375  -50.5269 H         1 UNK         0.0600 
    176 H176        2.0556  -15.8127  -49.1274 H         1 UNK         0.0600 
    177 H177        2.6184  -14.8393  -50.4837 H         1 UNK         0.0600 
    178 H178        2.3356  -16.5589  -50.6924 H         1 UNK         0.0600 
    179 H179        4.0009  -14.6658  -48.0669 H         1 UNK         0.3000 
    180 H180        7.2723  -13.6235  -47.3835 H         1 UNK         0.0600 
    181 H181        6.5813  -11.2632  -47.7250 H         1 UNK         0.0600 
    182 H182        5.2626  -11.7747  -48.7800 H         1 UNK         0.0600 
    183 H183        6.9348  -12.0184  -49.2701 H         1 UNK         0.0600 
    184 H184        4.7615  -12.5814  -46.5068 H         1 UNK         0.3000 
    185 H185        3.7957  -15.1455  -44.3247 H         1 UNK         0.0600 
    186 H186        5.1086  -12.5026  -43.4968 H         1 UNK         0.0600 
    187 H187        4.0186  -13.4806  -42.5115 H         1 UNK         0.0600 
    188 H188        5.6035  -14.0989  -42.9447 H         1 UNK         0.0600 
    189 H189        2.7517  -12.5717  -44.4429 H         1 UNK         0.3000 
    190 H190       -4.5487  -22.0436  -46.0342 H         1 UNK         0.3000 
    191 H191       -5.5101  -23.3133  -48.4273 H         1 UNK         0.0600 
    192 H192       -6.3703  -23.5750  -45.4977 H         1 UNK         0.0600 
    193 H193       -7.2892  -24.1416  -46.8882 H         1 UNK         0.0600 
    194 H194       -7.0160  -22.4206  -46.6629 H         1 UNK         0.0600 
    195 H195       -3.2434  -24.3479  -45.9724 H         1 UNK         0.3000 
    196 H196       -3.1517  -27.0549  -47.2161 H         1 UNK         0.0600 
    197 H197       -2.8847  -28.0637  -44.9451 H         1 UNK         0.0600 
    198 H198       -4.4695  -27.3311  -45.1410 H         1 UNK         0.0600 
    199 H199       -3.2286  -26.5050  -44.2013 H         1 UNK         0.0600 
    200 H200       -1.5107  -24.7075  -45.0146 H         1 UNK         0.3000 
    201 H201        0.9686  -26.0904  -45.0154 H         1 UNK         0.0600 
    202 H202        0.2019  -24.5977  -43.1837 H         1 UNK         0.0600 
    203 H203        0.2913  -23.2026  -44.2558 H         1 UNK         0.0600 
    204 H204        1.7574  -24.0614  -43.8002 H         1 UNK         0.0600 
    205 H205       -0.3254  -23.7627  -47.2519 H         1 UNK         0.3000 
    206 H206        2.3140  -23.4351  -48.6287 H         1 UNK         0.0600 
    207 H207        1.1458  -21.3148  -47.9065 H         1 UNK         0.0600 
    208 H208        1.3597  -21.4347  -49.6434 H         1 UNK         0.0600 
    209 H209       -0.2166  -21.7555  -48.9394 H         1 UNK         0.0600 
    210 H210        0.2689  -25.7585  -48.6511 H         1 UNK         0.3000 
    211 H211       -0.5366  -27.2759  -50.0241 H         1 UNK         0.0600 
    212 H212        1.2678  -26.0665  -52.1844 H         1 UNK         0.0600 
    213 H213        0.5832  -27.6848  -52.1772 H         1 UNK         0.0600 
    214 H214        1.7754  -27.2380  -50.9685 H         1 UNK         0.0600 
    215 H215       -2.2242  -25.2582  -49.5924 H         1 UNK         0.3000 
    216 H216       -4.2023  -24.4516  -50.1233 H         1 UNK         0.0600 
    217 H217       -5.6099  -25.5539  -51.7959 H         1 UNK         0.0600 
    218 H218       -4.6870  -26.7638  -50.9225 H         1 UNK         0.0600 
    219 H219       -4.2132  -26.2997  -52.5577 H         1 UNK         0.0600 
    220 H220       -2.0143  -22.9069  -50.8457 H         1 UNK         0.3000 
    221 H221       -2.3254  -21.6069  -53.3780 H         1 UNK         0.0600 
    222 H222       -1.1446  -20.5542  -50.7529 H         1 UNK         0.0600 
    223 H223       -0.2530  -21.4117  -52.0103 H         1 UNK         0.0600 
    224 H224       -0.9315  -19.8249  -52.3368 H         1 UNK         0.0600 
    225 H225       -3.9198  -21.2016  -50.2429 H         1 UNK         0.3000 
    226 H226       -5.1211  -18.6776  -50.6158 H         1 UNK         0.0600 
    227 H227       -5.0435  -19.8253  -48.4218 H         1 UNK         0.0600 
    228 H228       -6.7000  -19.4309  -48.8318 H         1 UNK         0.0600 
    229 H229       -6.1318  -21.0834  -49.0107 H         1 UNK         0.0600 
    230 H230       -6.0622  -21.8131  -51.9484 H         1 UNK         0.3000 
    231 H231       -8.7449  -21.0841  -52.7185 H         1 UNK         0.0600 
    232 H232       -6.9119  -23.3096  -53.7594 H         1 UNK         0.0600 
    233 H233       -8.0146  -23.4521  -52.3901 H         1 UNK         0.0600 
    234 H234       -8.6478  -23.1952  -54.0086 H         1 UNK         0.0600 
    235 H235       -5.5667  -20.5493  -54.1200 H         1 UNK         0.3000 
    236 H236       -6.6540  -19.7280  -56.7549 H         1 UNK         0.0600 
    237 H237       -3.7759  -19.8680  -55.7092 H         1 UNK         0.0600 
    238 H238       -4.5652  -21.0731  -56.7244 H         1 UNK         0.0600 
    239 H239       -4.2637  -19.4581  -57.3480 H         1 UNK         0.0600 
    240 H240       -4.8928  -18.4083  -53.9051 H         1 UNK         0.3000 
    241 H241       -4.8598  -15.7214  -54.8578 H         1 UNK         0.0600 
    242 H242       -7.3917  -17.3787  -52.8629 H         1 UNK         0.3800 
    243 H243       -8.3705  -15.9401  -52.7616 H         1 UNK         0.3800 
    244 H244       -4.0571  -15.1459  -52.5644 H         1 UNK         0.0800 
    245 H245       -4.3947  -16.7734  -52.0273 H         1 UNK         0.0800 
    246 H246       -1.6430  -14.5433  -52.8270 H         1 UNK         0.0800 
    247 H247       -0.3597  -15.7220  -52.9064 H         1 UNK         0.0800 
@<TRIPOS>BOND
     1    1    2 1    
     2    1  127 1    
     3    1  128 1    
     4    1  129 1    
     5    2    3 2    
     6    2    4 am   BACKBONE|DICT|INTERRES
     7    4    5 1    
     8    4  130 1    
     9    5    6 1    
    10    5   65 1    
    11    5  131 1    
    12    6    7 1    
    13    6  132 1    
    14    6  133 1    
    15    7    8 1    
    16    8    9 1    
    17    8  134 1    
    18    8  135 1    
    19    9   10 ar   
    20    9   14 ar   
    21   10   11 ar   
    22   10  136 1    
    23   11   12 ar   
    24   11  126 1    
    25   12   13 ar   
    26   12  137 1    
    27   13   14 ar   
    28   13   15 1    
    29   14  138 1    
    30   15   16 1    
    31   15  139 1    
    32   15  140 1    
    33   16   17 1    
    34   17   18 1    
    35   17  141 1    
    36   17  142 1    
    37   18   19 1    
    38   18   67 1    
    39   18  143 1    
    40   19   20 am   BACKBONE|DICT|INTERRES
    41   19  144 1    
    42   20   21 2    
    43   20   22 1    
    44   22   23 1    
    45   22   24 1    
    46   22  145 1    
    47   23  146 1    
    48   23  147 1    
    49   23  148 1    
    50   24   25 am   BACKBONE|DICT|INTERRES
    51   24  149 1    
    52   25   26 2    
    53   25   27 1    
    54   27   28 1    
    55   27   29 1    
    56   27  150 1    
    57   28  151 1    
    58   28  152 1    
    59   28  153 1    
    60   29   30 am   BACKBONE|DICT|INTERRES
    61   29  154 1    
    62   30   31 2    
    63   30   32 1    
    64   32   33 1    
    65   32   34 1    
    66   32  155 1    
    67   33  156 1    
    68   33  157 1    
    69   33  158 1    
    70   34   35 am   BACKBONE|DICT|INTERRES
    71   34  159 1    
    72   35   36 2    
    73   35   37 1    
    74   37   38 1    
    75   37   39 1    
    76   37  160 1    
    77   38  161 1    
    78   38  162 1    
    79   38  163 1    
    80   39   40 am   BACKBONE|DICT|INTERRES
    81   39  164 1    
    82   40   41 2    
    83   40   42 1    
    84   42   43 1    
    85   42   44 1    
    86   42  165 1    
    87   43  166 1    
    88   43  167 1    
    89   43  168 1    
    90   44   45 am   BACKBONE|DICT|INTERRES
    91   44  169 1    
    92   45   46 2    
    93   45   47 1    
    94   47   48 1    
    95   47   49 1    
    96   47  170 1    
    97   48  171 1    
    98   48  172 1    
    99   48  173 1    
   100   49   50 am   BACKBONE|DICT|INTERRES
   101   49  174 1    
   102   50   51 2    
   103   50   52 1    
   104   52   53 1    
   105   52   54 1    
   106   52  175 1    
   107   53  176 1    
   108   53  177 1    
   109   53  178 1    
   110   54   55 am   BACKBONE|DICT|INTERRES
   111   54  179 1    
   112   55   56 2    
   113   55   57 1    
   114   57   58 1    
   115   57   59 1    
   116   57  180 1    
   117   58  181 1    
   118   58  182 1    
   119   58  183 1    
   120   59   60 am   BACKBONE|DICT|INTERRES
   121   59  184 1    
   122   60   61 2    
   123   60   62 1    
   124   62   63 1    
   125   62   64 1    
   126   62  185 1    
   127   63  186 1    
   128   63  187 1    
   129   63  188 1    
   130   64   65 am   BACKBONE|DICT|INTERRES
   131   64  189 1    
   132   65   66 2    
   133   67   68 2    
   134   67   69 am   BACKBONE|DICT|INTERRES
   135   69   70 1    
   136   69  190 1    
   137   70   71 1    
   138   70   72 1    
   139   70  191 1    
   140   71  192 1    
   141   71  193 1    
   142   71  194 1    
   143   72   73 2    
   144   72   74 am   BACKBONE|DICT|INTERRES
   145   74   75 1    
   146   74  195 1    
   147   75   76 1    
   148   75   77 1    
   149   75  196 1    
   150   76  197 1    
   151   76  198 1    
   152   76  199 1    
   153   77   78 2    
   154   77   79 am   BACKBONE|DICT|INTERRES
   155   79   80 1    
   156   79  200 1    
   157   80   81 1    
   158   80   82 1    
   159   80  201 1    
   160   81  202 1    
   161   81  203 1    
   162   81  204 1    
   163   82   83 2    
   164   82   84 am   BACKBONE|DICT|INTERRES
   165   84   85 1    
   166   84  205 1    
   167   85   86 1    
   168   85   87 1    
   169   85  206 1    
   170   86  207 1    
   171   86  208 1    
   172   86  209 1    
   173   87   88 2    
   174   87   89 am   BACKBONE|DICT|INTERRES
   175   89   90 1    
   176   89  210 1    
   177   90   91 1    
   178   90   92 1    
   179   90  211 1    
   180   91  212 1    
   181   91  213 1    
   182   91  214 1    
   183   92   93 2    
   184   92   94 am   BACKBONE|DICT|INTERRES
   185   94   95 1    
   186   94  215 1    
   187   95   96 1    
   188   95   97 1    
   189   95  216 1    
   190   96  217 1    
   191   96  218 1    
   192   96  219 1    
   193   97   98 2    
   194   97   99 am   BACKBONE|DICT|INTERRES
   195   99  100 1    
   196   99  220 1    
   197  100  101 1    
   198  100  102 1    
   199  100  221 1    
   200  101  222 1    
   201  101  223 1    
   202  101  224 1    
   203  102  103 2    
   204  102  104 am   BACKBONE|DICT|INTERRES
   205  104  105 1    
   206  104  225 1    
   207  105  106 1    
   208  105  107 1    
   209  105  226 1    
   210  106  227 1    
   211  106  228 1    
   212  106  229 1    
   213  107  108 2    
   214  107  109 am   BACKBONE|DICT|INTERRES
   215  109  110 1    
   216  109  230 1    
   217  110  111 1    
   218  110  112 1    
   219  110  231 1    
   220  111  232 1    
   221  111  233 1    
   222  111  234 1    
   223  112  113 2    
   224  112  114 am   BACKBONE|DICT|INTERRES
   225  114  115 1    
   226  114  235 1    
   227  115  116 1    
   228  115  117 1    
   229  115  236 1    
   230  116  237 1    
   231  116  238 1    
   232  116  239 1    
   233  117  118 2    
   234  117  119 am   BACKBONE|DICT|INTERRES
   235  119  120 1    
   236  119  240 1    
   237  120  121 1    
   238  120  124 1    
   239  120  241 1    
   240  121  122 am   BACKBONE|DICT|INTERRES
   241  121  123 2    
   242  122  242 1    
   243  122  243 1    
   244  124  125 1    
   245  124  244 1    
   246  124  245 1    
   247  125  126 1    
   248  126  246 1    
   249  126  247 1    
@<TRIPOS>SUBSTRUCTURE
     1 UNK         1 GROUP             0       ****    0 ROOT    
