@<TRIPOS>MOLECULE
3R540
247   249    1
SMALL
USER_CHARGES


@<TRIPOS>ATOM
      1 CA          4.2693  -10.0464  -45.9973 C.3       0 UNK        -0.1800 
      2 C           3.1629  -10.2795  -47.0164 C.2       0 UNK         0.5000 
      3 O           3.0407  -11.3934  -47.5276 O.2       0 UNK        -0.5000 
      4 N           2.3732   -9.2302  -47.3005 N.am      1 UNK        -0.5000 
      5 CA          1.2361   -9.1626  -48.2337 C.3       1 UNK         0.1400 
      6 C6         -0.1314   -9.5567  -47.5931 C.3       23 UNK        -0.0398 
      7 S7         -0.2328  -11.2264  -46.8469 S.3       23 UNK        -0.2404 
      8 C8         -1.9804  -11.6743  -47.0882 C.3       23 UNK        -0.0205 
      9 C9         -2.1089  -13.0613  -47.6973 C.ar      23 UNK        -0.0193 
     10 C10        -2.2558  -13.2105  -49.0782 C.ar      23 UNK        -0.1150 
     11 C11        -2.3756  -14.4820  -49.6461 C.ar      23 UNK        -0.0193 
     12 C12        -2.3539  -15.6120  -48.8223 C.ar      23 UNK        -0.1150 
     13 C13        -2.2013  -15.4748  -47.4387 C.ar      23 UNK        -0.0193 
     14 C14        -2.0808  -14.1971  -46.8826 C.ar      23 UNK        -0.1150 
     15 C15        -2.1413  -16.7036  -46.5453 C.3       23 UNK        -0.0205 
     16 S16        -0.4555  -17.3826  -46.5104 S.3       23 UNK        -0.2404 
     17 C17        -0.5168  -18.4944  -45.0717 C.3       23 UNK        -0.0398 
     18 CA         -0.6751  -19.9806  -45.4702 C.3       11 UNK         0.1400 
     19 N          -0.1209  -20.8736  -44.4517 N.am      11 UNK        -0.5000 
     20 C           0.0102  -22.2014  -44.5767 C.2       10 UNK         0.5000 
     21 O          -0.2797  -22.8271  -45.5946 O.2       10 UNK        -0.5000 
     22 CA          0.5001  -22.9633  -43.3346 C.3       10 UNK         0.1400 
     23 CB          2.0322  -22.9357  -43.2403 C.3       10 UNK        -0.1800 
     24 N          -0.0834  -22.4265  -42.1051 N.am      10 UNK        -0.5000 
     25 C          -1.3777  -22.5429  -41.7749 C.2       9 UNK         0.5000 
     26 O          -2.2039  -23.1554  -42.4511 O.2       9 UNK        -0.5000 
     27 CA         -1.8314  -21.8102  -40.4997 C.3       9 UNK         0.1400 
     28 CB         -1.5009  -22.6388  -39.2494 C.3       9 UNK        -0.1800 
     29 N          -1.2336  -20.4796  -40.3750 N.am      9 UNK        -0.5000 
     30 C          -1.4833  -19.4573  -41.2054 C.2       8 UNK         0.5000 
     31 O          -2.2630  -19.5213  -42.1547 O.2       8 UNK        -0.5000 
     32 CA         -0.6919  -18.1593  -40.9658 C.3       8 UNK         0.1400 
     33 CB         -1.4049  -17.2751  -39.9322 C.3       8 UNK        -0.1800 
     34 N           0.6930  -18.3854  -40.5423 N.am      8 UNK        -0.5000 
     35 C           1.6166  -19.0222  -41.2731 C.2       7 UNK         0.5000 
     36 O           1.3836  -19.5566  -42.3597 O.2       7 UNK        -0.5000 
     37 CA          3.0304  -19.1060  -40.6813 C.3       7 UNK         0.1400 
     38 CB          3.3459  -20.5387  -40.2247 C.3       7 UNK        -0.1800 
     39 N           4.0030  -18.6926  -41.6883 N.am      7 UNK        -0.5000 
     40 C           4.3445  -17.4200  -41.9293 C.2       6 UNK         0.5000 
     41 O           3.9519  -16.4666  -41.2553 O.2       6 UNK        -0.5000 
     42 CA          5.2802  -17.1671  -43.1268 C.3       6 UNK         0.1400 
     43 CB          6.7503  -17.2258  -42.6837 C.3       6 UNK        -0.1800 
     44 N           5.0722  -18.1077  -44.2310 N.am      6 UNK        -0.5000 
     45 C           3.9991  -18.1003  -45.0317 C.2       5 UNK         0.5000 
     46 O           3.0636  -17.3049  -44.9219 O.2       5 UNK        -0.5000 
     47 CA          3.9642  -19.1662  -46.1337 C.3       5 UNK         0.1400 
     48 CB          3.4543  -20.5074  -45.5821 C.3       5 UNK        -0.1800 
     49 N           3.0858  -18.7046  -47.2023 N.am      5 UNK        -0.5000 
     50 C           3.1721  -19.0608  -48.4890 C.2       4 UNK         0.5000 
     51 O           3.9982  -19.8670  -48.9182 O.2       4 UNK        -0.5000 
     52 CA          2.1752  -18.4133  -49.4694 C.3       4 UNK         0.1400 
     53 CB          1.0007  -19.3646  -49.7466 C.3       4 UNK        -0.1800 
     54 N           1.6408  -17.1407  -48.9868 N.am      4 UNK        -0.5000 
     55 C           2.2855  -15.9692  -49.0183 C.2       3 UNK         0.5000 
     56 O           3.4185  -15.8148  -49.4807 O.2       3 UNK        -0.5000 
     57 CA          1.5346  -14.7805  -48.3910 C.3       3 UNK         0.1400 
     58 CB          2.0135  -14.5349  -46.9530 C.3       3 UNK        -0.1800 
     59 N           1.6607  -13.5395  -49.1514 N.am      3 UNK        -0.5000 
     60 C           1.2332  -13.3521  -50.4096 C.2       2 UNK         0.5000 
     61 O           0.7673  -14.2468  -51.1162 O.2       2 UNK        -0.5000 
     62 CA          1.2819  -11.9052  -50.9356 C.3       2 UNK         0.1400 
     63 CB          0.3300  -11.6480  -52.1191 C.3       2 UNK        -0.1800 
     64 N           0.9575  -10.9965  -49.8413 N.am      2 UNK        -0.5000 
     65 C           1.5457   -9.8243  -49.5972 C.2       1 UNK         0.5000 
     66 O           2.3336   -9.2765  -50.3714 O.2       1 UNK        -0.5000 
     67 C          -2.1423  -20.3307  -45.7912 C.2       11 UNK         0.5000 
     68 O          -2.4977  -20.4500  -46.9634 O.2       11 UNK        -0.5000 
     69 N          -2.9518  -20.5389  -44.7428 N.am      12 UNK        -0.5000 
     70 CA         -4.3425  -20.9781  -44.8391 C.3       12 UNK         0.1400 
     71 CB         -4.9961  -20.9363  -43.4499 C.3       12 UNK        -0.1800 
     72 C          -4.4801  -22.3744  -45.4694 C.2       12 UNK         0.5000 
     73 O          -5.3347  -22.5589  -46.3340 O.2       12 UNK        -0.5000 
     74 N          -3.6187  -23.3180  -45.0606 N.am      13 UNK        -0.5000 
     75 CA         -3.5518  -24.6707  -45.6180 C.3       13 UNK         0.1400 
     76 CB         -2.5827  -25.5282  -44.7909 C.3       13 UNK        -0.1800 
     77 C          -3.1626  -24.6846  -47.1078 C.2       13 UNK         0.5000 
     78 O          -3.7644  -25.4295  -47.8803 O.2       13 UNK        -0.5000 
     79 N          -2.1951  -23.8376  -47.4879 N.am      14 UNK        -0.5000 
     80 CA         -1.7782  -23.6072  -48.8703 C.3       14 UNK         0.1400 
     81 CB         -0.5306  -22.7099  -48.8914 C.3       14 UNK        -0.1800 
     82 C          -2.9107  -23.0087  -49.7227 C.2       14 UNK         0.5000 
     83 O          -3.2074  -23.5362  -50.7974 O.2       14 UNK        -0.5000 
     84 N          -3.5446  -21.9457  -49.2079 N.am      15 UNK        -0.5000 
     85 CA         -4.6658  -21.2486  -49.8386 C.3       15 UNK         0.1400 
     86 CB         -4.9971  -19.9806  -49.0389 C.3       15 UNK        -0.1800 
     87 C          -5.9196  -22.1244  -50.0236 C.2       15 UNK         0.5000 
     88 O          -6.6457  -21.9376  -51.0004 O.2       15 UNK        -0.5000 
     89 N          -6.1355  -23.0934  -49.1235 N.am      16 UNK        -0.5000 
     90 CA         -7.2096  -24.0902  -49.1624 C.3       16 UNK         0.1400 
     91 CB         -7.3904  -24.6865  -47.7550 C.3       16 UNK        -0.1800 
     92 C          -6.9932  -25.1738  -50.2449 C.2       16 UNK         0.5000 
     93 O          -7.0107  -26.3682  -49.9447 O.2       16 UNK        -0.5000 
     94 N          -6.7967  -24.7257  -51.4918 N.am      17 UNK        -0.5000 
     95 CA         -6.6930  -25.4817  -52.7459 C.3       17 UNK         0.1400 
     96 CB         -7.9984  -26.2561  -53.0194 C.3       17 UNK        -0.1800 
     97 C          -5.4543  -26.3913  -52.8964 C.2       17 UNK         0.5000 
     98 O          -5.2984  -26.9961  -53.9583 O.2       17 UNK        -0.5000 
     99 N          -4.5845  -26.4721  -51.8791 N.am      18 UNK        -0.5000 
    100 CA        -3.3471  -27.2570  -51.9199 C.3       18 UNK         0.1400 
    101 CB        -2.7912  -27.4262  -50.4994 C.3       18 UNK        -0.1800 
    102 C         -2.3048  -26.6215  -52.8568 C.2       18 UNK         0.5000 
    103 O         -1.7374  -27.3136  -53.7030 O.2       18 UNK        -0.5000 
    104 N         -2.1187  -25.3052  -52.7112 N.am      19 UNK        -0.5000 
    105 CA        -1.3710  -24.4461  -53.6289 C.3       19 UNK         0.1400 
    106 CB        -0.2404  -23.7536  -52.8527 C.3       19 UNK        -0.1800 
    107 C         -2.2917  -23.3906  -54.2702 C.2       19 UNK         0.5000 
    108 O         -1.9040  -22.7862  -55.2693 O.2       19 UNK        -0.5000 
    109 N         -3.4679  -23.1535  -53.6662 N.am      20 UNK        -0.5000 
    110 CA        -4.5168  -22.1817  -54.0056 C.3       20 UNK         0.1400 
    111 CB        -5.0176  -22.3539  -55.4515 C.3       20 UNK        -0.1800 
    112 C         -4.1449  -20.7171  -53.7019 C.2       20 UNK         0.5000 
    113 O         -5.0356  -19.9308  -53.3768 O.2       20 UNK        -0.5000 
    114 N         -2.8479  -20.3843  -53.7625 N.am      21 UNK        -0.5000 
    115 CA        -2.2464  -19.0889  -53.4422 C.3       21 UNK         0.1400 
    116 CB        -2.2974  -18.8506  -51.9136 C.3       21 UNK        -0.1800 
    117 C         -2.8706  -17.9588  -54.2896 C.2       21 UNK         0.5000 
    118 O         -2.7943  -18.0170  -55.5184 O.2       21 UNK        -0.5000 
    119 N         -3.4879  -16.9762  -53.6280 N.am      22 UNK        -0.5000 
    120 CA        -4.2646  -15.8857  -54.2340 C.3       22 UNK         0.1400 
    121 C         -5.7846  -16.1960  -54.3890 C.2       22 UNK         0.5000 
    122 N         -6.2688  -17.3906  -54.0687 N.am      22 UNK        -0.7600 
    123 O         -6.5448  -15.3398  -54.8337 O.2       22 UNK        -0.5000 
    124 C124       -3.9957  -14.5362  -53.5156 C.3       23 UNK        -0.0398 
    125 S125       -4.2284  -14.5825  -51.7010 S.3       23 UNK        -0.2404 
    126 C126       -2.4949  -14.6269  -51.1531 C.3       23 UNK        -0.0205 
    127 H127        4.1468  -10.7234  -45.1519 H         1 UNK         0.0600 
    128 H128        4.2653   -9.0242  -45.6180 H         1 UNK         0.0600 
    129 H129        5.2420  -10.2377  -46.4503 H         1 UNK         0.0600 
    130 H130        2.5782   -8.3551  -46.8395 H         1 UNK         0.3000 
    131 H131        1.1479   -8.1012  -48.4715 H         1 UNK         0.0600 
    132 H132       -0.9252   -9.4324  -48.3311 H         1 UNK         0.0800 
    133 H133       -0.3657   -8.8437  -46.8017 H         1 UNK         0.0800 
    134 H134       -2.4910  -10.9443  -47.7172 H         1 UNK         0.0800 
    135 H135       -2.4884  -11.6448  -46.1232 H         1 UNK         0.0800 
    136 H136       -2.2715  -12.3368  -49.7145 H         1 UNK         0.1150 
    137 H137       -2.4387  -16.5978  -49.2577 H         1 UNK         0.1150 
    138 H138       -1.9531  -14.0852  -45.8150 H         1 UNK         0.1150 
    139 H139       -2.4584  -16.4439  -45.5342 H         1 UNK         0.0800 
    140 H140       -2.8350  -17.4653  -46.9050 H         1 UNK         0.0800 
    141 H141       -1.2862  -18.1743  -44.3675 H         1 UNK         0.0800 
    142 H142        0.4313  -18.3527  -44.5511 H         1 UNK         0.0800 
    143 H143       -0.0904  -20.1578  -46.3756 H         1 UNK         0.0600 
    144 H144        0.2055  -20.4368  -43.5942 H         1 UNK         0.3000 
    145 H145        0.1869  -24.0046  -43.4348 H         1 UNK         0.0600 
    146 H146        2.3862  -23.5146  -42.3873 H         1 UNK         0.0600 
    147 H147        2.4844  -23.3643  -44.1355 H         1 UNK         0.0600 
    148 H148        2.4119  -21.9199  -43.1382 H         1 UNK         0.0600 
    149 H149        0.5180  -21.8624  -41.5238 H         1 UNK         0.3000 
    150 H150       -2.9156  -21.6907  -40.5534 H         1 UNK         0.0600 
    151 H151       -1.9474  -23.6322  -39.3111 H         1 UNK         0.0600 
    152 H152       -1.8902  -22.1645  -38.3483 H         1 UNK         0.0600 
    153 H153       -0.4255  -22.7693  -39.1227 H         1 UNK         0.0600 
    154 H154       -0.5761  -20.3398  -39.6221 H         1 UNK         0.3000 
    155 H155       -0.6613  -17.6162  -41.9126 H         1 UNK         0.0600 
    156 H156       -1.4363  -17.7475  -38.9496 H         1 UNK         0.0600 
    157 H157       -0.9064  -16.3114  -39.8264 H         1 UNK         0.0600 
    158 H158       -2.4342  -17.0751  -40.2335 H         1 UNK         0.0600 
    159 H159        0.9631  -17.9793  -39.6580 H         1 UNK         0.3000 
    160 H160        3.1002  -18.4490  -39.8116 H         1 UNK         0.0600 
    161 H161        3.3275  -21.2446  -41.0547 H         1 UNK         0.0600 
    162 H162        2.6225  -20.8821  -39.4841 H         1 UNK         0.0600 
    163 H163        4.3323  -20.5940  -39.7640 H         1 UNK         0.0600 
    164 H164        4.3262  -19.4061  -42.3238 H         1 UNK         0.3000 
    165 H165        5.0780  -16.1587  -43.4949 H         1 UNK         0.0600 
    166 H166        7.4205  -16.9703  -43.5047 H         1 UNK         0.0600 
    167 H167        6.9432  -16.5179  -41.8765 H         1 UNK         0.0600 
    168 H168        7.0236  -18.2179  -42.3222 H         1 UNK         0.0600 
    169 H169        5.8004  -18.7901  -44.3860 H         1 UNK         0.3000 
    170 H170        4.9761  -19.2903  -46.5253 H         1 UNK         0.0600 
    171 H171        4.1204  -20.8943  -44.8105 H         1 UNK         0.0600 
    172 H172        2.4664  -20.3964  -45.1379 H         1 UNK         0.0600 
    173 H173        3.3877  -21.2642  -46.3638 H         1 UNK         0.0600 
    174 H174        2.4180  -17.9989  -46.9178 H         1 UNK         0.3000 
    175 H175        2.7024  -18.2377  -50.4096 H         1 UNK         0.0600 
    176 H176        1.3540  -20.3310  -50.1087 H         1 UNK         0.0600 
    177 H177        0.4070  -19.5454  -48.8498 H         1 UNK         0.0600 
    178 H178        0.3400  -18.9552  -50.5096 H         1 UNK         0.0600 
    179 H179        0.7272  -17.1776  -48.5539 H         1 UNK         0.3000 
    180 H180        0.4718  -15.0213  -48.3579 H         1 UNK         0.0600 
    181 H181        3.0694  -14.2639  -46.9211 H         1 UNK         0.0600 
    182 H182        1.8823  -15.4254  -46.3396 H         1 UNK         0.0600 
    183 H183        1.4466  -13.7342  -46.4788 H         1 UNK         0.0600 
    184 H184        2.0775  -12.7576  -48.6536 H         1 UNK         0.3000 
    185 H185        2.3076  -11.7345  -51.2688 H         1 UNK         0.0600 
    186 H186        0.5405  -12.3217  -52.9504 H         1 UNK         0.0600 
    187 H187       -0.7120  -11.7879  -51.8319 H         1 UNK         0.0600 
    188 H188        0.4376  -10.6300  -52.4936 H         1 UNK         0.0600 
    189 H189        0.3718  -11.3883  -49.1133 H         1 UNK         0.3000 
    190 H190       -2.5962  -20.3719  -43.8048 H         1 UNK         0.3000 
    191 H191       -4.8692  -20.2704  -45.4824 H         1 UNK         0.0600 
    192 H192       -4.4888  -21.5955  -42.7451 H         1 UNK         0.0600 
    193 H193       -6.0402  -21.2477  -43.4997 H         1 UNK         0.0600 
    194 H194       -4.9764  -19.9279  -43.0363 H         1 UNK         0.0600 
    195 H195       -2.9743  -23.1032  -44.3063 H         1 UNK         0.3000 
    196 H196       -4.5474  -25.1112  -45.5337 H         1 UNK         0.0600 
    197 H197       -2.5419  -26.5489  -45.1731 H         1 UNK         0.0600 
    198 H198       -2.8965  -25.5835  -43.7484 H         1 UNK         0.0600 
    199 H199       -1.5692  -25.1282  -44.8148 H         1 UNK         0.0600 
    200 H200       -1.7052  -23.3048  -46.7740 H         1 UNK         0.3000 
    201 H201       -1.5022  -24.5686  -49.3046 H         1 UNK         0.0600 
    202 H202        0.3005  -23.1818  -48.3672 H         1 UNK         0.0600 
    203 H203       -0.7154  -21.7470  -48.4168 H         1 UNK         0.0600 
    204 H204       -0.1995  -22.5120  -49.9100 H         1 UNK         0.0600 
    205 H205       -3.2155  -21.5597  -48.3259 H         1 UNK         0.3000 
    206 H206       -4.3361  -20.9419  -50.8310 H         1 UNK         0.0600 
    207 H207       -4.1363  -19.3137  -48.9832 H         1 UNK         0.0600 
    208 H208       -5.8095  -19.4237  -49.5075 H         1 UNK         0.0600 
    209 H209       -5.3031  -20.2186  -48.0198 H         1 UNK         0.0600 
    210 H210       -5.5155  -23.1422  -48.3223 H         1 UNK         0.3000 
    211 H211       -8.1381  -23.5758  -49.4180 H         1 UNK         0.0600 
    212 H212       -6.4890  -25.1987  -47.4174 H         1 UNK         0.0600 
    213 H213       -8.2082  -25.4078  -47.7339 H         1 UNK         0.0600 
    214 H214       -7.6277  -23.9112  -47.0266 H         1 UNK         0.0600 
    215 H215       -6.7762  -23.7137  -51.5924 H         1 UNK         0.3000 
    216 H216       -6.5954  -24.7281  -53.5285 H         1 UNK         0.0600 
    217 H217       -7.9906  -26.7006  -54.0153 H         1 UNK         0.0600 
    218 H218       -8.8659  -25.5982  -52.9679 H         1 UNK         0.0600 
    219 H219       -8.1472  -27.0655  -52.3042 H         1 UNK         0.0600 
    220 H220       -4.7857  -25.9681  -51.0269 H         1 UNK         0.3000 
    221 H221       -3.5840  -28.2507  -52.3064 H         1 UNK         0.0600 
    222 H222       -2.5466  -26.4667  -50.0478 H         1 UNK         0.0600 
    223 H223       -3.5118  -27.9244  -49.8505 H         1 UNK         0.0600 
    224 H224       -1.8827  -28.0295  -50.5038 H         1 UNK         0.0600 
    225 H225       -2.6021  -24.8279  -51.9550 H         1 UNK         0.3000 
    226 H226       -0.9315  -25.0337  -54.4374 H         1 UNK         0.0600 
    227 H227        0.3991  -24.4796  -52.3504 H         1 UNK         0.0600 
    228 H228        0.3919  -23.1697  -53.5227 H         1 UNK         0.0600 
    229 H229       -0.6349  -23.0721  -52.0999 H         1 UNK         0.0600 
    230 H230       -3.6096  -23.6104  -52.7737 H         1 UNK         0.3000 
    231 H231       -5.3519  -22.4225  -53.3472 H         1 UNK         0.0600 
    232 H232       -5.8920  -21.7279  -55.6334 H         1 UNK         0.0600 
    233 H233       -5.3092  -23.3857  -55.6482 H         1 UNK         0.0600 
    234 H234       -4.2613  -22.0710  -56.1838 H         1 UNK         0.0600 
    235 H235       -2.2183  -21.0856  -54.1339 H         1 UNK         0.3000 
    236 H236       -1.1973  -19.1518  -53.7343 H         1 UNK         0.0600 
    237 H237       -1.8533  -19.6883  -51.3754 H         1 UNK         0.0600 
    238 H238       -1.7360  -17.9586  -51.6352 H         1 UNK         0.0600 
    239 H239       -3.3169  -18.7346  -51.5441 H         1 UNK         0.0600 
    240 H240       -3.5391  -17.0282  -52.6214 H         1 UNK         0.3000 
    241 H241       -3.9163  -15.7532  -55.2599 H         1 UNK         0.0600 
    242 H242       -7.2541  -17.5640  -54.1852 H         1 UNK         0.3800 
    243 H243       -5.6708  -18.1460  -53.7454 H         1 UNK         0.3800 
    244 H244       -2.9761  -14.2179  -53.7356 H         1 UNK         0.0800 
    245 H245       -4.6283  -13.7457  -53.9228 H         1 UNK         0.0800 
    246 H246       -2.0246  -15.5547  -51.4791 H         1 UNK         0.0800 
    247 H247       -1.9420  -13.8228  -51.6390 H         1 UNK         0.0800 
@<TRIPOS>BOND
     1    1    2 1    
     2    1  127 1    
     3    1  128 1    
     4    1  129 1    
     5    2    3 2    
     6    2    4 am   BACKBONE|DICT|INTERRES
     7    4    5 1    
     8    4  130 1    
     9    5    6 1    
    10    5   65 1    
    11    5  131 1    
    12    6    7 1    
    13    6  132 1    
    14    6  133 1    
    15    7    8 1    
    16    8    9 1    
    17    8  134 1    
    18    8  135 1    
    19    9   10 ar   
    20    9   14 ar   
    21   10   11 ar   
    22   10  136 1    
    23   11   12 ar   
    24   11  126 1    
    25   12   13 ar   
    26   12  137 1    
    27   13   14 ar   
    28   13   15 1    
    29   14  138 1    
    30   15   16 1    
    31   15  139 1    
    32   15  140 1    
    33   16   17 1    
    34   17   18 1    
    35   17  141 1    
    36   17  142 1    
    37   18   19 1    
    38   18   67 1    
    39   18  143 1    
    40   19   20 am   BACKBONE|DICT|INTERRES
    41   19  144 1    
    42   20   21 2    
    43   20   22 1    
    44   22   23 1    
    45   22   24 1    
    46   22  145 1    
    47   23  146 1    
    48   23  147 1    
    49   23  148 1    
    50   24   25 am   BACKBONE|DICT|INTERRES
    51   24  149 1    
    52   25   26 2    
    53   25   27 1    
    54   27   28 1    
    55   27   29 1    
    56   27  150 1    
    57   28  151 1    
    58   28  152 1    
    59   28  153 1    
    60   29   30 am   BACKBONE|DICT|INTERRES
    61   29  154 1    
    62   30   31 2    
    63   30   32 1    
    64   32   33 1    
    65   32   34 1    
    66   32  155 1    
    67   33  156 1    
    68   33  157 1    
    69   33  158 1    
    70   34   35 am   BACKBONE|DICT|INTERRES
    71   34  159 1    
    72   35   36 2    
    73   35   37 1    
    74   37   38 1    
    75   37   39 1    
    76   37  160 1    
    77   38  161 1    
    78   38  162 1    
    79   38  163 1    
    80   39   40 am   BACKBONE|DICT|INTERRES
    81   39  164 1    
    82   40   41 2    
    83   40   42 1    
    84   42   43 1    
    85   42   44 1    
    86   42  165 1    
    87   43  166 1    
    88   43  167 1    
    89   43  168 1    
    90   44   45 am   BACKBONE|DICT|INTERRES
    91   44  169 1    
    92   45   46 2    
    93   45   47 1    
    94   47   48 1    
    95   47   49 1    
    96   47  170 1    
    97   48  171 1    
    98   48  172 1    
    99   48  173 1    
   100   49   50 am   BACKBONE|DICT|INTERRES
   101   49  174 1    
   102   50   51 2    
   103   50   52 1    
   104   52   53 1    
   105   52   54 1    
   106   52  175 1    
   107   53  176 1    
   108   53  177 1    
   109   53  178 1    
   110   54   55 am   BACKBONE|DICT|INTERRES
   111   54  179 1    
   112   55   56 2    
   113   55   57 1    
   114   57   58 1    
   115   57   59 1    
   116   57  180 1    
   117   58  181 1    
   118   58  182 1    
   119   58  183 1    
   120   59   60 am   BACKBONE|DICT|INTERRES
   121   59  184 1    
   122   60   61 2    
   123   60   62 1    
   124   62   63 1    
   125   62   64 1    
   126   62  185 1    
   127   63  186 1    
   128   63  187 1    
   129   63  188 1    
   130   64   65 am   BACKBONE|DICT|INTERRES
   131   64  189 1    
   132   65   66 2    
   133   67   68 2    
   134   67   69 am   BACKBONE|DICT|INTERRES
   135   69   70 1    
   136   69  190 1    
   137   70   71 1    
   138   70   72 1    
   139   70  191 1    
   140   71  192 1    
   141   71  193 1    
   142   71  194 1    
   143   72   73 2    
   144   72   74 am   BACKBONE|DICT|INTERRES
   145   74   75 1    
   146   74  195 1    
   147   75   76 1    
   148   75   77 1    
   149   75  196 1    
   150   76  197 1    
   151   76  198 1    
   152   76  199 1    
   153   77   78 2    
   154   77   79 am   BACKBONE|DICT|INTERRES
   155   79   80 1    
   156   79  200 1    
   157   80   81 1    
   158   80   82 1    
   159   80  201 1    
   160   81  202 1    
   161   81  203 1    
   162   81  204 1    
   163   82   83 2    
   164   82   84 am   BACKBONE|DICT|INTERRES
   165   84   85 1    
   166   84  205 1    
   167   85   86 1    
   168   85   87 1    
   169   85  206 1    
   170   86  207 1    
   171   86  208 1    
   172   86  209 1    
   173   87   88 2    
   174   87   89 am   BACKBONE|DICT|INTERRES
   175   89   90 1    
   176   89  210 1    
   177   90   91 1    
   178   90   92 1    
   179   90  211 1    
   180   91  212 1    
   181   91  213 1    
   182   91  214 1    
   183   92   93 2    
   184   92   94 am   BACKBONE|DICT|INTERRES
   185   94   95 1    
   186   94  215 1    
   187   95   96 1    
   188   95   97 1    
   189   95  216 1    
   190   96  217 1    
   191   96  218 1    
   192   96  219 1    
   193   97   98 2    
   194   97   99 am   BACKBONE|DICT|INTERRES
   195   99  100 1    
   196   99  220 1    
   197  100  101 1    
   198  100  102 1    
   199  100  221 1    
   200  101  222 1    
   201  101  223 1    
   202  101  224 1    
   203  102  103 2    
   204  102  104 am   BACKBONE|DICT|INTERRES
   205  104  105 1    
   206  104  225 1    
   207  105  106 1    
   208  105  107 1    
   209  105  226 1    
   210  106  227 1    
   211  106  228 1    
   212  106  229 1    
   213  107  108 2    
   214  107  109 am   BACKBONE|DICT|INTERRES
   215  109  110 1    
   216  109  230 1    
   217  110  111 1    
   218  110  112 1    
   219  110  231 1    
   220  111  232 1    
   221  111  233 1    
   222  111  234 1    
   223  112  113 2    
   224  112  114 am   BACKBONE|DICT|INTERRES
   225  114  115 1    
   226  114  235 1    
   227  115  116 1    
   228  115  117 1    
   229  115  236 1    
   230  116  237 1    
   231  116  238 1    
   232  116  239 1    
   233  117  118 2    
   234  117  119 am   BACKBONE|DICT|INTERRES
   235  119  120 1    
   236  119  240 1    
   237  120  121 1    
   238  120  124 1    
   239  120  241 1    
   240  121  122 am   BACKBONE|DICT|INTERRES
   241  121  123 2    
   242  122  242 1    
   243  122  243 1    
   244  124  125 1    
   245  124  244 1    
   246  124  245 1    
   247  125  126 1    
   248  126  246 1    
   249  126  247 1    
@<TRIPOS>SUBSTRUCTURE
     1 UNK         1 GROUP             0       ****    0 ROOT    
