@<TRIPOS>MOLECULE
3R540
247   249    1
SMALL
USER_CHARGES


@<TRIPOS>ATOM
      1 CA          2.9352  -19.1610  -49.7880 C.3       0 UNK        -0.1800 
      2 C           3.9955  -18.1176  -49.4743 C.2       0 UNK         0.5000 
      3 O           5.1812  -18.4461  -49.4530 O.2       0 UNK        -0.5000 
      4 N           3.5694  -16.8662  -49.2456 N.am      1 UNK        -0.5000 
      5 CA          4.4154  -15.6861  -49.0115 C.3       1 UNK         0.1400 
      6 C6          5.2856  -15.3087  -50.2489 C.3       23 UNK        -0.0398 
      7 S7          4.3428  -14.5401  -51.6125 S.3       23 UNK        -0.2404 
      8 C8          3.8174  -15.9627  -52.6394 C.3       23 UNK        -0.0205 
      9 C9          2.4171  -16.5142  -52.3515 C.ar      23 UNK        -0.0193 
     10 C10         2.0191  -17.6994  -52.9802 C.ar      23 UNK        -0.1150 
     11 C11         0.7563  -18.2584  -52.7497 C.ar      23 UNK        -0.0193 
     12 C12        -0.1122  -17.6187  -51.8557 C.ar      23 UNK        -0.1150 
     13 C13         0.2627  -16.4296  -51.2290 C.ar      23 UNK        -0.0193 
     14 C14         1.5152  -15.8764  -51.4915 C.ar      23 UNK        -0.1150 
     15 C15        -0.6711  -15.7379  -50.2530 C.3       23 UNK        -0.0205 
     16 S16        -0.4461  -16.3911  -48.5713 S.3       23 UNK        -0.2404 
     17 C17        -1.6093  -17.7969  -48.5597 C.3       23 UNK        -0.0398 
     18 CA         -0.9093  -19.1752  -48.5066 C.3       11 UNK         0.1400 
     19 N          -0.0385  -19.3318  -47.3367 N.am      11 UNK        -0.5000 
     20 C           0.7798  -20.3766  -47.1343 C.2       10 UNK         0.5000 
     21 O           0.9153  -21.2987  -47.9349 O.2       10 UNK        -0.5000 
     22 CA          1.5525  -20.4365  -45.8055 C.3       10 UNK         0.1400 
     23 CB          2.9526  -19.8370  -45.9750 C.3       10 UNK        -0.1800 
     24 N           0.8534  -19.7695  -44.7091 N.am      10 UNK        -0.5000 
     25 C          -0.3181  -20.1852  -44.2047 C.2       9 UNK         0.5000 
     26 O          -0.9019  -21.1987  -44.5935 O.2       9 UNK        -0.5000 
     27 CA         -0.9710  -19.3075  -43.1187 C.3       9 UNK         0.1400 
     28 CB         -0.6899  -19.8858  -41.7249 C.3       9 UNK        -0.1800 
     29 N          -0.5723  -17.8956  -43.1485 N.am      9 UNK        -0.5000 
     30 C          -0.7547  -17.0632  -44.1839 C.2       8 UNK         0.5000 
     31 O          -1.2217  -17.4185  -45.2670 O.2       8 UNK        -0.5000 
     32 CA         -0.3450  -15.5986  -43.9450 C.3       8 UNK         0.1400 
     33 CB         -0.6506  -14.6635  -45.1322 C.3       8 UNK        -0.1800 
     34 N          -0.9043  -15.0771  -42.6940 N.am      8 UNK        -0.5000 
     35 C          -2.1961  -14.8651  -42.4013 C.2       7 UNK         0.5000 
     36 O          -3.1260  -15.0754  -43.1818 O.2       7 UNK        -0.5000 
     37 CA         -2.4796  -14.3013  -40.9934 C.3       7 UNK         0.1400 
     38 CB         -3.9662  -14.3835  -40.5856 C.3       7 UNK        -0.1800 
     39 N          -1.6101  -14.8777  -39.9622 N.am      7 UNK        -0.5000 
     40 C          -1.5807  -16.1497  -39.5327 C.2       6 UNK         0.5000 
     41 O          -2.3259  -17.0306  -39.9620 O.2       6 UNK        -0.5000 
     42 CA         -0.5376  -16.4965  -38.4482 C.3       6 UNK         0.1400 
     43 CB          0.0243  -17.9187  -38.6193 C.3       6 UNK        -0.1800 
     44 N           0.5787  -15.5517  -38.4667 N.am      6 UNK        -0.5000 
     45 C           0.7701  -14.5443  -37.6046 C.2       5 UNK         0.5000 
     46 O           0.0450  -14.3290  -36.6333 O.2       5 UNK        -0.5000 
     47 CA          1.9566  -13.5978  -37.8865 C.3       5 UNK         0.1400 
     48 CB          3.1484  -13.9499  -36.9832 C.3       5 UNK        -0.1800 
     49 N           2.4029  -13.6088  -39.2831 N.am      5 UNK        -0.5000 
     50 C           1.6845  -13.1768  -40.3294 C.2       4 UNK         0.5000 
     51 O           0.5602  -12.6854  -40.2314 O.2       4 UNK        -0.5000 
     52 CA          2.2967  -13.4014  -41.7257 C.3       4 UNK         0.1400 
     53 CB          3.1632  -12.2018  -42.1349 C.3       4 UNK        -0.1800 
     54 N           3.0913  -14.6305  -41.8333 N.am      4 UNK        -0.5000 
     55 C           2.6433  -15.8748  -41.6094 C.2       3 UNK         0.5000 
     56 O           1.4887  -16.1271  -41.2565 O.2       3 UNK        -0.5000 
     57 CA          3.6621  -17.0126  -41.8201 C.3       3 UNK         0.1400 
     58 CB          3.0098  -18.4100  -41.8292 C.3       3 UNK        -0.1800 
     59 N           4.4975  -16.8174  -43.0117 N.am      3 UNK        -0.5000 
     60 C           4.0868  -16.7592  -44.2870 C.2       2 UNK         0.5000 
     61 O           2.9074  -16.8472  -44.6417 O.2       2 UNK        -0.5000 
     62 CA          5.1962  -16.5916  -45.3377 C.3       2 UNK         0.1400 
     63 CB          6.1149  -17.8295  -45.3932 C.3       2 UNK        -0.1800 
     64 N           4.6031  -16.3526  -46.6504 N.am      2 UNK        -0.5000 
     65 C           5.2358  -15.8191  -47.7034 C.2       1 UNK         0.5000 
     66 O           6.4095  -15.4439  -47.6618 O.2       1 UNK        -0.5000 
     67 C          -1.9594  -20.2984  -48.5632 C.2       11 UNK         0.5000 
     68 O          -2.1294  -20.9222  -49.6091 O.2       11 UNK        -0.5000 
     69 N          -2.6079  -20.5643  -47.4200 N.am      12 UNK        -0.5000 
     70 CA         -3.5875  -21.6374  -47.2623 C.3       12 UNK         0.1400 
     71 CB         -4.3048  -21.4888  -45.9130 C.3       12 UNK        -0.1800 
     72 C          -2.9532  -23.0312  -47.3967 C.2       12 UNK         0.5000 
     73 O          -3.5628  -23.9113  -48.0032 O.2       12 UNK        -0.5000 
     74 N          -1.7346  -23.1985  -46.8641 N.am      13 UNK        -0.5000 
     75 CA         -0.9490  -24.4265  -46.9830 C.3       13 UNK         0.1400 
     76 CB          0.2769  -24.3504  -46.0609 C.3       13 UNK        -0.1800 
     77 C          -0.5313  -24.7193  -48.4365 C.2       13 UNK         0.5000 
     78 O          -0.7143  -25.8444  -48.9017 O.2       13 UNK        -0.5000 
     79 N          -0.0104  -23.6992  -49.1338 N.am      14 UNK        -0.5000 
     80 CA          0.4218  -23.7728  -50.5308 C.3       14 UNK         0.1400 
     81 CB          1.1798  -22.4889  -50.9026 C.3       14 UNK        -0.1800 
     82 C          -0.7413  -24.0145  -51.5083 C.2       14 UNK         0.5000 
     83 O          -0.5949  -24.8019  -52.4438 O.2       14 UNK        -0.5000 
     84 N          -1.8785  -23.3519  -51.2627 N.am      15 UNK        -0.5000 
     85 CA         -3.0965  -23.4798  -52.0618 C.3       15 UNK         0.1400 
     86 CB         -3.9817  -22.2579  -51.7963 C.3       15 UNK        -0.1800 
     87 C          -3.8924  -24.7687  -51.7766 C.2       15 UNK         0.5000 
     88 O          -4.7841  -25.1023  -52.5566 O.2       15 UNK        -0.5000 
     89 N          -3.5828  -25.4455  -50.6595 N.am      16 UNK        -0.5000 
     90 CA         -4.2893  -26.5980  -50.0916 C.3       16 UNK         0.1400 
     91 CB         -4.1740  -27.8321  -51.0102 C.3       16 UNK        -0.1800 
     92 C          -5.7434  -26.2351  -49.7265 C.2       16 UNK         0.5000 
     93 O          -6.6886  -26.8696  -50.1972 O.2       16 UNK        -0.5000 
     94 N          -5.8806  -25.1662  -48.9296 N.am      17 UNK        -0.5000 
     95 CA         -7.0986  -24.5145  -48.4282 C.3       17 UNK         0.1400 
     96 CB         -7.9788  -25.4948  -47.6304 C.3       17 UNK        -0.1800 
     97 C          -7.9227  -23.7648  -49.4948 C.2       17 UNK         0.5000 
     98 O          -8.5415  -22.7502  -49.1695 O.2       17 UNK        -0.5000 
     99 N          -7.9071  -24.2386  -50.7455 N.am      18 UNK        -0.5000 
    100 CA        -8.5572  -23.6318  -51.9055 C.3       18 UNK         0.1400 
    101 CB        -8.7412  -24.7157  -52.9825 C.3       18 UNK        -0.1800 
    102 C         -7.7487  -22.4237  -52.4182 C.2       18 UNK         0.5000 
    103 O         -7.1321  -22.5053  -53.4800 O.2       18 UNK        -0.5000 
    104 N         -7.7537  -21.3345  -51.6341 N.am      19 UNK        -0.5000 
    105 CA        -6.9401  -20.1139  -51.7574 C.3       19 UNK         0.1400 
    106 CB        -7.4697  -19.0688  -50.7643 C.3       19 UNK        -0.1800 
    107 C         -6.8216  -19.4968  -53.1665 C.2       19 UNK         0.5000 
    108 O         -5.7857  -18.9111  -53.4853 O.2       19 UNK        -0.5000 
    109 N         -7.8607  -19.6706  -53.9944 N.am      20 UNK        -0.5000 
    110 CA        -7.9067  -19.2721  -55.4026 C.3       20 UNK         0.1400 
    111 CB        -9.3117  -19.5611  -55.9522 C.3       20 UNK        -0.1800 
    112 C         -6.8350  -19.9404  -56.2911 C.2       20 UNK         0.5000 
    113 O         -6.4861  -19.3754  -57.3286 O.2       20 UNK        -0.5000 
    114 N         -6.3053  -21.1008  -55.8715 N.am      21 UNK        -0.5000 
    115 CA        -5.2433  -21.8449  -56.5574 C.3       21 UNK         0.1400 
    116 CB        -5.0076  -23.1778  -55.8312 C.3       21 UNK        -0.1800 
    117 C         -3.9172  -21.0691  -56.7007 C.2       21 UNK         0.5000 
    118 O         -3.1649  -21.3378  -57.6384 O.2       21 UNK        -0.5000 
    119 N         -3.6671  -20.1102  -55.7993 N.am      22 UNK        -0.5000 
    120 CA        -2.5496  -19.1556  -55.8875 C.3       22 UNK         0.1400 
    121 C         -2.8159  -17.9560  -56.8481 C.2       22 UNK         0.5000 
    122 N         -3.9900  -17.8123  -57.4528 N.am      22 UNK        -0.7600 
    123 O         -1.9260  -17.1384  -57.0664 O.2       22 UNK        -0.5000 
    124 C124       -2.1034  -18.6654  -54.4867 C.3       23 UNK        -0.0398 
    125 S125       -1.3837  -20.0053  -53.4751 S.3       23 UNK        -0.2404 
    126 C126        0.3896  -19.5574  -53.4734 C.3       23 UNK        -0.0205 
    127 H127        1.9309  -18.7572  -49.6707 H         1 UNK         0.0600 
    128 H128        3.0430  -20.0201  -49.1274 H         1 UNK         0.0600 
    129 H129        3.0424  -19.5089  -50.8150 H         1 UNK         0.0600 
    130 H130        2.5778  -16.6777  -49.2959 H         1 UNK         0.3000 
    131 H131        3.7308  -14.8567  -48.8276 H         1 UNK         0.0600 
    132 H132        6.0344  -14.5634  -49.9767 H         1 UNK         0.0800 
    133 H133        5.8517  -16.1638  -50.6188 H         1 UNK         0.0800 
    134 H134        3.8430  -15.6465  -53.6829 H         1 UNK         0.0800 
    135 H135        4.5504  -16.7652  -52.5457 H         1 UNK         0.0800 
    136 H136        2.7027  -18.1948  -53.6558 H         1 UNK         0.1150 
    137 H137       -1.0829  -18.0379  -51.6377 H         1 UNK         0.1150 
    138 H138        1.7806  -14.9533  -50.9989 H         1 UNK         0.1150 
    139 H139       -0.4637  -14.6667  -50.2383 H         1 UNK         0.0800 
    140 H140       -1.7085  -15.8341  -50.5756 H         1 UNK         0.0800 
    141 H141       -2.2675  -17.6679  -47.6990 H         1 UNK         0.0800 
    142 H142       -2.2579  -17.7386  -49.4350 H         1 UNK         0.0800 
    143 H143       -0.2899  -19.2750  -49.3991 H         1 UNK         0.0600 
    144 H144       -0.1340  -18.6246  -46.6162 H         1 UNK         0.3000 
    145 H145        1.6685  -21.4860  -45.5301 H         1 UNK         0.0600 
    146 H146        3.4915  -19.8154  -45.0277 H         1 UNK         0.0600 
    147 H147        3.5456  -20.4282  -46.6737 H         1 UNK         0.0600 
    148 H148        2.9077  -18.8218  -46.3682 H         1 UNK         0.0600 
    149 H149        1.2547  -18.9072  -44.3679 H         1 UNK         0.3000 
    150 H150       -2.0490  -19.3423  -43.2883 H         1 UNK         0.0600 
    151 H151       -0.9836  -20.9349  -41.6695 H         1 UNK         0.0600 
    152 H152       -1.2546  -19.3550  -40.9593 H         1 UNK         0.0600 
    153 H153        0.3677  -19.8280  -41.4682 H         1 UNK         0.0600 
    154 H154       -0.1775  -17.5158  -42.2981 H         1 UNK         0.3000 
    155 H155        0.7366  -15.6008  -43.8204 H         1 UNK         0.0600 
    156 H156       -0.3838  -13.6322  -44.9023 H         1 UNK         0.0600 
    157 H157       -1.7039  -14.6861  -45.4129 H         1 UNK         0.0600 
    158 H158       -0.0730  -14.9581  -46.0079 H         1 UNK         0.0600 
    159 H159       -0.2342  -14.9639  -41.9445 H         1 UNK         0.3000 
    160 H160       -2.2187  -13.2431  -41.0424 H         1 UNK         0.0600 
    161 H161       -4.3340  -15.4098  -40.5876 H         1 UNK         0.0600 
    162 H162       -4.5908  -13.8139  -41.2747 H         1 UNK         0.0600 
    163 H163       -4.1254  -13.9710  -39.5893 H         1 UNK         0.0600 
    164 H164       -0.9319  -14.2353  -39.5720 H         1 UNK         0.3000 
    165 H165       -1.0538  -16.4539  -37.4873 H         1 UNK         0.0600 
    166 H166        0.4999  -18.0468  -39.5912 H         1 UNK         0.0600 
    167 H167        0.7654  -18.1441  -37.8524 H         1 UNK         0.0600 
    168 H168       -0.7639  -18.6676  -38.5352 H         1 UNK         0.0600 
    169 H169        1.1922  -15.6308  -39.2692 H         1 UNK         0.3000 
    170 H170        1.6302  -12.5840  -37.6453 H         1 UNK         0.0600 
    171 H171        2.8634  -13.9216  -35.9306 H         1 UNK         0.0600 
    172 H172        3.5304  -14.9498  -37.1930 H         1 UNK         0.0600 
    173 H173        3.9669  -13.2420  -37.1152 H         1 UNK         0.0600 
    174 H174        3.3137  -14.0054  -39.4622 H         1 UNK         0.3000 
    175 H175        1.4727  -13.4774  -42.4370 H         1 UNK         0.0600 
    176 H176        4.0302  -12.0894  -41.4827 H         1 UNK         0.0600 
    177 H177        3.5234  -12.3065  -43.1585 H         1 UNK         0.0600 
    178 H178        2.5929  -11.2731  -42.0865 H         1 UNK         0.0600 
    179 H179        4.0501  -14.5184  -42.1287 H         1 UNK         0.3000 
    180 H180        4.3359  -16.9744  -40.9632 H         1 UNK         0.0600 
    181 H181        2.2575  -18.4999  -42.6107 H         1 UNK         0.0600 
    182 H182        2.5208  -18.6179  -40.8773 H         1 UNK         0.0600 
    183 H183        3.7522  -19.1919  -41.9882 H         1 UNK         0.0600 
    184 H184        5.4881  -16.7328  -42.8299 H         1 UNK         0.3000 
    185 H185        5.7847  -15.7171  -45.0525 H         1 UNK         0.0600 
    186 H186        6.9511  -17.6715  -46.0741 H         1 UNK         0.0600 
    187 H187        6.5414  -18.0594  -44.4164 H         1 UNK         0.0600 
    188 H188        5.5778  -18.7140  -45.7343 H         1 UNK         0.0600 
    189 H189        3.6236  -16.5986  -46.7172 H         1 UNK         0.3000 
    190 H190       -2.3728  -20.0356  -46.5922 H         1 UNK         0.3000 
    191 H191       -4.3310  -21.5346  -48.0559 H         1 UNK         0.0600 
    192 H192       -4.8135  -20.5274  -45.8406 H         1 UNK         0.0600 
    193 H193       -5.0595  -22.2660  -45.7857 H         1 UNK         0.0600 
    194 H194       -3.6106  -21.5651  -45.0753 H         1 UNK         0.0600 
    195 H195       -1.3209  -22.4337  -46.3443 H         1 UNK         0.3000 
    196 H196       -1.5748  -25.2540  -46.6420 H         1 UNK         0.0600 
    197 H197        0.8207  -25.2957  -46.0609 H         1 UNK         0.0600 
    198 H198       -0.0138  -24.1407  -45.0312 H         1 UNK         0.0600 
    199 H199        0.9733  -23.5751  -46.3780 H         1 UNK         0.0600 
    200 H200        0.1431  -22.8081  -48.6663 H         1 UNK         0.3000 
    201 H201        1.1128  -24.6133  -50.6223 H         1 UNK         0.0600 
    202 H202        2.0576  -22.3520  -50.2711 H         1 UNK         0.0600 
    203 H203        0.5499  -21.6045  -50.7946 H         1 UNK         0.0600 
    204 H204        1.5260  -22.5255  -51.9360 H         1 UNK         0.0600 
    205 H205       -1.9011  -22.6674  -50.5118 H         1 UNK         0.3000 
    206 H206       -2.8206  -23.4796  -53.1183 H         1 UNK         0.0600 
    207 H207       -3.4373  -21.3254  -51.9334 H         1 UNK         0.0600 
    208 H208       -4.8160  -22.2396  -52.4920 H         1 UNK         0.0600 
    209 H209       -4.3867  -22.2645  -50.7832 H         1 UNK         0.0600 
    210 H210       -2.8475  -25.0638  -50.0791 H         1 UNK         0.3000 
    211 H211       -3.7836  -26.8367  -49.1548 H         1 UNK         0.0600 
    212 H212       -4.6928  -27.6886  -51.9583 H         1 UNK         0.0600 
    213 H213       -4.6071  -28.7118  -50.5329 H         1 UNK         0.0600 
    214 H214       -3.1314  -28.0615  -51.2301 H         1 UNK         0.0600 
    215 H215       -5.0166  -24.7110  -48.6344 H         1 UNK         0.3000 
    216 H216       -6.7459  -23.7543  -47.7294 H         1 UNK         0.0600 
    217 H217       -7.4088  -25.9831  -46.8400 H         1 UNK         0.0600 
    218 H218       -8.4068  -26.2705  -48.2657 H         1 UNK         0.0600 
    219 H219       -8.8094  -24.9710  -47.1558 H         1 UNK         0.0600 
    220 H220       -7.3797  -25.0876  -50.9157 H         1 UNK         0.3000 
    221 H221       -9.5475  -23.2743  -51.6157 H         1 UNK         0.0600 
    222 H222       -7.7850  -25.1395  -53.2937 H         1 UNK         0.0600 
    223 H223       -9.3649  -25.5318  -52.6174 H         1 UNK         0.0600 
    224 H224       -9.2256  -24.3075  -53.8704 H         1 UNK         0.0600 
    225 H225       -8.2692  -21.4210  -50.7652 H         1 UNK         0.3000 
    226 H226       -5.9298  -20.3737  -51.4439 H         1 UNK         0.0600 
    227 H227       -6.8744  -18.1552  -50.8001 H         1 UNK         0.0600 
    228 H228       -8.5032  -18.7971  -50.9821 H         1 UNK         0.0600 
    229 H229       -7.4285  -19.4407  -49.7403 H         1 UNK         0.0600 
    230 H230       -8.6559  -20.1857  -53.6472 H         1 UNK         0.3000 
    231 H231       -7.7358  -18.1946  -55.4455 H         1 UNK         0.0600 
    232 H232       -9.3962  -19.2499  -56.9943 H         1 UNK         0.0600 
    233 H233      -10.0747  -19.0214  -55.3910 H         1 UNK         0.0600 
    234 H234       -9.5489  -20.6249  -55.9068 H         1 UNK         0.0600 
    235 H235       -6.6462  -21.5096  -55.0038 H         1 UNK         0.3000 
    236 H236       -5.5994  -22.0660  -57.5654 H         1 UNK         0.0600 
    237 H237       -4.6688  -23.0207  -54.8073 H         1 UNK         0.0600 
    238 H238       -4.2499  -23.7749  -56.3400 H         1 UNK         0.0600 
    239 H239       -5.9194  -23.7740  -55.7915 H         1 UNK         0.0600 
    240 H240       -4.3428  -19.9398  -55.0660 H         1 UNK         0.3000 
    241 H241       -1.6963  -19.6776  -56.3248 H         1 UNK         0.0600 
    242 H242       -4.1264  -17.0306  -58.0737 H         1 UNK         0.3800 
    243 H243       -4.7469  -18.4746  -57.3184 H         1 UNK         0.3800 
    244 H244       -2.9506  -18.2401  -53.9462 H         1 UNK         0.0800 
    245 H245       -1.3698  -17.8620  -54.5713 H         1 UNK         0.0800 
    246 H246        0.9464  -20.3718  -53.0108 H         1 UNK         0.0800 
    247 H247        0.7280  -19.5038  -54.5093 H         1 UNK         0.0800 
@<TRIPOS>BOND
     1    1    2 1    
     2    1  127 1    
     3    1  128 1    
     4    1  129 1    
     5    2    3 2    
     6    2    4 am   BACKBONE|DICT|INTERRES
     7    4    5 1    
     8    4  130 1    
     9    5    6 1    
    10    5   65 1    
    11    5  131 1    
    12    6    7 1    
    13    6  132 1    
    14    6  133 1    
    15    7    8 1    
    16    8    9 1    
    17    8  134 1    
    18    8  135 1    
    19    9   10 ar   
    20    9   14 ar   
    21   10   11 ar   
    22   10  136 1    
    23   11   12 ar   
    24   11  126 1    
    25   12   13 ar   
    26   12  137 1    
    27   13   14 ar   
    28   13   15 1    
    29   14  138 1    
    30   15   16 1    
    31   15  139 1    
    32   15  140 1    
    33   16   17 1    
    34   17   18 1    
    35   17  141 1    
    36   17  142 1    
    37   18   19 1    
    38   18   67 1    
    39   18  143 1    
    40   19   20 am   BACKBONE|DICT|INTERRES
    41   19  144 1    
    42   20   21 2    
    43   20   22 1    
    44   22   23 1    
    45   22   24 1    
    46   22  145 1    
    47   23  146 1    
    48   23  147 1    
    49   23  148 1    
    50   24   25 am   BACKBONE|DICT|INTERRES
    51   24  149 1    
    52   25   26 2    
    53   25   27 1    
    54   27   28 1    
    55   27   29 1    
    56   27  150 1    
    57   28  151 1    
    58   28  152 1    
    59   28  153 1    
    60   29   30 am   BACKBONE|DICT|INTERRES
    61   29  154 1    
    62   30   31 2    
    63   30   32 1    
    64   32   33 1    
    65   32   34 1    
    66   32  155 1    
    67   33  156 1    
    68   33  157 1    
    69   33  158 1    
    70   34   35 am   BACKBONE|DICT|INTERRES
    71   34  159 1    
    72   35   36 2    
    73   35   37 1    
    74   37   38 1    
    75   37   39 1    
    76   37  160 1    
    77   38  161 1    
    78   38  162 1    
    79   38  163 1    
    80   39   40 am   BACKBONE|DICT|INTERRES
    81   39  164 1    
    82   40   41 2    
    83   40   42 1    
    84   42   43 1    
    85   42   44 1    
    86   42  165 1    
    87   43  166 1    
    88   43  167 1    
    89   43  168 1    
    90   44   45 am   BACKBONE|DICT|INTERRES
    91   44  169 1    
    92   45   46 2    
    93   45   47 1    
    94   47   48 1    
    95   47   49 1    
    96   47  170 1    
    97   48  171 1    
    98   48  172 1    
    99   48  173 1    
   100   49   50 am   BACKBONE|DICT|INTERRES
   101   49  174 1    
   102   50   51 2    
   103   50   52 1    
   104   52   53 1    
   105   52   54 1    
   106   52  175 1    
   107   53  176 1    
   108   53  177 1    
   109   53  178 1    
   110   54   55 am   BACKBONE|DICT|INTERRES
   111   54  179 1    
   112   55   56 2    
   113   55   57 1    
   114   57   58 1    
   115   57   59 1    
   116   57  180 1    
   117   58  181 1    
   118   58  182 1    
   119   58  183 1    
   120   59   60 am   BACKBONE|DICT|INTERRES
   121   59  184 1    
   122   60   61 2    
   123   60   62 1    
   124   62   63 1    
   125   62   64 1    
   126   62  185 1    
   127   63  186 1    
   128   63  187 1    
   129   63  188 1    
   130   64   65 am   BACKBONE|DICT|INTERRES
   131   64  189 1    
   132   65   66 2    
   133   67   68 2    
   134   67   69 am   BACKBONE|DICT|INTERRES
   135   69   70 1    
   136   69  190 1    
   137   70   71 1    
   138   70   72 1    
   139   70  191 1    
   140   71  192 1    
   141   71  193 1    
   142   71  194 1    
   143   72   73 2    
   144   72   74 am   BACKBONE|DICT|INTERRES
   145   74   75 1    
   146   74  195 1    
   147   75   76 1    
   148   75   77 1    
   149   75  196 1    
   150   76  197 1    
   151   76  198 1    
   152   76  199 1    
   153   77   78 2    
   154   77   79 am   BACKBONE|DICT|INTERRES
   155   79   80 1    
   156   79  200 1    
   157   80   81 1    
   158   80   82 1    
   159   80  201 1    
   160   81  202 1    
   161   81  203 1    
   162   81  204 1    
   163   82   83 2    
   164   82   84 am   BACKBONE|DICT|INTERRES
   165   84   85 1    
   166   84  205 1    
   167   85   86 1    
   168   85   87 1    
   169   85  206 1    
   170   86  207 1    
   171   86  208 1    
   172   86  209 1    
   173   87   88 2    
   174   87   89 am   BACKBONE|DICT|INTERRES
   175   89   90 1    
   176   89  210 1    
   177   90   91 1    
   178   90   92 1    
   179   90  211 1    
   180   91  212 1    
   181   91  213 1    
   182   91  214 1    
   183   92   93 2    
   184   92   94 am   BACKBONE|DICT|INTERRES
   185   94   95 1    
   186   94  215 1    
   187   95   96 1    
   188   95   97 1    
   189   95  216 1    
   190   96  217 1    
   191   96  218 1    
   192   96  219 1    
   193   97   98 2    
   194   97   99 am   BACKBONE|DICT|INTERRES
   195   99  100 1    
   196   99  220 1    
   197  100  101 1    
   198  100  102 1    
   199  100  221 1    
   200  101  222 1    
   201  101  223 1    
   202  101  224 1    
   203  102  103 2    
   204  102  104 am   BACKBONE|DICT|INTERRES
   205  104  105 1    
   206  104  225 1    
   207  105  106 1    
   208  105  107 1    
   209  105  226 1    
   210  106  227 1    
   211  106  228 1    
   212  106  229 1    
   213  107  108 2    
   214  107  109 am   BACKBONE|DICT|INTERRES
   215  109  110 1    
   216  109  230 1    
   217  110  111 1    
   218  110  112 1    
   219  110  231 1    
   220  111  232 1    
   221  111  233 1    
   222  111  234 1    
   223  112  113 2    
   224  112  114 am   BACKBONE|DICT|INTERRES
   225  114  115 1    
   226  114  235 1    
   227  115  116 1    
   228  115  117 1    
   229  115  236 1    
   230  116  237 1    
   231  116  238 1    
   232  116  239 1    
   233  117  118 2    
   234  117  119 am   BACKBONE|DICT|INTERRES
   235  119  120 1    
   236  119  240 1    
   237  120  121 1    
   238  120  124 1    
   239  120  241 1    
   240  121  122 am   BACKBONE|DICT|INTERRES
   241  121  123 2    
   242  122  242 1    
   243  122  243 1    
   244  124  125 1    
   245  124  244 1    
   246  124  245 1    
   247  125  126 1    
   248  126  246 1    
   249  126  247 1    
@<TRIPOS>SUBSTRUCTURE
     1 UNK         1 GROUP             0       ****    0 ROOT    
