@<TRIPOS>MOLECULE
3R540
247   249    1
SMALL
USER_CHARGES


@<TRIPOS>ATOM
      1 CA         -1.0341  -16.1207  -46.1112 C.3       0 UNK        -0.1800 
      2 C          -0.6186  -15.5122  -47.4393 C.2       0 UNK         0.5000 
      3 O           0.5150  -15.0546  -47.5837 O.2       0 UNK        -0.5000 
      4 N          -1.5480  -15.4910  -48.4027 N.am      1 UNK        -0.5000 
      5 CA         -1.4362  -14.9563  -49.7699 C.3       1 UNK         0.1400 
      6 C6         -0.2918  -15.5617  -50.6263 C.3       23 UNK        -0.0398 
      7 S7         -0.2826  -17.3897  -50.6959 S.3       23 UNK        -0.2404 
      8 C8          1.3240  -17.7212  -49.8904 C.3       23 UNK        -0.0205 
      9 C9          1.9019  -19.1258  -50.0611 C.ar      23 UNK        -0.0193 
     10 C10         1.4254  -20.0513  -51.0017 C.ar      23 UNK        -0.1150 
     11 C11         2.0402  -21.3003  -51.1433 C.ar      23 UNK        -0.0193 
     12 C12         3.1435  -21.6188  -50.3493 C.ar      23 UNK        -0.1150 
     13 C13         3.6248  -20.7121  -49.4048 C.ar      23 UNK        -0.0193 
     14 C14         2.9979  -19.4724  -49.2648 C.ar      23 UNK        -0.1150 
     15 C15         4.8348  -21.0657  -48.5535 C.3       23 UNK        -0.0205 
     16 S16         4.5007  -22.4407  -47.4084 S.3       23 UNK        -0.2404 
     17 C17         3.2809  -21.6976  -46.2750 C.3       23 UNK        -0.0398 
     18 CA          2.0158  -22.5739  -46.1086 C.3       11 UNK         0.1400 
     19 N           1.3783  -22.3484  -44.8074 N.am      11 UNK        -0.5000 
     20 C           0.4298  -23.1330  -44.2778 C.2       10 UNK         0.5000 
     21 O           0.0272  -24.1664  -44.8097 O.2       10 UNK        -0.5000 
     22 CA         -0.1989  -22.6718  -42.9505 C.3       10 UNK         0.1400 
     23 CB          0.6807  -23.0814  -41.7598 C.3       10 UNK        -0.1800 
     24 N          -0.4362  -21.2288  -42.9144 N.am      10 UNK        -0.5000 
     25 C          -1.3153  -20.5840  -43.6950 C.2       9 UNK         0.5000 
     26 O          -2.0762  -21.1488  -44.4808 O.2       9 UNK        -0.5000 
     27 CA         -1.3175  -19.0459  -43.6152 C.3       9 UNK         0.1400 
     28 CB         -2.1733  -18.5575  -42.4379 C.3       9 UNK        -0.1800 
     29 N           0.0260  -18.4714  -43.5150 N.am      9 UNK        -0.5000 
     30 C           0.9907  -18.6065  -44.4369 C.2       8 UNK         0.5000 
     31 O           0.8502  -19.2198  -45.4925 O.2       8 UNK        -0.5000 
     32 CA          2.3619  -18.0020  -44.1003 C.3       8 UNK         0.1400 
     33 CB          2.3719  -16.4830  -44.3311 C.3       8 UNK        -0.1800 
     34 N           2.7583  -18.3080  -42.7269 N.am      8 UNK        -0.5000 
     35 C           3.0637  -19.5390  -42.2910 C.2       7 UNK         0.5000 
     36 O           3.0859  -20.5354  -43.0139 O.2       7 UNK        -0.5000 
     37 CA          3.3444  -19.6853  -40.7849 C.3       7 UNK         0.1400 
     38 CB          4.7930  -19.2909  -40.4608 C.3       7 UNK        -0.1800 
     39 N           2.4278  -18.8889  -39.9676 N.am      7 UNK        -0.5000 
     40 C           1.1099  -19.1155  -39.8721 C.2       6 UNK         0.5000 
     41 O           0.5332  -20.0438  -40.4366 O.2       6 UNK        -0.5000 
     42 CA          0.2931  -18.1073  -39.0440 C.3       6 UNK         0.1400 
     43 CB          0.3023  -18.4956  -37.5581 C.3       6 UNK        -0.1800 
     44 N           0.7589  -16.7254  -39.1900 N.am      6 UNK        -0.5000 
     45 C           0.7474  -16.0366  -40.3386 C.2       5 UNK         0.5000 
     46 O           0.3889  -16.5098  -41.4193 O.2       5 UNK        -0.5000 
     47 CA          1.2780  -14.5940  -40.2771 C.3       5 UNK         0.1400 
     48 CB          2.7487  -14.5497  -40.7204 C.3       5 UNK        -0.1800 
     49 N           0.5018  -13.6820  -41.1169 N.am      5 UNK        -0.5000 
     50 C          -0.7795  -13.3436  -40.9111 C.2       4 UNK         0.5000 
     51 O          -1.4472  -13.7635  -39.9644 O.2       4 UNK        -0.5000 
     52 CA         -1.4204  -12.3469  -41.8991 C.3       4 UNK         0.1400 
     53 CB         -1.9068  -11.0880  -41.1604 C.3       4 UNK        -0.1800 
     54 N          -0.4949  -11.9309  -42.9579 N.am      4 UNK        -0.5000 
     55 C          -0.5368  -12.3615  -44.2231 C.2       3 UNK         0.5000 
     56 O          -1.3701  -13.1608  -44.6569 O.2       3 UNK        -0.5000 
     57 CA          0.5506  -11.8140  -45.1567 C.3       3 UNK         0.1400 
     58 CB          1.8571  -12.6131  -45.0054 C.3       3 UNK        -0.1800 
     59 N           0.0787  -11.9073  -46.5327 N.am      3 UNK        -0.5000 
     60 C           0.4189  -11.0912  -47.5367 C.2       2 UNK         0.5000 
     61 O           1.1930  -10.1415  -47.4045 O.2       2 UNK        -0.5000 
     62 CA         -0.1977  -11.3991  -48.9154 C.3       2 UNK         0.1400 
     63 CB          0.6635  -10.8897  -50.0878 C.3       2 UNK        -0.1800 
     64 N          -0.4313  -12.8346  -49.0591 N.am      2 UNK        -0.5000 
     65 C          -1.3830  -13.4134  -49.7970 C.2       1 UNK         0.5000 
     66 O          -2.2038  -12.7867  -50.4681 O.2       1 UNK        -0.5000 
     67 C           1.0109  -22.4000  -47.2711 C.2       11 UNK         0.5000 
     68 O           0.9595  -23.2370  -48.1742 O.2       11 UNK        -0.5000 
     69 N           0.1642  -21.3646  -47.1751 N.am      12 UNK        -0.5000 
     70 CA         -0.9118  -21.0385  -48.1122 C.3       12 UNK         0.1400 
     71 CB         -1.4571  -19.6376  -47.8023 C.3       12 UNK        -0.1800 
     72 C          -2.0577  -22.0666  -48.1771 C.2       12 UNK         0.5000 
     73 O          -2.9360  -21.9181  -49.0273 O.2       12 UNK        -0.5000 
     74 N          -2.0340  -23.1228  -47.3503 N.am      13 UNK        -0.5000 
     75 CA         -2.9070  -24.2949  -47.4793 C.3       13 UNK         0.1400 
     76 CB         -2.6363  -25.2719  -46.3282 C.3       13 UNK        -0.1800 
     77 C          -2.7469  -25.0033  -48.8417 C.2       13 UNK         0.5000 
     78 O          -3.7318  -25.4959  -49.3906 O.2       13 UNK        -0.5000 
     79 N          -1.5310  -24.9549  -49.4066 N.am      14 UNK        -0.5000 
     80 CA         -1.2085  -25.3992  -50.7659 C.3       14 UNK         0.1400 
     81 CB          0.2993  -25.6839  -50.8422 C.3       14 UNK        -0.1800 
     82 C          -1.6778  -24.4250  -51.8747 C.2       14 UNK         0.5000 
     83 O          -1.5118  -24.7310  -53.0566 O.2       14 UNK        -0.5000 
     84 N          -2.2692  -23.2871  -51.4860 N.am      15 UNK        -0.5000 
     85 CA         -3.0146  -22.3592  -52.3380 C.3       15 UNK         0.1400 
     86 CB         -2.4025  -20.9498  -52.2131 C.3       15 UNK        -0.1800 
     87 C          -4.5118  -22.3608  -51.9595 C.2       15 UNK         0.5000 
     88 O          -5.2098  -21.3854  -52.2350 O.2       15 UNK        -0.5000 
     89 N          -4.9806  -23.4327  -51.2985 N.am      16 UNK        -0.5000 
     90 CA         -6.3441  -23.6339  -50.7924 C.3       16 UNK         0.1400 
     91 CB         -7.3487  -23.7425  -51.9600 C.3       16 UNK        -0.1800 
     92 C          -6.7511  -22.5770  -49.7432 C.2       16 UNK         0.5000 
     93 O          -7.8703  -22.0681  -49.7822 O.2       16 UNK        -0.5000 
     94 N          -5.8112  -22.2377  -48.8482 N.am      17 UNK        -0.5000 
     95 CA         -5.8798  -21.1543  -47.8578 C.3       17 UNK         0.1400 
     96 CB         -7.0077  -21.3904  -46.8317 C.3       17 UNK        -0.1800 
     97 C          -5.9395  -19.7703  -48.5378 C.2       17 UNK         0.5000 
     98 O          -6.6822  -18.8897  -48.1019 O.2       17 UNK        -0.5000 
     99 N          -5.1595  -19.6338  -49.6205 N.am      18 UNK        -0.5000 
    100 CA        -5.0589  -18.4871  -50.5298 C.3       18 UNK         0.1400 
    101 CB        -4.5088  -17.2482  -49.7957 C.3       18 UNK        -0.1800 
    102 C         -6.3463  -18.1836  -51.3301 C.2       18 UNK         0.5000 
    103 O         -6.4729  -17.0873  -51.8787 O.2       18 UNK        -0.5000 
    104 N         -7.2724  -19.1496  -51.4124 N.am      19 UNK        -0.5000 
    105 CA        -8.4856  -19.0581  -52.2282 C.3       19 UNK         0.1400 
    106 CB        -9.5482  -20.0153  -51.6689 C.3       19 UNK        -0.1800 
    107 C         -8.2218  -19.3648  -53.7152 C.2       19 UNK         0.5000 
    108 O         -9.0175  -18.9587  -54.5637 O.2       19 UNK        -0.5000 
    109 N         -7.1264  -20.0753  -54.0030 N.am      20 UNK        -0.5000 
    110 CA        -6.6662  -20.4484  -55.3353 C.3       20 UNK         0.1400 
    111 CB        -6.8019  -21.9762  -55.4775 C.3       20 UNK        -0.1800 
    112 C         -5.2084  -19.9911  -55.5222 C.2       20 UNK         0.5000 
    113 O         -4.6371  -19.3419  -54.6423 O.2       20 UNK        -0.5000 
    114 N         -4.6222  -20.3410  -56.6728 N.am      21 UNK        -0.5000 
    115 CA        -3.1880  -20.2138  -56.9283 C.3       21 UNK         0.1400 
    116 CB        -2.9410  -20.3103  -58.4418 C.3       21 UNK        -0.1800 
    117 C         -2.4072  -21.3127  -56.1821 C.2       21 UNK         0.5000 
    118 O         -2.9387  -22.4072  -55.9803 O.2       21 UNK        -0.5000 
    119 N         -1.1605  -21.0055  -55.8061 N.am      22 UNK        -0.5000 
    120 CA        -0.2206  -21.9321  -55.1584 C.3       22 UNK         0.1400 
    121 C          0.1305  -23.1423  -56.0719 C.2       22 UNK         0.5000 
    122 N         -0.1295  -24.3642  -55.6244 N.am      22 UNK        -0.7600 
    123 O          0.6540  -22.9748  -57.1710 O.2       22 UNK        -0.5000 
    124 C124        1.0311  -21.1579  -54.6600 C.3       23 UNK        -0.0398 
    125 S125        2.2595  -22.1783  -53.7744 S.3       23 UNK        -0.2404 
    126 C126        1.5109  -22.3310  -52.1263 C.3       23 UNK        -0.0205 
    127 H127       -0.4214  -15.7313  -45.2983 H         1 UNK         0.0600 
    128 H128       -0.9112  -17.2000  -46.1508 H         1 UNK         0.0600 
    129 H129       -2.0764  -15.8988  -45.8820 H         1 UNK         0.0600 
    130 H130       -2.4600  -15.8631  -48.1817 H         1 UNK         0.3000 
    131 H131       -2.3698  -15.2313  -50.2597 H         1 UNK         0.0600 
    132 H132        0.6753  -15.2030  -50.2719 H         1 UNK         0.0800 
    133 H133       -0.3743  -15.2045  -51.6542 H         1 UNK         0.0800 
    134 H134        2.0645  -17.0227  -50.2820 H         1 UNK         0.0800 
    135 H135        1.2228  -17.5026  -48.8264 H         1 UNK         0.0800 
    136 H136        0.5824  -19.8070  -51.6294 H         1 UNK         0.1150 
    137 H137        3.6233  -22.5817  -50.4556 H         1 UNK         0.1150 
    138 H138        3.3756  -18.7628  -48.5418 H         1 UNK         0.1150 
    139 H139        5.6582  -21.3484  -49.2109 H         1 UNK         0.0800 
    140 H140        5.1813  -20.2011  -47.9852 H         1 UNK         0.0800 
    141 H141        3.0247  -20.6813  -46.5783 H         1 UNK         0.0800 
    142 H142        3.7915  -21.5966  -45.3170 H         1 UNK         0.0800 
    143 H143        2.3299  -23.6202  -46.1138 H         1 UNK         0.0600 
    144 H144        1.6801  -21.5313  -44.2891 H         1 UNK         0.3000 
    145 H145       -1.1633  -23.1738  -42.8482 H         1 UNK         0.0600 
    146 H146        0.1998  -22.8354  -40.8129 H         1 UNK         0.0600 
    147 H147        0.8652  -24.1563  -41.7612 H         1 UNK         0.0600 
    148 H148        1.6491  -22.5808  -41.7823 H         1 UNK         0.0600 
    149 H149        0.0996  -20.6960  -42.2359 H         1 UNK         0.3000 
    150 H150       -1.7705  -18.6719  -44.5341 H         1 UNK         0.0600 
    151 H151       -3.1961  -18.9271  -42.5194 H         1 UNK         0.0600 
    152 H152       -2.2207  -17.4685  -42.4097 H         1 UNK         0.0600 
    153 H153       -1.7758  -18.9000  -41.4828 H         1 UNK         0.0600 
    154 H154        0.2178  -17.9077  -42.6906 H         1 UNK         0.3000 
    155 H155        3.0976  -18.4488  -44.7727 H         1 UNK         0.0600 
    156 H156        2.1355  -16.2496  -45.3702 H         1 UNK         0.0600 
    157 H157        1.6400  -15.9690  -43.7081 H         1 UNK         0.0600 
    158 H158        3.3525  -16.0570  -44.1192 H         1 UNK         0.0600 
    159 H159        2.7077  -17.5544  -42.0586 H         1 UNK         0.3000 
    160 H160        3.2090  -20.7366  -40.5215 H         1 UNK         0.0600 
    161 H161        4.9845  -18.2391  -40.6774 H         1 UNK         0.0600 
    162 H162        5.4981  -19.8809  -41.0480 H         1 UNK         0.0600 
    163 H163        5.0226  -19.4645  -39.4094 H         1 UNK         0.0600 
    164 H164        2.8202  -18.1048  -39.4680 H         1 UNK         0.3000 
    165 H165       -0.7385  -18.1486  -39.3986 H         1 UNK         0.0600 
    166 H166       -0.3462  -17.8412  -36.9753 H         1 UNK         0.0600 
    167 H167       -0.0590  -19.5156  -37.4193 H         1 UNK         0.0600 
    168 H168        1.3050  -18.4417  -37.1324 H         1 UNK         0.0600 
    169 H169        1.0782  -16.2689  -38.3477 H         1 UNK         0.3000 
    170 H170        1.2144  -14.2383  -39.2466 H         1 UNK         0.0600 
    171 H171        2.8677  -14.8615  -41.7585 H         1 UNK         0.0600 
    172 H172        3.1586  -13.5441  -40.6248 H         1 UNK         0.0600 
    173 H173        3.3642  -15.2087  -40.1067 H         1 UNK         0.0600 
    174 H174        0.9613  -13.3245  -41.9393 H         1 UNK         0.3000 
    175 H175       -2.2932  -12.8427  -42.3290 H         1 UNK         0.0600 
    176 H176       -2.3910  -10.3924  -41.8460 H         1 UNK         0.0600 
    177 H177       -1.0838  -10.5625  -40.6746 H         1 UNK         0.0600 
    178 H178       -2.6364  -11.3402  -40.3897 H         1 UNK         0.0600 
    179 H179        0.2167  -11.2659  -42.6883 H         1 UNK         0.3000 
    180 H180        0.7280  -10.7674  -44.8996 H         1 UNK         0.0600 
    181 H181        2.6391  -12.2160  -45.6527 H         1 UNK         0.0600 
    182 H182        1.7139  -13.6631  -45.2635 H         1 UNK         0.0600 
    183 H183        2.2321  -12.5720  -43.9823 H         1 UNK         0.0600 
    184 H184       -0.6125  -12.6307  -46.6840 H         1 UNK         0.3000 
    185 H185       -1.1576  -10.8796  -48.9413 H         1 UNK         0.0600 
    186 H186        0.8154   -9.8114  -50.0267 H         1 UNK         0.0600 
    187 H187        1.6460  -11.3628  -50.0951 H         1 UNK         0.0600 
    188 H188        0.1871  -11.0922  -51.0471 H         1 UNK         0.0600 
    189 H189        0.1757  -13.4451  -48.5148 H         1 UNK         0.3000 
    190 H190        0.3040  -20.6993  -46.4172 H         1 UNK         0.3000 
    191 H191       -0.4726  -21.0099  -49.1103 H         1 UNK         0.0600 
    192 H192       -0.6636  -18.8925  -47.8472 H         1 UNK         0.0600 
    193 H193       -2.2154  -19.3417  -48.5277 H         1 UNK         0.0600 
    194 H194       -1.9104  -19.5924  -46.8125 H         1 UNK         0.0600 
    195 H195       -1.2968  -23.1787  -46.6605 H         1 UNK         0.3000 
    196 H196       -3.9400  -23.9526  -47.3972 H         1 UNK         0.0600 
    197 H197       -3.3211  -26.1199  -46.3672 H         1 UNK         0.0600 
    198 H198       -2.7707  -24.7886  -45.3602 H         1 UNK         0.0600 
    199 H199       -1.6210  -25.6681  -46.3682 H         1 UNK         0.0600 
    200 H200       -0.7797  -24.5045  -48.8960 H         1 UNK         0.3000 
    201 H201       -1.7295  -26.3403  -50.9536 H         1 UNK         0.0600 
    202 H202        0.5519  -26.5757  -50.2684 H         1 UNK         0.0600 
    203 H203        0.8833  -24.8615  -50.4324 H         1 UNK         0.0600 
    204 H204        0.6302  -25.8562  -51.8673 H         1 UNK         0.0600 
    205 H205       -2.3486  -23.0944  -50.4938 H         1 UNK         0.3000 
    206 H206       -2.9600  -22.6729  -53.3801 H         1 UNK         0.0600 
    207 H207       -1.3519  -20.9405  -52.4892 H         1 UNK         0.0600 
    208 H208       -2.9036  -20.2444  -52.8751 H         1 UNK         0.0600 
    209 H209       -2.4798  -20.5562  -51.2002 H         1 UNK         0.0600 
    210 H210       -4.3336  -24.1797  -51.0800 H         1 UNK         0.3000 
    211 H211       -6.3399  -24.5924  -50.2717 H         1 UNK         0.0600 
    212 H212       -7.4599  -22.7973  -52.4919 H         1 UNK         0.0600 
    213 H213       -8.3369  -24.0296  -51.5990 H         1 UNK         0.0600 
    214 H214       -7.0354  -24.4970  -52.6813 H         1 UNK         0.0600 
    215 H215       -4.8905  -22.6431  -48.9608 H         1 UNK         0.3000 
    216 H216       -4.9376  -21.1797  -47.3088 H         1 UNK         0.0600 
    217 H217       -6.9483  -20.6666  -46.0181 H         1 UNK         0.0600 
    218 H218       -6.9350  -22.3833  -46.3881 H         1 UNK         0.0600 
    219 H219       -7.9968  -21.2930  -47.2794 H         1 UNK         0.0600 
    220 H220       -4.6023  -20.4360  -49.8837 H         1 UNK         0.3000 
    221 H221       -4.3192  -18.7701  -51.2797 H         1 UNK         0.0600 
    222 H222       -5.1998  -16.8830  -49.0360 H         1 UNK         0.0600 
    223 H223       -3.5586  -17.4710  -49.3120 H         1 UNK         0.0600 
    224 H224       -4.3342  -16.4303  -50.4943 H         1 UNK         0.0600 
    225 H225       -7.0981  -20.0320  -50.9500 H         1 UNK         0.3000 
    226 H226       -8.8806  -18.0423  -52.1609 H         1 UNK         0.0600 
    227 H227       -9.7207  -19.8415  -50.6065 H         1 UNK         0.0600 
    228 H228      -10.5014  -19.8795  -52.1811 H         1 UNK         0.0600 
    229 H229       -9.2568  -21.0581  -51.7970 H         1 UNK         0.0600 
    230 H230       -6.4882  -20.3284  -53.2522 H         1 UNK         0.3000 
    231 H231       -7.2678  -19.9597  -56.1040 H         1 UNK         0.0600 
    232 H232       -6.1373  -22.5026  -54.7907 H         1 UNK         0.0600 
    233 H233       -6.5608  -22.3080  -56.4876 H         1 UNK         0.0600 
    234 H234       -7.8211  -22.3017  -55.2684 H         1 UNK         0.0600 
    235 H235       -5.1429  -20.8965  -57.3352 H         1 UNK         0.3000 
    236 H236       -2.8491  -19.2355  -56.5802 H         1 UNK         0.0600 
    237 H237       -3.4766  -19.5279  -58.9799 H         1 UNK         0.0600 
    238 H238       -1.8812  -20.1959  -58.6730 H         1 UNK         0.0600 
    239 H239       -3.2612  -21.2733  -58.8418 H         1 UNK         0.0600 
    240 H240       -0.7924  -20.0961  -56.0434 H         1 UNK         0.3000 
    241 H241       -0.7293  -22.3263  -54.2792 H         1 UNK         0.0600 
    242 H242       -0.5959  -24.5105  -54.7321 H         1 UNK         0.3800 
    243 H243        0.0976  -25.1592  -56.1998 H         1 UNK         0.3800 
    244 H244        0.7297  -20.3379  -54.0073 H         1 UNK         0.0800 
    245 H245        1.5406  -20.6933  -55.5057 H         1 UNK         0.0800 
    246 H246        1.7492  -23.3277  -51.7604 H         1 UNK         0.0800 
    247 H247        0.4258  -22.2860  -52.1829 H         1 UNK         0.0800 
@<TRIPOS>BOND
     1    1    2 1    
     2    1  127 1    
     3    1  128 1    
     4    1  129 1    
     5    2    3 2    
     6    2    4 am   BACKBONE|DICT|INTERRES
     7    4    5 1    
     8    4  130 1    
     9    5    6 1    
    10    5   65 1    
    11    5  131 1    
    12    6    7 1    
    13    6  132 1    
    14    6  133 1    
    15    7    8 1    
    16    8    9 1    
    17    8  134 1    
    18    8  135 1    
    19    9   10 ar   
    20    9   14 ar   
    21   10   11 ar   
    22   10  136 1    
    23   11   12 ar   
    24   11  126 1    
    25   12   13 ar   
    26   12  137 1    
    27   13   14 ar   
    28   13   15 1    
    29   14  138 1    
    30   15   16 1    
    31   15  139 1    
    32   15  140 1    
    33   16   17 1    
    34   17   18 1    
    35   17  141 1    
    36   17  142 1    
    37   18   19 1    
    38   18   67 1    
    39   18  143 1    
    40   19   20 am   BACKBONE|DICT|INTERRES
    41   19  144 1    
    42   20   21 2    
    43   20   22 1    
    44   22   23 1    
    45   22   24 1    
    46   22  145 1    
    47   23  146 1    
    48   23  147 1    
    49   23  148 1    
    50   24   25 am   BACKBONE|DICT|INTERRES
    51   24  149 1    
    52   25   26 2    
    53   25   27 1    
    54   27   28 1    
    55   27   29 1    
    56   27  150 1    
    57   28  151 1    
    58   28  152 1    
    59   28  153 1    
    60   29   30 am   BACKBONE|DICT|INTERRES
    61   29  154 1    
    62   30   31 2    
    63   30   32 1    
    64   32   33 1    
    65   32   34 1    
    66   32  155 1    
    67   33  156 1    
    68   33  157 1    
    69   33  158 1    
    70   34   35 am   BACKBONE|DICT|INTERRES
    71   34  159 1    
    72   35   36 2    
    73   35   37 1    
    74   37   38 1    
    75   37   39 1    
    76   37  160 1    
    77   38  161 1    
    78   38  162 1    
    79   38  163 1    
    80   39   40 am   BACKBONE|DICT|INTERRES
    81   39  164 1    
    82   40   41 2    
    83   40   42 1    
    84   42   43 1    
    85   42   44 1    
    86   42  165 1    
    87   43  166 1    
    88   43  167 1    
    89   43  168 1    
    90   44   45 am   BACKBONE|DICT|INTERRES
    91   44  169 1    
    92   45   46 2    
    93   45   47 1    
    94   47   48 1    
    95   47   49 1    
    96   47  170 1    
    97   48  171 1    
    98   48  172 1    
    99   48  173 1    
   100   49   50 am   BACKBONE|DICT|INTERRES
   101   49  174 1    
   102   50   51 2    
   103   50   52 1    
   104   52   53 1    
   105   52   54 1    
   106   52  175 1    
   107   53  176 1    
   108   53  177 1    
   109   53  178 1    
   110   54   55 am   BACKBONE|DICT|INTERRES
   111   54  179 1    
   112   55   56 2    
   113   55   57 1    
   114   57   58 1    
   115   57   59 1    
   116   57  180 1    
   117   58  181 1    
   118   58  182 1    
   119   58  183 1    
   120   59   60 am   BACKBONE|DICT|INTERRES
   121   59  184 1    
   122   60   61 2    
   123   60   62 1    
   124   62   63 1    
   125   62   64 1    
   126   62  185 1    
   127   63  186 1    
   128   63  187 1    
   129   63  188 1    
   130   64   65 am   BACKBONE|DICT|INTERRES
   131   64  189 1    
   132   65   66 2    
   133   67   68 2    
   134   67   69 am   BACKBONE|DICT|INTERRES
   135   69   70 1    
   136   69  190 1    
   137   70   71 1    
   138   70   72 1    
   139   70  191 1    
   140   71  192 1    
   141   71  193 1    
   142   71  194 1    
   143   72   73 2    
   144   72   74 am   BACKBONE|DICT|INTERRES
   145   74   75 1    
   146   74  195 1    
   147   75   76 1    
   148   75   77 1    
   149   75  196 1    
   150   76  197 1    
   151   76  198 1    
   152   76  199 1    
   153   77   78 2    
   154   77   79 am   BACKBONE|DICT|INTERRES
   155   79   80 1    
   156   79  200 1    
   157   80   81 1    
   158   80   82 1    
   159   80  201 1    
   160   81  202 1    
   161   81  203 1    
   162   81  204 1    
   163   82   83 2    
   164   82   84 am   BACKBONE|DICT|INTERRES
   165   84   85 1    
   166   84  205 1    
   167   85   86 1    
   168   85   87 1    
   169   85  206 1    
   170   86  207 1    
   171   86  208 1    
   172   86  209 1    
   173   87   88 2    
   174   87   89 am   BACKBONE|DICT|INTERRES
   175   89   90 1    
   176   89  210 1    
   177   90   91 1    
   178   90   92 1    
   179   90  211 1    
   180   91  212 1    
   181   91  213 1    
   182   91  214 1    
   183   92   93 2    
   184   92   94 am   BACKBONE|DICT|INTERRES
   185   94   95 1    
   186   94  215 1    
   187   95   96 1    
   188   95   97 1    
   189   95  216 1    
   190   96  217 1    
   191   96  218 1    
   192   96  219 1    
   193   97   98 2    
   194   97   99 am   BACKBONE|DICT|INTERRES
   195   99  100 1    
   196   99  220 1    
   197  100  101 1    
   198  100  102 1    
   199  100  221 1    
   200  101  222 1    
   201  101  223 1    
   202  101  224 1    
   203  102  103 2    
   204  102  104 am   BACKBONE|DICT|INTERRES
   205  104  105 1    
   206  104  225 1    
   207  105  106 1    
   208  105  107 1    
   209  105  226 1    
   210  106  227 1    
   211  106  228 1    
   212  106  229 1    
   213  107  108 2    
   214  107  109 am   BACKBONE|DICT|INTERRES
   215  109  110 1    
   216  109  230 1    
   217  110  111 1    
   218  110  112 1    
   219  110  231 1    
   220  111  232 1    
   221  111  233 1    
   222  111  234 1    
   223  112  113 2    
   224  112  114 am   BACKBONE|DICT|INTERRES
   225  114  115 1    
   226  114  235 1    
   227  115  116 1    
   228  115  117 1    
   229  115  236 1    
   230  116  237 1    
   231  116  238 1    
   232  116  239 1    
   233  117  118 2    
   234  117  119 am   BACKBONE|DICT|INTERRES
   235  119  120 1    
   236  119  240 1    
   237  120  121 1    
   238  120  124 1    
   239  120  241 1    
   240  121  122 am   BACKBONE|DICT|INTERRES
   241  121  123 2    
   242  122  242 1    
   243  122  243 1    
   244  124  125 1    
   245  124  244 1    
   246  124  245 1    
   247  125  126 1    
   248  126  246 1    
   249  126  247 1    
@<TRIPOS>SUBSTRUCTURE
     1 UNK         1 GROUP             0       ****    0 ROOT    
