@<TRIPOS>MOLECULE
3R540
247   249    1
SMALL
USER_CHARGES


@<TRIPOS>ATOM
      1 CA          3.2688  -12.4260  -49.2836 C.3       0 UNK        -0.1800 
      2 C           2.5587  -13.7311  -48.9542 C.2       0 UNK         0.5000 
      3 O           3.1472  -14.6038  -48.3163 O.2       0 UNK        -0.5000 
      4 N           1.2969  -13.8654  -49.3850 N.am      1 UNK        -0.5000 
      5 CA          0.4491  -15.0469  -49.1682 C.3       1 UNK         0.1400 
      6 C6         -0.8518  -14.9981  -50.0067 C.3       23 UNK        -0.0398 
      7 S7         -0.5421  -14.7792  -51.7946 S.3       23 UNK        -0.2404 
      8 C8         -1.1334  -16.3512  -52.4980 C.3       23 UNK        -0.0205 
      9 C9         -2.6439  -16.4991  -52.3784 C.ar      23 UNK        -0.0193 
     10 C10        -3.4985  -15.7548  -53.1993 C.ar      23 UNK        -0.1150 
     11 C11        -4.8864  -15.8724  -53.0702 C.ar      23 UNK        -0.0193 
     12 C12        -5.4155  -16.7350  -52.1049 C.ar      23 UNK        -0.1150 
     13 C13        -4.5726  -17.5024  -51.2999 C.ar      23 UNK        -0.0193 
     14 C14        -3.1886  -17.3840  -51.4441 C.ar      23 UNK        -0.1150 
     15 C15        -5.1505  -18.4706  -50.2838 C.3       23 UNK        -0.0205 
     16 S16        -5.2191  -17.7253  -48.6254 S.3       23 UNK        -0.2404 
     17 C17        -5.6776  -19.1552  -47.5781 C.3       23 UNK        -0.0398 
     18 CA         -4.6834  -20.3428  -47.6472 C.3       11 UNK         0.1400 
     19 N          -3.2887  -19.9066  -47.5653 N.am      11 UNK        -0.5000 
     20 C          -2.2361  -20.6573  -47.9026 C.2       10 UNK         0.5000 
     21 O          -2.3364  -21.8053  -48.3350 O.2       10 UNK        -0.5000 
     22 CA         -0.8436  -20.0414  -47.6745 C.3       10 UNK         0.1400 
     23 CB         -0.3246  -19.4042  -48.9710 C.3       10 UNK        -0.1800 
     24 N          -0.7905  -19.0401  -46.6041 N.am      10 UNK        -0.5000 
     25 C          -1.1254  -19.2384  -45.3234 C.2       9 UNK         0.5000 
     26 O          -1.6323  -20.2775  -44.8949 O.2       9 UNK        -0.5000 
     27 CA         -0.9029  -18.0560  -44.3669 C.3       9 UNK         0.1400 
     28 CB         -2.2401  -17.3486  -44.1006 C.3       9 UNK        -0.1800 
     29 N          -0.3014  -18.4597  -43.0957 N.am      9 UNK        -0.5000 
     30 C           0.8673  -19.1078  -42.9623 C.2       8 UNK         0.5000 
     31 O           1.5686  -19.4561  -43.9128 O.2       8 UNK        -0.5000 
     32 CA          1.3397  -19.3879  -41.5254 C.3       8 UNK         0.1400 
     33 CB          2.8586  -19.6249  -41.4340 C.3       8 UNK        -0.1800 
     34 N           0.9770  -18.2708  -40.6576 N.am      8 UNK        -0.5000 
     35 C           0.3645  -18.3754  -39.4724 C.2       7 UNK         0.5000 
     36 O           0.0587  -19.4497  -38.9535 O.2       7 UNK        -0.5000 
     37 CA          0.0226  -17.0641  -38.7381 C.3       7 UNK         0.1400 
     38 CB          1.0394  -16.7979  -37.6187 C.3       7 UNK        -0.1800 
     39 N          -0.0563  -15.8987  -39.6261 N.am      7 UNK        -0.5000 
     40 C          -1.0516  -15.6960  -40.5026 C.2       6 UNK         0.5000 
     41 O          -1.9774  -16.4946  -40.6520 O.2       6 UNK        -0.5000 
     42 CA         -1.0187  -14.4367  -41.3939 C.3       6 UNK         0.1400 
     43 CB         -2.3387  -13.6433  -41.3124 C.3       6 UNK        -0.1800 
     44 N           0.1447  -13.5663  -41.2076 N.am      6 UNK        -0.5000 
     45 C           0.4453  -12.7703  -40.1735 C.2       5 UNK         0.5000 
     46 O          -0.2636  -12.6287  -39.1761 O.2       5 UNK        -0.5000 
     47 CA          1.8109  -12.0580  -40.2816 C.3       5 UNK         0.1400 
     48 CB          2.1926  -11.2726  -39.0092 C.3       5 UNK        -0.1800 
     49 N           2.8809  -12.9903  -40.6653 N.am      5 UNK        -0.5000 
     50 C           3.2523  -14.0975  -40.0021 C.2       4 UNK         0.5000 
     51 O           2.7698  -14.4360  -38.9221 O.2       4 UNK        -0.5000 
     52 CA          4.3121  -14.9882  -40.6862 C.3       4 UNK         0.1400 
     53 CB          4.4072  -16.3963  -40.0615 C.3       4 UNK        -0.1800 
     54 N           4.1265  -15.0777  -42.1401 N.am      4 UNK        -0.5000 
     55 C           3.0493  -15.5405  -42.7907 C.2       3 UNK         0.5000 
     56 O           2.0519  -16.0153  -42.2387 O.2       3 UNK        -0.5000 
     57 CA          3.1101  -15.4351  -44.3276 C.3       3 UNK         0.1400 
     58 CB          3.7319  -16.6977  -44.9394 C.3       3 UNK        -0.1800 
     59 N           1.8052  -15.1998  -44.9454 N.am      3 UNK        -0.5000 
     60 C           1.0088  -14.1529  -44.6994 C.2       2 UNK         0.5000 
     61 O           1.2899  -13.2582  -43.8983 O.2       2 UNK        -0.5000 
     62 CA         -0.3064  -14.0936  -45.5027 C.3       2 UNK         0.1400 
     63 CB         -1.1344  -12.8341  -45.1932 C.3       2 UNK        -0.1800 
     64 N          -0.0448  -14.1392  -46.9403 N.am      2 UNK        -0.5000 
     65 C           0.1066  -15.2482  -47.6767 C.2       1 UNK         0.5000 
     66 O           0.0135  -16.3872  -47.2176 O.2       1 UNK        -0.5000 
     67 C          -5.0306  -21.4372  -46.6134 C.2       11 UNK         0.5000 
     68 O          -5.9831  -22.1853  -46.8330 O.2       11 UNK        -0.5000 
     69 N          -4.2453  -21.5300  -45.5310 N.am      12 UNK        -0.5000 
     70 CA         -4.3540  -22.5601  -44.5023 C.3       12 UNK         0.1400 
     71 CB         -4.3863  -21.8909  -43.1183 C.3       12 UNK        -0.1800 
     72 C          -3.1806  -23.5472  -44.6034 C.2       12 UNK         0.5000 
     73 O          -3.4078  -24.7547  -44.6700 O.2       12 UNK        -0.5000 
     74 N          -1.9485  -23.0197  -44.6264 N.am      13 UNK        -0.5000 
     75 CA         -0.7015  -23.7855  -44.5616 C.3       13 UNK         0.1400 
     76 CB          0.4615  -22.8239  -44.2721 C.3       13 UNK        -0.1800 
     77 C          -0.4106  -24.6164  -45.8233 C.2       13 UNK         0.5000 
     78 O           0.1687  -25.6974  -45.7124 O.2       13 UNK        -0.5000 
     79 N          -0.8251  -24.1057  -46.9886 N.am      14 UNK        -0.5000 
     80 CA         -0.7003  -24.7645  -48.2907 C.3       14 UNK         0.1400 
     81 CB          0.1470  -23.8703  -49.2100 C.3       14 UNK        -0.1800 
     82 C          -2.0839  -25.0690  -48.8993 C.2       14 UNK         0.5000 
     83 O          -2.1657  -25.4253  -50.0778 O.2       14 UNK        -0.5000 
     84 N          -3.1447  -24.8980  -48.0923 N.am      15 UNK        -0.5000 
     85 CA         -4.5631  -25.1512  -48.3730 C.3       15 UNK         0.1400 
     86 CB         -4.8021  -26.6705  -48.4908 C.3       15 UNK        -0.1800 
     87 C          -5.1376  -24.3822  -49.5842 C.2       15 UNK         0.5000 
     88 O          -6.1611  -24.7998  -50.1284 O.2       15 UNK        -0.5000 
     89 N          -4.4596  -23.3015  -50.0079 N.am      16 UNK        -0.5000 
     90 CA         -4.6864  -22.5594  -51.2571 C.3       16 UNK         0.1400 
     91 CB         -6.0531  -21.8390  -51.2355 C.3       16 UNK        -0.1800 
     92 C          -4.5178  -23.4408  -52.5189 C.2       16 UNK         0.5000 
     93 O          -5.1605  -23.1786  -53.5375 O.2       16 UNK        -0.5000 
     94 N          -3.6833  -24.4850  -52.4220 N.am      17 UNK        -0.5000 
     95 CA         -3.4931  -25.4960  -53.4570 C.3       17 UNK         0.1400 
     96 CB         -4.1078  -26.8259  -52.9877 C.3       17 UNK        -0.1800 
     97 C          -2.0050  -25.6514  -53.7847 C.2       17 UNK         0.5000 
     98 O          -1.6102  -25.4298  -54.9297 O.2       17 UNK        -0.5000 
     99 N          -1.1926  -25.9981  -52.7760 N.am      18 UNK        -0.5000 
    100 CA         0.2405  -26.2701  -52.9353 C.3       18 UNK         0.1400 
    101 CB         0.7520  -27.0428  -51.7093 C.3       18 UNK        -0.1800 
    102 C          1.0823  -25.0059  -53.2017 C.2       18 UNK         0.5000 
    103 O          2.1754  -25.1105  -53.7585 O.2       18 UNK        -0.5000 
    104 N          0.5454  -23.8366  -52.8303 N.am      19 UNK        -0.5000 
    105 CA         1.1179  -22.5193  -53.1129 C.3       19 UNK         0.1400 
    106 CB         0.6919  -21.5506  -51.9977 C.3       19 UNK        -0.1800 
    107 C          0.7014  -21.9667  -54.4914 C.2       19 UNK         0.5000 
    108 O          1.2050  -20.9136  -54.8845 O.2       19 UNK        -0.5000 
    109 N         -0.2142  -22.6613  -55.1865 N.am      20 UNK        -0.5000 
    110 CA        -0.8821  -22.2499  -56.4228 C.3       20 UNK         0.1400 
    111 CB         0.1142  -22.2058  -57.6041 C.3       20 UNK        -0.1800 
    112 C         -1.6918  -20.9529  -56.2067 C.2       20 UNK         0.5000 
    113 O         -2.4906  -20.9018  -55.2676 O.2       20 UNK        -0.5000 
    114 N         -1.4859  -19.9426  -57.0652 N.am      21 UNK        -0.5000 
    115 CA        -2.1656  -18.6434  -57.0722 C.3       21 UNK         0.1400 
    116 CB        -1.7324  -17.7996  -55.8523 C.3       21 UNK        -0.1800 
    117 C         -3.6914  -18.8196  -57.2162 C.2       21 UNK         0.5000 
    118 O         -4.1311  -19.3916  -58.2160 O.2       21 UNK        -0.5000 
    119 N         -4.4632  -18.3564  -56.2268 N.am      22 UNK        -0.5000 
    120 CA        -5.9218  -18.5422  -56.1521 C.3       22 UNK         0.1400 
    121 C         -6.3490  -19.9505  -55.6349 C.2       22 UNK         0.5000 
    122 N         -5.4319  -20.8083  -55.2017 N.am      22 UNK        -0.7600 
    123 O         -7.5361  -20.2647  -55.6210 O.2       22 UNK        -0.5000 
    124 C124       -6.6319  -17.4240  -55.3386 C.3       23 UNK        -0.0398 
    125 S125       -5.9834  -15.7381  -55.6427 S.3       23 UNK        -0.2404 
    126 C126       -5.8211  -15.0584  -53.9563 C.3       23 UNK        -0.0205 
    127 H127        4.1649  -12.6247  -49.8714 H         1 UNK         0.0600 
    128 H128        3.5671  -11.9197  -48.3655 H         1 UNK         0.0600 
    129 H129        2.6312  -11.7497  -49.8536 H         1 UNK         0.0600 
    130 H130        0.8799  -13.1261  -49.9329 H         1 UNK         0.3000 
    131 H131        1.0195  -15.9226  -49.4856 H         1 UNK         0.0600 
    132 H132       -1.4332  -15.9063  -49.8454 H         1 UNK         0.0800 
    133 H133       -1.4887  -14.1741  -49.6800 H         1 UNK         0.0800 
    134 H134       -0.8493  -16.3860  -53.5496 H         1 UNK         0.0800 
    135 H135       -0.6182  -17.1832  -52.0151 H         1 UNK         0.0800 
    136 H136       -3.0830  -15.0768  -53.9318 H         1 UNK         0.1150 
    137 H137       -6.4868  -16.8216  -51.9890 H         1 UNK         0.1150 
    138 H138       -2.5373  -17.9752  -50.8174 H         1 UNK         0.1150 
    139 H139       -6.1509  -18.7879  -50.5815 H         1 UNK         0.0800 
    140 H140       -4.5270  -19.3637  -50.2737 H         1 UNK         0.0800 
    141 H141       -6.6789  -19.4841  -47.8619 H         1 UNK         0.0800 
    142 H142       -5.7581  -18.7892  -46.5529 H         1 UNK         0.0800 
    143 H143       -4.8058  -20.8221  -48.6166 H         1 UNK         0.0600 
    144 H144       -3.1280  -18.9677  -47.2316 H         1 UNK         0.3000 
    145 H145       -0.1733  -20.8577  -47.3984 H         1 UNK         0.0600 
    146 H146       -0.4041  -20.0957  -49.8094 H         1 UNK         0.0600 
    147 H147        0.7246  -19.1233  -48.8783 H         1 UNK         0.0600 
    148 H148       -0.8869  -18.5067  -49.2288 H         1 UNK         0.0600 
    149 H149       -0.4227  -18.1274  -46.8674 H         1 UNK         0.3000 
    150 H150       -0.2151  -17.3490  -44.8298 H         1 UNK         0.0600 
    151 H151       -2.6996  -17.0162  -45.0325 H         1 UNK         0.0600 
    152 H152       -2.1104  -16.4680  -43.4752 H         1 UNK         0.0600 
    153 H153       -2.9504  -18.0090  -43.6010 H         1 UNK         0.0600 
    154 H154       -0.8179  -18.2293  -42.2588 H         1 UNK         0.3000 
    155 H155        0.8297  -20.2996  -41.2086 H         1 UNK         0.0600 
    156 H156        3.4192  -18.7739  -41.8229 H         1 UNK         0.0600 
    157 H157        3.1537  -20.5040  -42.0081 H         1 UNK         0.0600 
    158 H158        3.1716  -19.7906  -40.4031 H         1 UNK         0.0600 
    159 H159        1.1939  -17.3486  -41.0281 H         1 UNK         0.3000 
    160 H160       -0.9565  -17.1958  -38.2725 H         1 UNK         0.0600 
    161 H161        2.0601  -16.7718  -37.9999 H         1 UNK         0.0600 
    162 H162        0.9976  -17.5831  -36.8630 H         1 UNK         0.0600 
    163 H163        0.8412  -15.8509  -37.1164 H         1 UNK         0.0600 
    164 H164        0.6908  -15.2193  -39.5568 H         1 UNK         0.3000 
    165 H165       -0.9245  -14.8051  -42.4145 H         1 UNK         0.0600 
    166 H166       -2.3048  -12.7449  -41.9279 H         1 UNK         0.0600 
    167 H167       -2.5665  -13.3396  -40.2905 H         1 UNK         0.0600 
    168 H168       -3.1769  -14.2458  -41.6643 H         1 UNK         0.0600 
    169 H169        0.8093  -13.5922  -41.9752 H         1 UNK         0.3000 
    170 H170        1.7178  -11.3391  -41.0970 H         1 UNK         0.0600 
    171 H171        1.4500  -10.5049  -38.7889 H         1 UNK         0.0600 
    172 H172        2.2608  -11.9199  -38.1345 H         1 UNK         0.0600 
    173 H173        3.1522  -10.7702  -39.1298 H         1 UNK         0.0600 
    174 H174        3.3145  -12.8112  -41.5602 H         1 UNK         0.3000 
    175 H175        5.2711  -14.4933  -40.5271 H         1 UNK         0.0600 
    176 H176        3.4566  -16.9261  -40.1108 H         1 UNK         0.0600 
    177 H177        5.1565  -17.0043  -40.5680 H         1 UNK         0.0600 
    178 H178        4.6924  -16.3391  -39.0105 H         1 UNK         0.0600 
    179 H179        4.8920  -14.7125  -42.6898 H         1 UNK         0.3000 
    180 H180        3.7430  -14.5838  -44.5865 H         1 UNK         0.0600 
    181 H181        3.1105  -17.5748  -44.7658 H         1 UNK         0.0600 
    182 H182        4.7142  -16.9014  -44.5113 H         1 UNK         0.0600 
    183 H183        3.8629  -16.5891  -46.0164 H         1 UNK         0.0600 
    184 H184        1.5021  -15.8773  -45.6321 H         1 UNK         0.3000 
    185 H185       -0.9041  -14.9595  -45.2146 H         1 UNK         0.0600 
    186 H186       -1.3718  -12.7712  -44.1315 H         1 UNK         0.0600 
    187 H187       -0.5995  -11.9229  -45.4639 H         1 UNK         0.0600 
    188 H188       -2.0800  -12.8417  -45.7355 H         1 UNK         0.0600 
    189 H189        0.1026  -13.2489  -47.3933 H         1 UNK         0.3000 
    190 H190       -3.4557  -20.8990  -45.4455 H         1 UNK         0.3000 
    191 H191       -5.2784  -23.1294  -44.6203 H         1 UNK         0.0600 
    192 H192       -4.4425  -22.6366  -42.3243 H         1 UNK         0.0600 
    193 H193       -5.2574  -21.2434  -43.0180 H         1 UNK         0.0600 
    194 H194       -3.4986  -21.2830  -42.9375 H         1 UNK         0.0600 
    195 H195       -1.8466  -22.0060  -44.6065 H         1 UNK         0.3000 
    196 H196       -0.7814  -24.4808  -43.7234 H         1 UNK         0.0600 
    197 H197        0.5830  -22.0868  -45.0670 H         1 UNK         0.0600 
    198 H198        0.3031  -22.2833  -43.3389 H         1 UNK         0.0600 
    199 H199        1.4042  -23.3643  -44.1785 H         1 UNK         0.0600 
    200 H200       -1.3009  -23.2123  -46.9958 H         1 UNK         0.3000 
    201 H201       -0.1904  -25.7244  -48.1913 H         1 UNK         0.0600 
    202 H202       -0.3417  -22.9209  -49.4204 H         1 UNK         0.0600 
    203 H203        0.3355  -24.3534  -50.1650 H         1 UNK         0.0600 
    204 H204        1.1176  -23.6543  -48.7637 H         1 UNK         0.0600 
    205 H205       -2.9463  -24.6117  -47.1444 H         1 UNK         0.3000 
    206 H206       -5.1131  -24.7946  -47.5011 H         1 UNK         0.0600 
    207 H207       -4.4083  -27.1996  -47.6230 H         1 UNK         0.0600 
    208 H208       -5.8665  -26.9003  -48.5508 H         1 UNK         0.0600 
    209 H209       -4.3265  -27.0843  -49.3807 H         1 UNK         0.0600 
    210 H210       -3.6402  -23.0251  -49.4769 H         1 UNK         0.3000 
    211 H211       -3.9066  -21.7979  -51.3040 H         1 UNK         0.0600 
    212 H212       -6.1164  -21.1046  -52.0395 H         1 UNK         0.0600 
    213 H213       -6.2243  -21.3128  -50.2989 H         1 UNK         0.0600 
    214 H214       -6.8790  -22.5378  -51.3714 H         1 UNK         0.0600 
    215 H215       -3.2011  -24.6473  -51.5431 H         1 UNK         0.3000 
    216 H216       -3.9938  -25.2033  -54.3823 H         1 UNK         0.0600 
    217 H217       -3.6791  -27.1628  -52.0430 H         1 UNK         0.0600 
    218 H218       -3.9478  -27.6140  -53.7245 H         1 UNK         0.0600 
    219 H219       -5.1841  -26.7273  -52.8441 H         1 UNK         0.0600 
    220 H220       -1.5750  -26.0984  -51.8405 H         1 UNK         0.3000 
    221 H221        0.3646  -26.9177  -53.8060 H         1 UNK         0.0600 
    222 H222        0.2535  -28.0083  -51.6221 H         1 UNK         0.0600 
    223 H223        0.5829  -26.5006  -50.7807 H         1 UNK         0.0600 
    224 H224        1.8224  -27.2380  -51.7865 H         1 UNK         0.0600 
    225 H225       -0.3594  -23.8521  -52.3839 H         1 UNK         0.3000 
    226 H226        2.2079  -22.5855  -53.1063 H         1 UNK         0.0600 
    227 H227       -0.3935  -21.4960  -51.9041 H         1 UNK         0.0600 
    228 H228        1.1031  -21.8569  -51.0367 H         1 UNK         0.0600 
    229 H229        1.0557  -20.5402  -52.1893 H         1 UNK         0.0600 
    230 H230       -0.5606  -23.5246  -54.7880 H         1 UNK         0.3000 
    231 H231       -1.6154  -23.0271  -56.6428 H         1 UNK         0.0600 
    232 H232        0.8665  -21.4257  -57.4844 H         1 UNK         0.0600 
    233 H233       -0.4021  -22.0305  -58.5486 H         1 UNK         0.0600 
    234 H234        0.6397  -23.1559  -57.7021 H         1 UNK         0.0600 
    235 H235       -0.8249  -20.0905  -57.8141 H         1 UNK         0.3000 
    236 H236       -1.8323  -18.1206  -57.9697 H         1 UNK         0.0600 
    237 H237       -0.6498  -17.6739  -55.8341 H         1 UNK         0.0600 
    238 H238       -2.1696  -16.8010  -55.8884 H         1 UNK         0.0600 
    239 H239       -2.0235  -18.2586  -54.9067 H         1 UNK         0.0600 
    240 H240       -4.0320  -17.9048  -55.4338 H         1 UNK         0.3000 
    241 H241       -6.3081  -18.4737  -57.1708 H         1 UNK         0.0600 
    242 H242       -4.4432  -20.5828  -55.2316 H         1 UNK         0.3800 
    243 H243       -5.7023  -21.7074  -54.8206 H         1 UNK         0.3800 
    244 H244       -7.6966  -17.4172  -55.5773 H         1 UNK         0.0800 
    245 H245       -6.5802  -17.6511  -54.2762 H         1 UNK         0.0800 
    246 H246       -5.4496  -14.0350  -54.0250 H         1 UNK         0.0800 
    247 H247       -6.8121  -14.9893  -53.5049 H         1 UNK         0.0800 
@<TRIPOS>BOND
     1    1    2 1    
     2    1  127 1    
     3    1  128 1    
     4    1  129 1    
     5    2    3 2    
     6    2    4 am   BACKBONE|DICT|INTERRES
     7    4    5 1    
     8    4  130 1    
     9    5    6 1    
    10    5   65 1    
    11    5  131 1    
    12    6    7 1    
    13    6  132 1    
    14    6  133 1    
    15    7    8 1    
    16    8    9 1    
    17    8  134 1    
    18    8  135 1    
    19    9   10 ar   
    20    9   14 ar   
    21   10   11 ar   
    22   10  136 1    
    23   11   12 ar   
    24   11  126 1    
    25   12   13 ar   
    26   12  137 1    
    27   13   14 ar   
    28   13   15 1    
    29   14  138 1    
    30   15   16 1    
    31   15  139 1    
    32   15  140 1    
    33   16   17 1    
    34   17   18 1    
    35   17  141 1    
    36   17  142 1    
    37   18   19 1    
    38   18   67 1    
    39   18  143 1    
    40   19   20 am   BACKBONE|DICT|INTERRES
    41   19  144 1    
    42   20   21 2    
    43   20   22 1    
    44   22   23 1    
    45   22   24 1    
    46   22  145 1    
    47   23  146 1    
    48   23  147 1    
    49   23  148 1    
    50   24   25 am   BACKBONE|DICT|INTERRES
    51   24  149 1    
    52   25   26 2    
    53   25   27 1    
    54   27   28 1    
    55   27   29 1    
    56   27  150 1    
    57   28  151 1    
    58   28  152 1    
    59   28  153 1    
    60   29   30 am   BACKBONE|DICT|INTERRES
    61   29  154 1    
    62   30   31 2    
    63   30   32 1    
    64   32   33 1    
    65   32   34 1    
    66   32  155 1    
    67   33  156 1    
    68   33  157 1    
    69   33  158 1    
    70   34   35 am   BACKBONE|DICT|INTERRES
    71   34  159 1    
    72   35   36 2    
    73   35   37 1    
    74   37   38 1    
    75   37   39 1    
    76   37  160 1    
    77   38  161 1    
    78   38  162 1    
    79   38  163 1    
    80   39   40 am   BACKBONE|DICT|INTERRES
    81   39  164 1    
    82   40   41 2    
    83   40   42 1    
    84   42   43 1    
    85   42   44 1    
    86   42  165 1    
    87   43  166 1    
    88   43  167 1    
    89   43  168 1    
    90   44   45 am   BACKBONE|DICT|INTERRES
    91   44  169 1    
    92   45   46 2    
    93   45   47 1    
    94   47   48 1    
    95   47   49 1    
    96   47  170 1    
    97   48  171 1    
    98   48  172 1    
    99   48  173 1    
   100   49   50 am   BACKBONE|DICT|INTERRES
   101   49  174 1    
   102   50   51 2    
   103   50   52 1    
   104   52   53 1    
   105   52   54 1    
   106   52  175 1    
   107   53  176 1    
   108   53  177 1    
   109   53  178 1    
   110   54   55 am   BACKBONE|DICT|INTERRES
   111   54  179 1    
   112   55   56 2    
   113   55   57 1    
   114   57   58 1    
   115   57   59 1    
   116   57  180 1    
   117   58  181 1    
   118   58  182 1    
   119   58  183 1    
   120   59   60 am   BACKBONE|DICT|INTERRES
   121   59  184 1    
   122   60   61 2    
   123   60   62 1    
   124   62   63 1    
   125   62   64 1    
   126   62  185 1    
   127   63  186 1    
   128   63  187 1    
   129   63  188 1    
   130   64   65 am   BACKBONE|DICT|INTERRES
   131   64  189 1    
   132   65   66 2    
   133   67   68 2    
   134   67   69 am   BACKBONE|DICT|INTERRES
   135   69   70 1    
   136   69  190 1    
   137   70   71 1    
   138   70   72 1    
   139   70  191 1    
   140   71  192 1    
   141   71  193 1    
   142   71  194 1    
   143   72   73 2    
   144   72   74 am   BACKBONE|DICT|INTERRES
   145   74   75 1    
   146   74  195 1    
   147   75   76 1    
   148   75   77 1    
   149   75  196 1    
   150   76  197 1    
   151   76  198 1    
   152   76  199 1    
   153   77   78 2    
   154   77   79 am   BACKBONE|DICT|INTERRES
   155   79   80 1    
   156   79  200 1    
   157   80   81 1    
   158   80   82 1    
   159   80  201 1    
   160   81  202 1    
   161   81  203 1    
   162   81  204 1    
   163   82   83 2    
   164   82   84 am   BACKBONE|DICT|INTERRES
   165   84   85 1    
   166   84  205 1    
   167   85   86 1    
   168   85   87 1    
   169   85  206 1    
   170   86  207 1    
   171   86  208 1    
   172   86  209 1    
   173   87   88 2    
   174   87   89 am   BACKBONE|DICT|INTERRES
   175   89   90 1    
   176   89  210 1    
   177   90   91 1    
   178   90   92 1    
   179   90  211 1    
   180   91  212 1    
   181   91  213 1    
   182   91  214 1    
   183   92   93 2    
   184   92   94 am   BACKBONE|DICT|INTERRES
   185   94   95 1    
   186   94  215 1    
   187   95   96 1    
   188   95   97 1    
   189   95  216 1    
   190   96  217 1    
   191   96  218 1    
   192   96  219 1    
   193   97   98 2    
   194   97   99 am   BACKBONE|DICT|INTERRES
   195   99  100 1    
   196   99  220 1    
   197  100  101 1    
   198  100  102 1    
   199  100  221 1    
   200  101  222 1    
   201  101  223 1    
   202  101  224 1    
   203  102  103 2    
   204  102  104 am   BACKBONE|DICT|INTERRES
   205  104  105 1    
   206  104  225 1    
   207  105  106 1    
   208  105  107 1    
   209  105  226 1    
   210  106  227 1    
   211  106  228 1    
   212  106  229 1    
   213  107  108 2    
   214  107  109 am   BACKBONE|DICT|INTERRES
   215  109  110 1    
   216  109  230 1    
   217  110  111 1    
   218  110  112 1    
   219  110  231 1    
   220  111  232 1    
   221  111  233 1    
   222  111  234 1    
   223  112  113 2    
   224  112  114 am   BACKBONE|DICT|INTERRES
   225  114  115 1    
   226  114  235 1    
   227  115  116 1    
   228  115  117 1    
   229  115  236 1    
   230  116  237 1    
   231  116  238 1    
   232  116  239 1    
   233  117  118 2    
   234  117  119 am   BACKBONE|DICT|INTERRES
   235  119  120 1    
   236  119  240 1    
   237  120  121 1    
   238  120  124 1    
   239  120  241 1    
   240  121  122 am   BACKBONE|DICT|INTERRES
   241  121  123 2    
   242  122  242 1    
   243  122  243 1    
   244  124  125 1    
   245  124  244 1    
   246  124  245 1    
   247  125  126 1    
   248  126  246 1    
   249  126  247 1    
@<TRIPOS>SUBSTRUCTURE
     1 UNK         1 GROUP             0       ****    0 ROOT    
