@<TRIPOS>MOLECULE
3R540
247   249    1
SMALL
USER_CHARGES


@<TRIPOS>ATOM
      1 CA          4.0166  -16.5033  -46.6608 C.3       0 UNK        -0.1800 
      2 C           4.8483  -15.6566  -47.6191 C.2       0 UNK         0.5000 
      3 O           6.0750  -15.7058  -47.5579 O.2       0 UNK        -0.5000 
      4 N           4.2432  -14.8618  -48.5105 N.am      1 UNK        -0.5000 
      5 CA          2.8012  -14.6568  -48.7047 C.3       1 UNK         0.1400 
      6 C6          2.2865  -15.2553  -50.0408 C.3       23 UNK        -0.0398 
      7 S7          2.5699  -17.0508  -50.1860 S.3       23 UNK        -0.2404 
      8 C8          1.1115  -17.5629  -51.1445 C.3       23 UNK        -0.0205 
      9 C9          1.3507  -18.9094  -51.8058 C.ar      23 UNK        -0.0193 
     10 C10         1.6957  -18.9733  -53.1577 C.ar      23 UNK        -0.1150 
     11 C11         1.9352  -20.2049  -53.7713 C.ar      23 UNK        -0.0193 
     12 C12         1.8466  -21.3774  -53.0165 C.ar      23 UNK        -0.1150 
     13 C13         1.5038  -21.3296  -51.6620 C.ar      23 UNK        -0.0193 
     14 C14         1.2441  -20.0900  -51.0662 C.ar      23 UNK        -0.1150 
     15 C15         1.3996  -22.6240  -50.8659 C.3       23 UNK        -0.0205 
     16 S16         2.6823  -22.7809  -49.5860 S.3       23 UNK        -0.2404 
     17 C17         1.9334  -21.8997  -48.1723 C.3       23 UNK        -0.0398 
     18 CA          2.0341  -22.7013  -46.8492 C.3       11 UNK         0.1400 
     19 N           2.3231  -21.8112  -45.7200 N.am      11 UNK        -0.5000 
     20 C           3.3310  -21.9798  -44.8559 C.2       10 UNK         0.5000 
     21 O           4.0970  -22.9443  -44.8674 O.2       10 UNK        -0.5000 
     22 CA          3.5431  -20.8669  -43.8179 C.3       10 UNK         0.1400 
     23 CB          4.2607  -19.6705  -44.4620 C.3       10 UNK        -0.1800 
     24 N           2.3040  -20.4027  -43.1973 N.am      10 UNK        -0.5000 
     25 C           1.6318  -21.0735  -42.2524 C.2       9 UNK         0.5000 
     26 O           1.9209  -22.2117  -41.8824 O.2       9 UNK        -0.5000 
     27 CA          0.4543  -20.3382  -41.5920 C.3       9 UNK         0.1400 
     28 CB          0.9574  -19.2217  -40.6626 C.3       9 UNK        -0.1800 
     29 N          -0.4393  -19.7686  -42.5964 N.am      9 UNK        -0.5000 
     30 C          -1.5260  -20.3874  -43.0737 C.2       8 UNK         0.5000 
     31 O          -1.9330  -21.4685  -42.6497 O.2       8 UNK        -0.5000 
     32 CA         -2.3009  -19.7003  -44.2164 C.3       8 UNK         0.1400 
     33 CB         -3.5864  -19.0586  -43.6742 C.3       8 UNK        -0.1800 
     34 N          -1.5287  -18.6912  -44.9416 N.am      8 UNK        -0.5000 
     35 C          -0.4633  -18.9404  -45.7143 C.2       7 UNK         0.5000 
     36 O          -0.0080  -20.0687  -45.9121 O.2       7 UNK        -0.5000 
     37 CA          0.2529  -17.7140  -46.3095 C.3       7 UNK         0.1400 
     38 CB         -0.4834  -17.1991  -47.5543 C.3       7 UNK        -0.1800 
     39 N           0.4143  -16.6218  -45.3445 N.am      7 UNK        -0.5000 
     40 C           1.0997  -16.7191  -44.1952 C.2       6 UNK         0.5000 
     41 O           1.6879  -17.7379  -43.8372 O.2       6 UNK        -0.5000 
     42 CA          1.0802  -15.4973  -43.2644 C.3       6 UNK         0.1400 
     43 CB          2.0262  -14.3949  -43.7677 C.3       6 UNK        -0.1800 
     44 N          -0.2759  -14.9730  -43.1155 N.am      6 UNK        -0.5000 
     45 C          -1.2318  -15.5634  -42.3821 C.2       5 UNK         0.5000 
     46 O          -1.0473  -16.5741  -41.7050 O.2       5 UNK        -0.5000 
     47 CA         -2.6381  -14.9345  -42.4300 C.3       5 UNK         0.1400 
     48 CB         -2.7934  -13.8803  -41.3238 C.3       5 UNK        -0.1800 
     49 N          -2.9543  -14.3236  -43.7222 N.am      5 UNK        -0.5000 
     50 C          -3.0625  -14.9982  -44.8755 C.2       4 UNK         0.5000 
     51 O          -2.9271  -16.2154  -44.9678 O.2       4 UNK        -0.5000 
     52 CA         -3.2750  -14.1590  -46.1484 C.3       4 UNK         0.1400 
     53 CB         -4.7641  -13.8453  -46.3529 C.3       4 UNK        -0.1800 
     54 N          -2.5041  -12.9125  -46.1298 N.am      4 UNK        -0.5000 
     55 C          -1.1675  -12.8618  -46.0768 C.2       3 UNK         0.5000 
     56 O          -0.4433  -13.8642  -46.0775 O.2       3 UNK        -0.5000 
     57 CA         -0.5389  -11.4704  -45.9366 C.3       3 UNK         0.1400 
     58 CB         -0.6309  -10.9695  -44.4847 C.3       3 UNK        -0.1800 
     59 N           0.8570  -11.5813  -46.3267 N.am      3 UNK        -0.5000 
     60 C           1.6134  -10.6225  -46.8662 C.2       2 UNK         0.5000 
     61 O           1.2455   -9.4555  -47.0074 O.2       2 UNK        -0.5000 
     62 CA          3.0186  -11.0449  -47.3436 C.3       2 UNK         0.1400 
     63 CB          4.0780  -10.6465  -46.3045 C.3       2 UNK        -0.1800 
     64 N           3.1475  -12.4813  -47.6208 N.am      2 UNK        -0.5000 
     65 C           2.5039  -13.1464  -48.5933 C.2       1 UNK         0.5000 
     66 O           1.7256  -12.6053  -49.3797 O.2       1 UNK        -0.5000 
     67 C           0.7757  -23.5470  -46.5608 C.2       11 UNK         0.5000 
     68 O           0.7298  -24.7189  -46.9384 O.2       11 UNK        -0.5000 
     69 N          -0.1904  -22.9568  -45.8393 N.am      12 UNK        -0.5000 
     70 CA         -1.3489  -23.5977  -45.2132 C.3       12 UNK         0.1400 
     71 CB         -0.8910  -24.4444  -44.0052 C.3       12 UNK        -0.1800 
     72 C          -2.2378  -24.3569  -46.2141 C.2       12 UNK         0.5000 
     73 O          -2.8519  -23.7193  -47.0718 O.2       12 UNK        -0.5000 
     74 N          -2.3040  -25.6897  -46.0956 N.am      13 UNK        -0.5000 
     75 CA         -3.1251  -26.5792  -46.9199 C.3       13 UNK         0.1400 
     76 CB         -2.9716  -28.0207  -46.4137 C.3       13 UNK        -0.1800 
     77 C          -2.8136  -26.4996  -48.4256 C.2       13 UNK         0.5000 
     78 O          -3.7302  -26.6310  -49.2363 O.2       13 UNK        -0.5000 
     79 N          -1.5493  -26.2221  -48.7754 N.am      14 UNK        -0.5000 
     80 CA         -1.1030  -26.0158  -50.1553 C.3       14 UNK         0.1400 
     81 CB          0.4309  -26.0623  -50.1998 C.3       14 UNK        -0.1800 
     82 C          -1.6320  -24.7061  -50.7756 C.2       14 UNK         0.5000 
     83 O          -1.7177  -24.6100  -51.9995 O.2       14 UNK        -0.5000 
     84 N          -1.9902  -23.7307  -49.9278 N.am      15 UNK        -0.5000 
     85 CA         -2.6232  -22.4702  -50.3172 C.3       15 UNK         0.1400 
     86 CB         -2.0623  -21.3360  -49.4392 C.3       15 UNK        -0.1800 
     87 C          -4.1545  -22.5254  -50.1732 C.2       15 UNK         0.5000 
     88 O          -4.8078  -21.5130  -50.4367 O.2       15 UNK        -0.5000 
     89 N          -4.6913  -23.6634  -49.7057 N.am      16 UNK        -0.5000 
     90 CA         -6.0758  -23.8838  -49.2772 C.3       16 UNK         0.1400 
     91 CB         -7.0418  -23.8093  -50.4776 C.3       16 UNK        -0.1800 
     92 C          -6.4713  -22.9410  -48.1210 C.2       16 UNK         0.5000 
     93 O          -7.5561  -22.3615  -48.1409 O.2       16 UNK        -0.5000 
     94 N          -5.5470  -22.7521  -47.1647 N.am      17 UNK        -0.5000 
     95 CA         -5.6155  -21.7907  -46.0558 C.3       17 UNK         0.1400 
     96 CB         -6.7206  -22.1757  -45.0516 C.3       17 UNK        -0.1800 
     97 C          -5.7210  -20.3329  -46.5557 C.2       17 UNK         0.5000 
     98 O          -6.4610  -19.5284  -45.9894 O.2       17 UNK        -0.5000 
     99 N          -4.9787  -20.0482  -47.6358 N.am      18 UNK        -0.5000 
    100 CA        -4.8990  -18.7874  -48.3804 C.3       18 UNK         0.1400 
    101 CB        -4.4269  -17.6309  -47.4805 C.3       18 UNK        -0.1800 
    102 C         -6.1615  -18.4393  -49.1944 C.2       18 UNK         0.5000 
    103 O         -6.2529  -17.3220  -49.7048 O.2       18 UNK        -0.5000 
    104 N         -7.0930  -19.3920  -49.3503 N.am      19 UNK        -0.5000 
    105 CA        -8.2692  -19.2410  -50.2088 C.3       19 UNK         0.1400 
    106 CB        -9.3401  -20.2667  -49.8099 C.3       19 UNK        -0.1800 
    107 C         -7.9259  -19.3795  -51.7037 C.2       19 UNK         0.5000 
    108 O         -8.6003  -18.7640  -52.5306 O.2       19 UNK        -0.5000 
    109 N         -6.8965  -20.1770  -52.0226 N.am      20 UNK        -0.5000 
    110 CA        -6.4146  -20.4013  -53.3839 C.3       20 UNK         0.1400 
    111 CB        -6.2371  -21.9088  -53.6309 C.3       20 UNK        -0.1800 
    112 C         -5.0982  -19.6509  -53.6267 C.2       20 UNK         0.5000 
    113 O         -4.9860  -18.9499  -54.6329 O.2       20 UNK        -0.5000 
    114 N         -4.1261  -19.8241  -52.7133 N.am      21 UNK        -0.5000 
    115 CA        -2.7776  -19.2301  -52.7286 C.3       21 UNK         0.1400 
    116 CB        -2.8506  -17.7602  -52.2699 C.3       21 UNK        -0.1800 
    117 C         -2.0377  -19.4115  -54.0762 C.2       21 UNK         0.5000 
    118 O         -1.4617  -18.4573  -54.5978 O.2       21 UNK        -0.5000 
    119 N         -2.1459  -20.6301  -54.6262 N.am      22 UNK        -0.5000 
    120 CA        -1.7135  -21.0730  -55.9654 C.3       22 UNK         0.1400 
    121 C         -2.3444  -20.3333  -57.1881 C.2       22 UNK         0.5000 
    122 N         -3.3846  -19.5247  -57.0226 N.am      22 UNK        -0.7600 
    123 O         -1.9206  -20.5369  -58.3229 O.2       22 UNK        -0.5000 
    124 C124       -0.1839  -21.3444  -56.0887 C.3       23 UNK        -0.0398 
    125 S125        0.8903  -19.8830  -56.3276 S.3       23 UNK        -0.2404 
    126 C126        2.3050  -20.2634  -55.2456 C.3       23 UNK        -0.0205 
    127 H127        3.3783  -15.8755  -46.0414 H         1 UNK         0.0600 
    128 H128        4.6645  -17.0740  -45.9958 H         1 UNK         0.0600 
    129 H129        3.3968  -17.2094  -47.2118 H         1 UNK         0.0600 
    130 H130        4.8268  -14.3082  -49.1224 H         1 UNK         0.3000 
    131 H131        2.2296  -15.1178  -47.8990 H         1 UNK         0.0600 
    132 H132        1.2159  -15.0682  -50.1438 H         1 UNK         0.0800 
    133 H133        2.7667  -14.7680  -50.8910 H         1 UNK         0.0800 
    134 H134        0.8873  -16.8108  -51.9028 H         1 UNK         0.0800 
    135 H135        0.2394  -17.6148  -50.4925 H         1 UNK         0.0800 
    136 H136        1.7732  -18.0649  -53.7387 H         1 UNK         0.1150 
    137 H137        2.0421  -22.3307  -53.4872 H         1 UNK         0.1150 
    138 H138        0.9816  -20.0301  -50.0216 H         1 UNK         0.1150 
    139 H139        0.4176  -22.7034  -50.4131 H         1 UNK         0.0800 
    140 H140        1.4862  -23.4815  -51.5346 H         1 UNK         0.0800 
    141 H141        0.9019  -21.6192  -48.3800 H         1 UNK         0.0800 
    142 H142        2.4760  -20.9566  -48.0875 H         1 UNK         0.0800 
    143 H143        2.8557  -23.4135  -46.9501 H         1 UNK         0.0600 
    144 H144        1.7106  -21.0095  -45.6147 H         1 UNK         0.3000 
    145 H145        4.1910  -21.2623  -43.0325 H         1 UNK         0.0600 
    146 H146        4.4782  -18.8969  -43.7253 H         1 UNK         0.0600 
    147 H147        5.2093  -19.9739  -44.9066 H         1 UNK         0.0600 
    148 H148        3.6566  -19.2197  -45.2502 H         1 UNK         0.0600 
    149 H149        2.0144  -19.4550  -43.4323 H         1 UNK         0.3000 
    150 H150       -0.0868  -21.0587  -40.9748 H         1 UNK         0.0600 
    151 H151        1.6311  -19.6196  -39.9029 H         1 UNK         0.0600 
    152 H152        0.1274  -18.7425  -40.1430 H         1 UNK         0.0600 
    153 H153        1.4971  -18.4470  -41.2079 H         1 UNK         0.0600 
    154 H154       -0.1726  -18.8766  -42.9900 H         1 UNK         0.3000 
    155 H155       -2.5847  -20.4727  -44.9330 H         1 UNK         0.0600 
    156 H156       -3.3652  -18.2702  -42.9536 H         1 UNK         0.0600 
    157 H157       -4.2150  -19.7967  -43.1745 H         1 UNK         0.0600 
    158 H158       -4.1791  -18.6194  -44.4764 H         1 UNK         0.0600 
    159 H159       -1.8660  -17.7333  -44.8668 H         1 UNK         0.3000 
    160 H160        1.2478  -18.0411  -46.6158 H         1 UNK         0.0600 
    161 H161       -1.4482  -16.7622  -47.2991 H         1 UNK         0.0600 
    162 H162       -0.6642  -18.0063  -48.2652 H         1 UNK         0.0600 
    163 H163        0.0990  -16.4345  -48.0672 H         1 UNK         0.0600 
    164 H164       -0.0386  -15.7410  -45.5684 H         1 UNK         0.3000 
    165 H165        1.4355  -15.8175  -42.2823 H         1 UNK         0.0600 
    166 H166        1.9887  -13.5172  -43.1223 H         1 UNK         0.0600 
    167 H167        3.0582  -14.7474  -43.7740 H         1 UNK         0.0600 
    168 H168        1.7873  -14.0757  -44.7809 H         1 UNK         0.0600 
    169 H169       -0.5233  -14.1796  -43.6871 H         1 UNK         0.3000 
    170 H170       -3.3622  -15.7317  -42.2490 H         1 UNK         0.0600 
    171 H171       -2.5845  -14.3100  -40.3431 H         1 UNK         0.0600 
    172 H172       -2.1106  -13.0418  -41.4673 H         1 UNK         0.0600 
    173 H173       -3.8093  -13.4859  -41.2943 H         1 UNK         0.0600 
    174 H174       -3.0738  -13.3218  -43.7360 H         1 UNK         0.3000 
    175 H175       -2.9316  -14.7531  -46.9976 H         1 UNK         0.0600 
    176 H176       -5.1608  -13.2232  -45.5497 H         1 UNK         0.0600 
    177 H177       -4.9309  -13.3243  -47.2958 H         1 UNK         0.0600 
    178 H178       -5.3554  -14.7615  -46.3812 H         1 UNK         0.0600 
    179 H179       -3.0330  -12.0521  -46.1242 H         1 UNK         0.3000 
    180 H180       -1.0582  -10.7822  -46.6068 H         1 UNK         0.0600 
    181 H181       -0.1260  -11.6451  -43.7928 H         1 UNK         0.0600 
    182 H182       -1.6688  -10.8810  -44.1620 H         1 UNK         0.0600 
    183 H183       -0.1755   -9.9847  -44.3790 H         1 UNK         0.0600 
    184 H184        1.2112  -12.5280  -46.3016 H         1 UNK         0.3000 
    185 H185        3.2245  -10.5041  -48.2696 H         1 UNK         0.0600 
    186 H186        4.0351   -9.5774  -46.0921 H         1 UNK         0.0600 
    187 H187        3.9338  -11.1745  -45.3609 H         1 UNK         0.0600 
    188 H188        5.0844  -10.8645  -46.6623 H         1 UNK         0.0600 
    189 H189        3.7961  -12.9924  -47.0399 H         1 UNK         0.3000 
    190 H190       -0.1015  -21.9594  -45.6702 H         1 UNK         0.3000 
    191 H191       -1.9790  -22.7957  -44.8358 H         1 UNK         0.0600 
    192 H192       -0.2239  -25.2563  -44.2970 H         1 UNK         0.0600 
    193 H193       -1.7426  -24.8782  -43.4795 H         1 UNK         0.0600 
    194 H194       -0.3555  -23.8263  -43.2838 H         1 UNK         0.0600 
    195 H195       -1.7487  -26.1306  -45.3768 H         1 UNK         0.3000 
    196 H196       -4.1667  -26.2793  -46.7871 H         1 UNK         0.0600 
    197 H197       -3.5901  -28.7070  -46.9938 H         1 UNK         0.0600 
    198 H198       -3.2811  -28.1087  -45.3721 H         1 UNK         0.0600 
    199 H199       -1.9394  -28.3655  -46.4884 H         1 UNK         0.0600 
    200 H200       -0.8590  -26.0823  -48.0475 H         1 UNK         0.3000 
    201 H201       -1.4834  -26.8397  -50.7629 H         1 UNK         0.0600 
    202 H202        0.8064  -27.0198  -49.8387 H         1 UNK         0.0600 
    203 H203        0.8748  -25.2783  -49.5870 H         1 UNK         0.0600 
    204 H204        0.7984  -25.9335  -51.2186 H         1 UNK         0.0600 
    205 H205       -1.9270  -23.9013  -48.9306 H         1 UNK         0.3000 
    206 H206       -2.3990  -22.2404  -51.3604 H         1 UNK         0.0600 
    207 H207       -0.9916  -21.2236  -49.5694 H         1 UNK         0.0600 
    208 H208       -2.4993  -20.3754  -49.7043 H         1 UNK         0.0600 
    209 H209       -2.2504  -21.5023  -48.3783 H         1 UNK         0.0600 
    210 H210       -4.0691  -24.4455  -49.5487 H         1 UNK         0.3000 
    211 H211       -6.1192  -24.8978  -48.8775 H         1 UNK         0.0600 
    212 H212       -7.1154  -22.7996  -50.8792 H         1 UNK         0.0600 
    213 H213       -8.0472  -24.1159  -50.1873 H         1 UNK         0.0600 
    214 H214       -6.7209  -24.4684  -51.2841 H         1 UNK         0.0600 
    215 H215       -4.6600  -23.2431  -47.2502 H         1 UNK         0.3000 
    216 H216       -4.6612  -21.8621  -45.5323 H         1 UNK         0.0600 
    217 H217       -6.6791  -21.5414  -44.1653 H         1 UNK         0.0600 
    218 H218       -6.6070  -23.2069  -44.7176 H         1 UNK         0.0600 
    219 H219       -7.7168  -22.0696  -45.4817 H         1 UNK         0.0600 
    220 H220       -4.4621  -20.8121  -48.0452 H         1 UNK         0.3000 
    221 H221       -4.1224  -18.9367  -49.1287 H         1 UNK         0.0600 
    222 H222       -5.1853  -17.3407  -46.7535 H         1 UNK         0.0600 
    223 H223       -3.5289  -17.9118  -46.9329 H         1 UNK         0.0600 
    224 H224       -4.1847  -16.7464  -48.0702 H         1 UNK         0.0600 
    225 H225       -6.9697  -20.2884  -48.8967 H         1 UNK         0.3000 
    226 H226       -8.6874  -18.2445  -50.0510 H         1 UNK         0.0600 
    227 H227       -9.5651  -20.2130  -48.7445 H         1 UNK         0.0600 
    228 H228      -10.2702  -20.0851  -50.3497 H         1 UNK         0.0600 
    229 H229       -9.0277  -21.2860  -50.0377 H         1 UNK         0.0600 
    230 H230       -6.3706  -20.6206  -51.2770 H         1 UNK         0.3000 
    231 H231       -7.1415  -20.0352  -54.1121 H         1 UNK         0.0600 
    232 H232       -7.1828  -22.4379  -53.5128 H         1 UNK         0.0600 
    233 H233       -5.5181  -22.3580  -52.9461 H         1 UNK         0.0600 
    234 H234       -5.8847  -22.0979  -54.6457 H         1 UNK         0.0600 
    235 H235       -4.3379  -20.4163  -51.9168 H         1 UNK         0.3000 
    236 H236       -2.1834  -19.7717  -51.9928 H         1 UNK         0.0600 
    237 H237       -3.4193  -17.1495  -52.9719 H         1 UNK         0.0600 
    238 H238       -3.3252  -17.6750  -51.2923 H         1 UNK         0.0600 
    239 H239       -1.8545  -17.3244  -52.1859 H         1 UNK         0.0600 
    240 H240       -2.6738  -21.3181  -54.1106 H         1 UNK         0.3000 
    241 H241       -2.1723  -22.0596  -56.0391 H         1 UNK         0.0600 
    242 H242       -3.7757  -19.3395  -56.1040 H         1 UNK         0.3800 
    243 H243       -3.7855  -19.0723  -57.8284 H         1 UNK         0.3800 
    244 H244       -0.0048  -22.0091  -56.9351 H         1 UNK         0.0800 
    245 H245        0.1481  -21.9050  -55.2156 H         1 UNK         0.0800 
    246 H246        3.1003  -19.5430  -55.4415 H         1 UNK         0.0800 
    247 H247        2.7092  -21.2420  -55.5092 H         1 UNK         0.0800 
@<TRIPOS>BOND
     1    1    2 1    
     2    1  127 1    
     3    1  128 1    
     4    1  129 1    
     5    2    3 2    
     6    2    4 am   BACKBONE|DICT|INTERRES
     7    4    5 1    
     8    4  130 1    
     9    5    6 1    
    10    5   65 1    
    11    5  131 1    
    12    6    7 1    
    13    6  132 1    
    14    6  133 1    
    15    7    8 1    
    16    8    9 1    
    17    8  134 1    
    18    8  135 1    
    19    9   10 ar   
    20    9   14 ar   
    21   10   11 ar   
    22   10  136 1    
    23   11   12 ar   
    24   11  126 1    
    25   12   13 ar   
    26   12  137 1    
    27   13   14 ar   
    28   13   15 1    
    29   14  138 1    
    30   15   16 1    
    31   15  139 1    
    32   15  140 1    
    33   16   17 1    
    34   17   18 1    
    35   17  141 1    
    36   17  142 1    
    37   18   19 1    
    38   18   67 1    
    39   18  143 1    
    40   19   20 am   BACKBONE|DICT|INTERRES
    41   19  144 1    
    42   20   21 2    
    43   20   22 1    
    44   22   23 1    
    45   22   24 1    
    46   22  145 1    
    47   23  146 1    
    48   23  147 1    
    49   23  148 1    
    50   24   25 am   BACKBONE|DICT|INTERRES
    51   24  149 1    
    52   25   26 2    
    53   25   27 1    
    54   27   28 1    
    55   27   29 1    
    56   27  150 1    
    57   28  151 1    
    58   28  152 1    
    59   28  153 1    
    60   29   30 am   BACKBONE|DICT|INTERRES
    61   29  154 1    
    62   30   31 2    
    63   30   32 1    
    64   32   33 1    
    65   32   34 1    
    66   32  155 1    
    67   33  156 1    
    68   33  157 1    
    69   33  158 1    
    70   34   35 am   BACKBONE|DICT|INTERRES
    71   34  159 1    
    72   35   36 2    
    73   35   37 1    
    74   37   38 1    
    75   37   39 1    
    76   37  160 1    
    77   38  161 1    
    78   38  162 1    
    79   38  163 1    
    80   39   40 am   BACKBONE|DICT|INTERRES
    81   39  164 1    
    82   40   41 2    
    83   40   42 1    
    84   42   43 1    
    85   42   44 1    
    86   42  165 1    
    87   43  166 1    
    88   43  167 1    
    89   43  168 1    
    90   44   45 am   BACKBONE|DICT|INTERRES
    91   44  169 1    
    92   45   46 2    
    93   45   47 1    
    94   47   48 1    
    95   47   49 1    
    96   47  170 1    
    97   48  171 1    
    98   48  172 1    
    99   48  173 1    
   100   49   50 am   BACKBONE|DICT|INTERRES
   101   49  174 1    
   102   50   51 2    
   103   50   52 1    
   104   52   53 1    
   105   52   54 1    
   106   52  175 1    
   107   53  176 1    
   108   53  177 1    
   109   53  178 1    
   110   54   55 am   BACKBONE|DICT|INTERRES
   111   54  179 1    
   112   55   56 2    
   113   55   57 1    
   114   57   58 1    
   115   57   59 1    
   116   57  180 1    
   117   58  181 1    
   118   58  182 1    
   119   58  183 1    
   120   59   60 am   BACKBONE|DICT|INTERRES
   121   59  184 1    
   122   60   61 2    
   123   60   62 1    
   124   62   63 1    
   125   62   64 1    
   126   62  185 1    
   127   63  186 1    
   128   63  187 1    
   129   63  188 1    
   130   64   65 am   BACKBONE|DICT|INTERRES
   131   64  189 1    
   132   65   66 2    
   133   67   68 2    
   134   67   69 am   BACKBONE|DICT|INTERRES
   135   69   70 1    
   136   69  190 1    
   137   70   71 1    
   138   70   72 1    
   139   70  191 1    
   140   71  192 1    
   141   71  193 1    
   142   71  194 1    
   143   72   73 2    
   144   72   74 am   BACKBONE|DICT|INTERRES
   145   74   75 1    
   146   74  195 1    
   147   75   76 1    
   148   75   77 1    
   149   75  196 1    
   150   76  197 1    
   151   76  198 1    
   152   76  199 1    
   153   77   78 2    
   154   77   79 am   BACKBONE|DICT|INTERRES
   155   79   80 1    
   156   79  200 1    
   157   80   81 1    
   158   80   82 1    
   159   80  201 1    
   160   81  202 1    
   161   81  203 1    
   162   81  204 1    
   163   82   83 2    
   164   82   84 am   BACKBONE|DICT|INTERRES
   165   84   85 1    
   166   84  205 1    
   167   85   86 1    
   168   85   87 1    
   169   85  206 1    
   170   86  207 1    
   171   86  208 1    
   172   86  209 1    
   173   87   88 2    
   174   87   89 am   BACKBONE|DICT|INTERRES
   175   89   90 1    
   176   89  210 1    
   177   90   91 1    
   178   90   92 1    
   179   90  211 1    
   180   91  212 1    
   181   91  213 1    
   182   91  214 1    
   183   92   93 2    
   184   92   94 am   BACKBONE|DICT|INTERRES
   185   94   95 1    
   186   94  215 1    
   187   95   96 1    
   188   95   97 1    
   189   95  216 1    
   190   96  217 1    
   191   96  218 1    
   192   96  219 1    
   193   97   98 2    
   194   97   99 am   BACKBONE|DICT|INTERRES
   195   99  100 1    
   196   99  220 1    
   197  100  101 1    
   198  100  102 1    
   199  100  221 1    
   200  101  222 1    
   201  101  223 1    
   202  101  224 1    
   203  102  103 2    
   204  102  104 am   BACKBONE|DICT|INTERRES
   205  104  105 1    
   206  104  225 1    
   207  105  106 1    
   208  105  107 1    
   209  105  226 1    
   210  106  227 1    
   211  106  228 1    
   212  106  229 1    
   213  107  108 2    
   214  107  109 am   BACKBONE|DICT|INTERRES
   215  109  110 1    
   216  109  230 1    
   217  110  111 1    
   218  110  112 1    
   219  110  231 1    
   220  111  232 1    
   221  111  233 1    
   222  111  234 1    
   223  112  113 2    
   224  112  114 am   BACKBONE|DICT|INTERRES
   225  114  115 1    
   226  114  235 1    
   227  115  116 1    
   228  115  117 1    
   229  115  236 1    
   230  116  237 1    
   231  116  238 1    
   232  116  239 1    
   233  117  118 2    
   234  117  119 am   BACKBONE|DICT|INTERRES
   235  119  120 1    
   236  119  240 1    
   237  120  121 1    
   238  120  124 1    
   239  120  241 1    
   240  121  122 am   BACKBONE|DICT|INTERRES
   241  121  123 2    
   242  122  242 1    
   243  122  243 1    
   244  124  125 1    
   245  124  244 1    
   246  124  245 1    
   247  125  126 1    
   248  126  246 1    
   249  126  247 1    
@<TRIPOS>SUBSTRUCTURE
     1 UNK         1 GROUP             0       ****    0 ROOT    
