@<TRIPOS>MOLECULE
3R540
247   249    1
SMALL
USER_CHARGES


@<TRIPOS>ATOM
      1 CA         -0.6871  -12.4329  -49.6561 C.3       0 UNK        -0.1800 
      2 C           0.6414  -11.6946  -49.5598 C.2       0 UNK         0.5000 
      3 O           0.7311  -10.5317  -49.9547 O.2       0 UNK        -0.5000 
      4 N           1.6712  -12.3737  -49.0454 N.am      1 UNK        -0.5000 
      5 CA          3.0109  -11.8365  -48.7936 C.3       1 UNK         0.1400 
      6 C6          4.0687  -12.9697  -48.8234 C.3       23 UNK        -0.0398 
      7 S7          3.7520  -14.3360  -47.6465 S.3       23 UNK        -0.2404 
      8 C8          4.5662  -15.7195  -48.5141 C.3       23 UNK        -0.0205 
      9 C9          3.6187  -16.6127  -49.3130 C.ar      23 UNK        -0.0193 
     10 C10         2.6032  -16.0803  -50.1173 C.ar      23 UNK        -0.1150 
     11 C11         1.7853  -16.9179  -50.8821 C.ar      23 UNK        -0.0193 
     12 C12         1.9866  -18.3002  -50.8445 C.ar      23 UNK        -0.1150 
     13 C13         3.0055  -18.8455  -50.0599 C.ar      23 UNK        -0.0193 
     14 C14         3.8097  -17.9983  -49.2921 C.ar      23 UNK        -0.1150 
     15 C15         3.2774  -20.3425  -50.0822 C.3       23 UNK        -0.0205 
     16 S16         2.6660  -21.1783  -48.5890 S.3       23 UNK        -0.2404 
     17 C17         0.8653  -21.1733  -48.8743 C.3       23 UNK        -0.0398 
     18 CA          0.1500  -22.2255  -47.9960 C.3       11 UNK         0.1400 
     19 N           0.2544  -21.9404  -46.5612 N.am      11 UNK        -0.5000 
     20 C          -0.1197  -22.7857  -45.5907 C.2       10 UNK         0.5000 
     21 O          -0.5653  -23.9135  -45.8020 O.2       10 UNK        -0.5000 
     22 CA         -0.0266  -22.2731  -44.1431 C.3       10 UNK         0.1400 
     23 CB          1.4053  -22.4047  -43.6041 C.3       10 UNK        -0.1800 
     24 N          -0.4883  -20.8906  -44.0108 N.am      10 UNK        -0.5000 
     25 C          -1.7582  -20.5033  -44.2020 C.2       9 UNK         0.5000 
     26 O          -2.6771  -21.2830  -44.4574 O.2       9 UNK        -0.5000 
     27 CA         -2.0428  -18.9895  -44.1483 C.3       9 UNK         0.1400 
     28 CB         -2.0736  -18.4854  -42.6972 C.3       9 UNK        -0.1800 
     29 N          -1.0769  -18.2025  -44.9141 N.am      9 UNK        -0.5000 
     30 C          -0.8509  -18.3291  -46.2297 C.2       8 UNK         0.5000 
     31 O          -1.4881  -19.0781  -46.9654 O.2       8 UNK        -0.5000 
     32 CA          0.3206  -17.5248  -46.8169 C.3       8 UNK         0.1400 
     33 CB         -0.1586  -16.1377  -47.2613 C.3       8 UNK        -0.1800 
     34 N           1.4529  -17.4197  -45.8903 N.am      8 UNK        -0.5000 
     35 C           2.1544  -18.4782  -45.4591 C.2       7 UNK         0.5000 
     36 O           1.8995  -19.6397  -45.7738 O.2       7 UNK        -0.5000 
     37 CA          3.3045  -18.2012  -44.4810 C.3       7 UNK         0.1400 
     38 CB          4.4043  -17.3443  -45.1231 C.3       7 UNK        -0.1800 
     39 N           2.8557  -17.5745  -43.2398 N.am      7 UNK        -0.5000 
     40 C           2.1313  -18.1937  -42.2976 C.2       6 UNK         0.5000 
     41 O           1.6226  -19.3045  -42.4447 O.2       6 UNK        -0.5000 
     42 CA          1.9601  -17.4578  -40.9612 C.3       6 UNK         0.1400 
     43 CB          3.3072  -17.3133  -40.2335 C.3       6 UNK        -0.1800 
     44 N           1.3847  -16.1356  -41.1767 N.am      6 UNK        -0.5000 
     45 C           0.2034  -15.7274  -40.6952 C.2       5 UNK         0.5000 
     46 O          -0.4997  -16.3984  -39.9385 O.2       5 UNK        -0.5000 
     47 CA         -0.2923  -14.3340  -41.1366 C.3       5 UNK         0.1400 
     48 CB         -0.0179  -13.2947  -40.0388 C.3       5 UNK        -0.1800 
     49 N           0.2912  -13.8577  -42.3932 N.am      5 UNK        -0.5000 
     50 C           0.1762  -14.4711  -43.5780 C.2       4 UNK         0.5000 
     51 O          -0.4529  -15.5143  -43.7561 O.2       4 UNK        -0.5000 
     52 CA          0.9265  -13.8419  -44.7636 C.3       4 UNK         0.1400 
     53 CB         -0.0165  -12.9085  -45.5381 C.3       4 UNK        -0.1800 
     54 N           2.1871  -13.1562  -44.4530 N.am      4 UNK        -0.5000 
     55 C           3.2187  -13.6773  -43.7662 C.2       3 UNK         0.5000 
     56 O           3.1592  -14.7589  -43.1767 O.2       3 UNK        -0.5000 
     57 CA          4.5464  -12.8914  -43.7508 C.3       3 UNK         0.1400 
     58 CB          5.7494  -13.8375  -43.9161 C.3       3 UNK        -0.1800 
     59 N           4.6088  -11.8853  -44.8115 N.am      3 UNK        -0.5000 
     60 C           4.4138  -10.5690  -44.6583 C.2       2 UNK         0.5000 
     61 O           4.1633  -10.0360  -43.5771 O.2       2 UNK        -0.5000 
     62 CA          4.4969   -9.7001  -45.9337 C.3       2 UNK         0.1400 
     63 CB          5.8746   -9.0274  -46.0332 C.3       2 UNK        -0.1800 
     64 N           4.2370  -10.4380  -47.1770 N.am      2 UNK        -0.5000 
     65 C           3.0654  -11.0129  -47.4839 C.2       1 UNK         0.5000 
     66 O           2.0797  -10.9338  -46.7488 O.2       1 UNK        -0.5000 
     67 C          -1.3135  -22.4200  -48.4395 C.2       11 UNK         0.5000 
     68 O          -1.5933  -23.3676  -49.1697 O.2       11 UNK        -0.5000 
     69 N          -2.2274  -21.5650  -47.9599 N.am      12 UNK        -0.5000 
     70 CA         -3.6686  -21.6634  -48.1924 C.3       12 UNK         0.1400 
     71 CB         -4.3730  -20.4230  -47.6247 C.3       12 UNK        -0.1800 
     72 C          -4.2839  -22.9454  -47.6076 C.2       12 UNK         0.5000 
     73 O          -5.1219  -23.5638  -48.2661 O.2       12 UNK        -0.5000 
     74 N          -3.8426  -23.3339  -46.4030 N.am      13 UNK        -0.5000 
     75 CA         -4.2354  -24.5781  -45.7419 C.3       13 UNK         0.1400 
     76 CB         -3.7431  -24.5739  -44.2869 C.3       13 UNK        -0.1800 
     77 C          -3.7332  -25.8218  -46.4971 C.2       13 UNK         0.5000 
     78 O          -4.5163  -26.7425  -46.7336 O.2       13 UNK        -0.5000 
     79 N          -2.4566  -25.8058  -46.9093 N.am      14 UNK        -0.5000 
     80 CA         -1.8271  -26.8477  -47.7274 C.3       14 UNK         0.1400 
     81 CB         -0.3239  -26.5596  -47.8550 C.3       14 UNK        -0.1800 
     82 C          -2.4749  -26.9909  -49.1185 C.2       14 UNK         0.5000 
     83 O          -2.6165  -28.1081  -49.6158 O.2       14 UNK        -0.5000 
     84 N          -2.9055  -25.8604  -49.6911 N.am      15 UNK        -0.5000 
     85 CA         -3.6642  -25.7572  -50.9365 C.3       15 UNK         0.1400 
     86 CB         -3.4048  -24.3746  -51.5585 C.3       15 UNK        -0.1800 
     87 C          -5.1756  -26.0271  -50.7667 C.2       15 UNK         0.5000 
     88 O          -5.9343  -25.7162  -51.6827 O.2       15 UNK        -0.5000 
     89 N          -5.5978  -26.5895  -49.6229 N.am      16 UNK        -0.5000 
     90 CA         -6.9562  -27.0464  -49.3094 C.3       16 UNK         0.1400 
     91 CB         -7.3056  -28.2918  -50.1508 C.3       16 UNK        -0.1800 
     92 C          -8.0077  -25.9247  -49.4279 C.2       16 UNK         0.5000 
     93 O          -8.9718  -26.0512  -50.1852 O.2       16 UNK        -0.5000 
     94 N          -7.7715  -24.8400  -48.6785 N.am      17 UNK        -0.5000 
     95 CA         -8.5205  -23.5799  -48.6779 C.3       17 UNK         0.1400 
     96 CB        -10.0162  -23.7818  -48.3510 C.3       17 UNK        -0.1800 
     97 C          -8.2620  -22.7681  -49.9620 C.2       17 UNK         0.5000 
     98 O          -9.1965  -22.2698  -50.5918 O.2       17 UNK        -0.5000 
     99 N          -6.9697  -22.6319  -50.2872 N.am      18 UNK        -0.5000 
    100 CA        -6.3952  -21.7728  -51.3227 C.3       18 UNK         0.1400 
    101 CB        -6.5902  -20.2862  -50.9592 C.3       18 UNK        -0.1800 
    102 C         -6.8392  -22.0989  -52.7629 C.2       18 UNK         0.5000 
    103 O         -7.0980  -21.1820  -53.5456 O.2       18 UNK        -0.5000 
    104 N         -6.8812  -23.3902  -53.1193 N.am      19 UNK        -0.5000 
    105 CA        -7.0605  -23.8351  -54.5012 C.3       19 UNK         0.1400 
    106 CB        -7.4619  -25.3195  -54.5280 C.3       19 UNK        -0.1800 
    107 C         -5.7653  -23.5706  -55.2933 C.2       19 UNK         0.5000 
    108 O         -4.7925  -24.3108  -55.1382 O.2       19 UNK        -0.5000 
    109 N         -5.7728  -22.4889  -56.0847 N.am      20 UNK        -0.5000 
    110 CA        -4.6459  -21.9466  -56.8529 C.3       20 UNK         0.1400 
    111 CB        -4.1877  -22.9346  -57.9474 C.3       20 UNK        -0.1800 
    112 C         -3.4921  -21.4465  -55.9543 C.2       20 UNK         0.5000 
    113 O         -2.3214  -21.6995  -56.2458 O.2       20 UNK        -0.5000 
    114 N         -3.8468  -20.7233  -54.8856 N.am      21 UNK        -0.5000 
    115 CA        -2.9276  -20.0198  -53.9925 C.3       21 UNK         0.1400 
    116 CB        -2.5995  -20.9047  -52.7765 C.3       21 UNK        -0.1800 
    117 C         -3.5651  -18.6853  -53.5708 C.2       21 UNK         0.5000 
    118 O         -4.7421  -18.4499  -53.8566 O.2       21 UNK        -0.5000 
    119 N         -2.7775  -17.8308  -52.9070 N.am      22 UNK        -0.5000 
    120 CA        -3.2055  -16.5030  -52.4298 C.3       22 UNK         0.1400 
    121 C         -4.2009  -16.5114  -51.2302 C.2       22 UNK         0.5000 
    122 N         -4.3394  -17.6053  -50.4916 N.am      22 UNK        -0.7600 
    123 O         -4.8633  -15.5094  -50.9746 O.2       22 UNK        -0.5000 
    124 C124       -1.9957  -15.5699  -52.1617 C.3       23 UNK        -0.0398 
    125 S125       -0.8667  -16.1919  -50.8666 S.3       23 UNK        -0.2404 
    126 C126        0.7005  -16.3304  -51.7700 C.3       23 UNK        -0.0205 
    127 H127       -1.4595  -11.8887  -49.1128 H         1 UNK         0.0600 
    128 H128       -0.6237  -13.4380  -49.2376 H         1 UNK         0.0600 
    129 H129       -0.9953  -12.5186  -50.6980 H         1 UNK         0.0600 
    130 H130        1.5245  -13.3125  -48.7059 H         1 UNK         0.3000 
    131 H131        3.2549  -11.1432  -49.6014 H         1 UNK         0.0600 
    132 H132        4.1038  -13.3789  -49.8338 H         1 UNK         0.0800 
    133 H133        5.0726  -12.5829  -48.6437 H         1 UNK         0.0800 
    134 H134        5.0940  -16.3103  -47.7664 H         1 UNK         0.0800 
    135 H135        5.3394  -15.3397  -49.1828 H         1 UNK         0.0800 
    136 H136        2.4498  -15.0129  -50.1616 H         1 UNK         0.1150 
    137 H137        1.3627  -18.9491  -51.4429 H         1 UNK         0.1150 
    138 H138        4.6028  -18.4237  -48.6931 H         1 UNK         0.1150 
    139 H139        2.8417  -20.8054  -50.9689 H         1 UNK         0.0800 
    140 H140        4.3533  -20.5073  -50.1561 H         1 UNK         0.0800 
    141 H141        0.6884  -21.3781  -49.9319 H         1 UNK         0.0800 
    142 H142        0.4748  -20.1736  -48.6829 H         1 UNK         0.0800 
    143 H143        0.6490  -23.1827  -48.1627 H         1 UNK         0.0600 
    144 H144        0.6720  -21.0503  -46.3017 H         1 UNK         0.3000 
    145 H145       -0.6743  -22.9019  -43.5286 H         1 UNK         0.0600 
    146 H146        1.4558  -22.1266  -42.5514 H         1 UNK         0.0600 
    147 H147        1.7605  -23.4325  -43.6867 H         1 UNK         0.0600 
    148 H148        2.1039  -21.7706  -44.1505 H         1 UNK         0.0600 
    149 H149        0.2188  -20.1964  -43.7949 H         1 UNK         0.3000 
    150 H150       -3.0275  -18.8217  -44.5889 H         1 UNK         0.0600 
    151 H151       -2.7983  -19.0446  -42.1042 H         1 UNK         0.0600 
    152 H152       -2.3575  -17.4337  -42.6512 H         1 UNK         0.0600 
    153 H153       -1.1024  -18.5879  -42.2121 H         1 UNK         0.0600 
    154 H154       -0.5529  -17.5018  -44.4023 H         1 UNK         0.3000 
    155 H155        0.6780  -18.0487  -47.7055 H         1 UNK         0.0600 
    156 H156       -0.9252  -16.2316  -48.0288 H         1 UNK         0.0600 
    157 H157        0.6537  -15.5434  -47.6798 H         1 UNK         0.0600 
    158 H158       -0.6171  -15.5876  -46.4425 H         1 UNK         0.0600 
    159 H159        1.7120  -16.5007  -45.5701 H         1 UNK         0.3000 
    160 H160        3.7501  -19.1644  -44.2226 H         1 UNK         0.0600 
    161 H161        5.2479  -17.2129  -44.4452 H         1 UNK         0.0600 
    162 H162        4.0413  -16.3539  -45.3966 H         1 UNK         0.0600 
    163 H163        4.7849  -17.8239  -46.0250 H         1 UNK         0.0600 
    164 H164        3.1724  -16.6226  -43.0775 H         1 UNK         0.3000 
    165 H165        1.3062  -18.0705  -40.3371 H         1 UNK         0.0600 
    166 H166        3.1715  -16.8721  -39.2460 H         1 UNK         0.0600 
    167 H167        3.7823  -18.2850  -40.0931 H         1 UNK         0.0600 
    168 H168        4.0036  -16.6815  -40.7865 H         1 UNK         0.0600 
    169 H169        1.8832  -15.5253  -41.8157 H         1 UNK         0.3000 
    170 H170       -1.3722  -14.4058  -41.2808 H         1 UNK         0.0600 
    171 H171       -0.4636  -13.5995  -39.0910 H         1 UNK         0.0600 
    172 H172        1.0517  -13.1615  -39.8709 H         1 UNK         0.0600 
    173 H173       -0.4419  -12.3244  -40.2978 H         1 UNK         0.0600 
    174 H174        0.8443  -13.0147  -42.3459 H         1 UNK         0.3000 
    175 H175        1.2054  -14.6619  -45.4215 H         1 UNK         0.0600 
    176 H176       -0.0943  -11.9290  -45.0652 H         1 UNK         0.0600 
    177 H177        0.3282  -12.7681  -46.5603 H         1 UNK         0.0600 
    178 H178       -1.0254  -13.3181  -45.6071 H         1 UNK         0.0600 
    179 H179        2.3245  -12.2663  -44.9156 H         1 UNK         0.3000 
    180 H180        4.6232  -12.4147  -42.7719 H         1 UNK         0.0600 
    181 H181        5.7050  -14.3829  -44.8597 H         1 UNK         0.0600 
    182 H182        5.7894  -14.5736  -43.1121 H         1 UNK         0.0600 
    183 H183        6.6894  -13.2860  -43.8924 H         1 UNK         0.0600 
    184 H184        4.7876  -12.2341  -45.7420 H         1 UNK         0.3000 
    185 H185        3.7407   -8.9174  -45.8434 H         1 UNK         0.0600 
    186 H186        6.0907   -8.4439  -45.1372 H         1 UNK         0.0600 
    187 H187        6.6735   -9.7613  -46.1472 H         1 UNK         0.0600 
    188 H188        5.9207   -8.3445  -46.8817 H         1 UNK         0.0600 
    189 H189        5.0125  -10.5149  -47.8192 H         1 UNK         0.3000 
    190 H190       -1.9147  -20.7659  -47.4103 H         1 UNK         0.3000 
    191 H191       -3.8301  -21.6810  -49.2714 H         1 UNK         0.0600 
    192 H192       -4.1750  -20.3008  -46.5596 H         1 UNK         0.0600 
    193 H193       -5.4542  -20.4911  -47.7489 H         1 UNK         0.0600 
    194 H194       -4.0406  -19.5164  -48.1301 H         1 UNK         0.0600 
    195 H195       -3.1868  -22.7396  -45.9076 H         1 UNK         0.3000 
    196 H196       -5.3266  -24.6175  -45.7266 H         1 UNK         0.0600 
    197 H197       -4.0534  -25.4814  -43.7677 H         1 UNK         0.0600 
    198 H198       -4.1527  -23.7270  -43.7361 H         1 UNK         0.0600 
    199 H199       -2.6565  -24.5159  -44.2256 H         1 UNK         0.0600 
    200 H200       -1.8653  -25.0234  -46.6391 H         1 UNK         0.3000 
    201 H201       -1.9493  -27.7989  -47.2055 H         1 UNK         0.0600 
    202 H202        0.1551  -26.5243  -46.8764 H         1 UNK         0.0600 
    203 H203       -0.1380  -25.6072  -48.3522 H         1 UNK         0.0600 
    204 H204        0.1756  -27.3366  -48.4349 H         1 UNK         0.0600 
    205 H205       -2.6733  -24.9787  -49.2430 H         1 UNK         0.3000 
    206 H206       -3.2909  -26.5090  -51.6344 H         1 UNK         0.0600 
    207 H207       -2.3429  -24.2259  -51.7541 H         1 UNK         0.0600 
    208 H208       -3.9244  -24.2548  -52.5096 H         1 UNK         0.0600 
    209 H209       -3.7343  -23.5766  -50.8955 H         1 UNK         0.0600 
    210 H210       -4.9144  -26.7460  -48.8925 H         1 UNK         0.3000 
    211 H211       -6.9454  -27.3511  -48.2618 H         1 UNK         0.0600 
    212 H212       -7.3488  -28.0631  -51.2163 H         1 UNK         0.0600 
    213 H213       -8.2763  -28.6973  -49.8633 H         1 UNK         0.0600 
    214 H214       -6.5687  -29.0822  -50.0079 H         1 UNK         0.0600 
    215 H215       -6.8975  -24.8120  -48.1664 H         1 UNK         0.3000 
    216 H216       -8.0976  -22.9889  -47.8639 H         1 UNK         0.0600 
    217 H217      -10.5060  -22.8221  -48.1831 H         1 UNK         0.0600 
    218 H218      -10.1463  -24.3752  -47.4461 H         1 UNK         0.0600 
    219 H219      -10.5526  -24.2777  -49.1599 H         1 UNK         0.0600 
    220 H220       -6.2970  -23.1055  -49.6900 H         1 UNK         0.3000 
    221 H221       -5.3267  -21.9706  -51.2972 H         1 UNK         0.0600 
    222 H222       -7.6414  -19.9982  -50.9859 H         1 UNK         0.0600 
    223 H223       -6.2085  -20.0666  -49.9638 H         1 UNK         0.0600 
    224 H224       -6.0590  -19.6386  -51.6573 H         1 UNK         0.0600 
    225 H225       -6.6233  -24.1126  -52.4509 H         1 UNK         0.3000 
    226 H226       -7.8794  -23.2685  -54.9499 H         1 UNK         0.0600 
    227 H227       -7.6959  -25.6370  -55.5446 H         1 UNK         0.0600 
    228 H228       -6.6650  -25.9673  -54.1626 H         1 UNK         0.0600 
    229 H229       -8.3459  -25.5010  -53.9164 H         1 UNK         0.0600 
    230 H230       -6.6106  -21.9228  -56.0930 H         1 UNK         0.3000 
    231 H231       -5.0292  -21.0610  -57.3618 H         1 UNK         0.0600 
    232 H232       -5.0255  -23.2516  -58.5685 H         1 UNK         0.0600 
    233 H233       -3.7261  -23.8274  -57.5251 H         1 UNK         0.0600 
    234 H234       -3.4535  -22.4710  -58.6071 H         1 UNK         0.0600 
    235 H235       -4.8246  -20.5033  -54.7354 H         1 UNK         0.3000 
    236 H236       -2.0040  -19.7861  -54.5264 H         1 UNK         0.0600 
    237 H237       -2.2132  -21.8757  -53.0872 H         1 UNK         0.0600 
    238 H238       -1.8403  -20.4436  -52.1441 H         1 UNK         0.0600 
    239 H239       -3.4776  -21.0769  -52.1581 H         1 UNK         0.0600 
    240 H240       -1.8282  -18.0918  -52.6859 H         1 UNK         0.3000 
    241 H241       -3.7625  -16.0470  -53.2509 H         1 UNK         0.0600 
    242 H242       -4.9857  -17.5970  -49.7199 H         1 UNK         0.3800 
    243 H243       -3.7784  -18.4185  -50.6779 H         1 UNK         0.3800 
    244 H244       -1.4401  -15.4228  -53.0887 H         1 UNK         0.0800 
    245 H245       -2.3374  -14.5757  -51.8689 H         1 UNK         0.0800 
    246 H246        1.0009  -15.3445  -52.1285 H         1 UNK         0.0800 
    247 H247        0.5617  -16.9541  -52.6543 H         1 UNK         0.0800 
@<TRIPOS>BOND
     1    1    2 1    
     2    1  127 1    
     3    1  128 1    
     4    1  129 1    
     5    2    3 2    
     6    2    4 am   BACKBONE|DICT|INTERRES
     7    4    5 1    
     8    4  130 1    
     9    5    6 1    
    10    5   65 1    
    11    5  131 1    
    12    6    7 1    
    13    6  132 1    
    14    6  133 1    
    15    7    8 1    
    16    8    9 1    
    17    8  134 1    
    18    8  135 1    
    19    9   10 ar   
    20    9   14 ar   
    21   10   11 ar   
    22   10  136 1    
    23   11   12 ar   
    24   11  126 1    
    25   12   13 ar   
    26   12  137 1    
    27   13   14 ar   
    28   13   15 1    
    29   14  138 1    
    30   15   16 1    
    31   15  139 1    
    32   15  140 1    
    33   16   17 1    
    34   17   18 1    
    35   17  141 1    
    36   17  142 1    
    37   18   19 1    
    38   18   67 1    
    39   18  143 1    
    40   19   20 am   BACKBONE|DICT|INTERRES
    41   19  144 1    
    42   20   21 2    
    43   20   22 1    
    44   22   23 1    
    45   22   24 1    
    46   22  145 1    
    47   23  146 1    
    48   23  147 1    
    49   23  148 1    
    50   24   25 am   BACKBONE|DICT|INTERRES
    51   24  149 1    
    52   25   26 2    
    53   25   27 1    
    54   27   28 1    
    55   27   29 1    
    56   27  150 1    
    57   28  151 1    
    58   28  152 1    
    59   28  153 1    
    60   29   30 am   BACKBONE|DICT|INTERRES
    61   29  154 1    
    62   30   31 2    
    63   30   32 1    
    64   32   33 1    
    65   32   34 1    
    66   32  155 1    
    67   33  156 1    
    68   33  157 1    
    69   33  158 1    
    70   34   35 am   BACKBONE|DICT|INTERRES
    71   34  159 1    
    72   35   36 2    
    73   35   37 1    
    74   37   38 1    
    75   37   39 1    
    76   37  160 1    
    77   38  161 1    
    78   38  162 1    
    79   38  163 1    
    80   39   40 am   BACKBONE|DICT|INTERRES
    81   39  164 1    
    82   40   41 2    
    83   40   42 1    
    84   42   43 1    
    85   42   44 1    
    86   42  165 1    
    87   43  166 1    
    88   43  167 1    
    89   43  168 1    
    90   44   45 am   BACKBONE|DICT|INTERRES
    91   44  169 1    
    92   45   46 2    
    93   45   47 1    
    94   47   48 1    
    95   47   49 1    
    96   47  170 1    
    97   48  171 1    
    98   48  172 1    
    99   48  173 1    
   100   49   50 am   BACKBONE|DICT|INTERRES
   101   49  174 1    
   102   50   51 2    
   103   50   52 1    
   104   52   53 1    
   105   52   54 1    
   106   52  175 1    
   107   53  176 1    
   108   53  177 1    
   109   53  178 1    
   110   54   55 am   BACKBONE|DICT|INTERRES
   111   54  179 1    
   112   55   56 2    
   113   55   57 1    
   114   57   58 1    
   115   57   59 1    
   116   57  180 1    
   117   58  181 1    
   118   58  182 1    
   119   58  183 1    
   120   59   60 am   BACKBONE|DICT|INTERRES
   121   59  184 1    
   122   60   61 2    
   123   60   62 1    
   124   62   63 1    
   125   62   64 1    
   126   62  185 1    
   127   63  186 1    
   128   63  187 1    
   129   63  188 1    
   130   64   65 am   BACKBONE|DICT|INTERRES
   131   64  189 1    
   132   65   66 2    
   133   67   68 2    
   134   67   69 am   BACKBONE|DICT|INTERRES
   135   69   70 1    
   136   69  190 1    
   137   70   71 1    
   138   70   72 1    
   139   70  191 1    
   140   71  192 1    
   141   71  193 1    
   142   71  194 1    
   143   72   73 2    
   144   72   74 am   BACKBONE|DICT|INTERRES
   145   74   75 1    
   146   74  195 1    
   147   75   76 1    
   148   75   77 1    
   149   75  196 1    
   150   76  197 1    
   151   76  198 1    
   152   76  199 1    
   153   77   78 2    
   154   77   79 am   BACKBONE|DICT|INTERRES
   155   79   80 1    
   156   79  200 1    
   157   80   81 1    
   158   80   82 1    
   159   80  201 1    
   160   81  202 1    
   161   81  203 1    
   162   81  204 1    
   163   82   83 2    
   164   82   84 am   BACKBONE|DICT|INTERRES
   165   84   85 1    
   166   84  205 1    
   167   85   86 1    
   168   85   87 1    
   169   85  206 1    
   170   86  207 1    
   171   86  208 1    
   172   86  209 1    
   173   87   88 2    
   174   87   89 am   BACKBONE|DICT|INTERRES
   175   89   90 1    
   176   89  210 1    
   177   90   91 1    
   178   90   92 1    
   179   90  211 1    
   180   91  212 1    
   181   91  213 1    
   182   91  214 1    
   183   92   93 2    
   184   92   94 am   BACKBONE|DICT|INTERRES
   185   94   95 1    
   186   94  215 1    
   187   95   96 1    
   188   95   97 1    
   189   95  216 1    
   190   96  217 1    
   191   96  218 1    
   192   96  219 1    
   193   97   98 2    
   194   97   99 am   BACKBONE|DICT|INTERRES
   195   99  100 1    
   196   99  220 1    
   197  100  101 1    
   198  100  102 1    
   199  100  221 1    
   200  101  222 1    
   201  101  223 1    
   202  101  224 1    
   203  102  103 2    
   204  102  104 am   BACKBONE|DICT|INTERRES
   205  104  105 1    
   206  104  225 1    
   207  105  106 1    
   208  105  107 1    
   209  105  226 1    
   210  106  227 1    
   211  106  228 1    
   212  106  229 1    
   213  107  108 2    
   214  107  109 am   BACKBONE|DICT|INTERRES
   215  109  110 1    
   216  109  230 1    
   217  110  111 1    
   218  110  112 1    
   219  110  231 1    
   220  111  232 1    
   221  111  233 1    
   222  111  234 1    
   223  112  113 2    
   224  112  114 am   BACKBONE|DICT|INTERRES
   225  114  115 1    
   226  114  235 1    
   227  115  116 1    
   228  115  117 1    
   229  115  236 1    
   230  116  237 1    
   231  116  238 1    
   232  116  239 1    
   233  117  118 2    
   234  117  119 am   BACKBONE|DICT|INTERRES
   235  119  120 1    
   236  119  240 1    
   237  120  121 1    
   238  120  124 1    
   239  120  241 1    
   240  121  122 am   BACKBONE|DICT|INTERRES
   241  121  123 2    
   242  122  242 1    
   243  122  243 1    
   244  124  125 1    
   245  124  244 1    
   246  124  245 1    
   247  125  126 1    
   248  126  246 1    
   249  126  247 1    
@<TRIPOS>SUBSTRUCTURE
     1 UNK         1 GROUP             0       ****    0 ROOT    
