@<TRIPOS>MOLECULE
3R540
247   249    1
SMALL
USER_CHARGES


@<TRIPOS>ATOM
      1 CA         -4.0774  -10.0085  -42.3615 C.3       0 UNK        -0.1800 
      2 C          -3.1145   -9.9403  -43.5385 C.2       0 UNK         0.5000 
      3 O          -2.5058   -8.8957  -43.7700 O.2       0 UNK        -0.5000 
      4 N          -2.9820  -11.0466  -44.2828 N.am      1 UNK        -0.5000 
      5 CA         -2.0764  -11.1930  -45.4287 C.3       1 UNK         0.1400 
      6 C6         -2.4241  -12.4681  -46.2387 C.3       23 UNK        -0.0398 
      7 S7         -1.3944  -12.7362  -47.7199 S.3       23 UNK        -0.2404 
      8 C8         -2.2192  -14.1829  -48.4502 C.3       23 UNK        -0.0205 
      9 C9         -1.2317  -15.0042  -49.2607 C.ar      23 UNK        -0.0193 
     10 C10        -1.0203  -14.7347  -50.6158 C.ar      23 UNK        -0.1150 
     11 C11        -0.0851  -15.4676  -51.3551 C.ar      23 UNK        -0.0193 
     12 C12         0.6605  -16.4613  -50.7043 C.ar      23 UNK        -0.1150 
     13 C13         0.4280  -16.7670  -49.3621 C.ar      23 UNK        -0.0193 
     14 C14        -0.5181  -16.0341  -48.6463 C.ar      23 UNK        -0.1150 
     15 C15         1.2046  -17.8837  -48.6839 C.3       23 UNK        -0.0205 
     16 S16         0.5993  -19.5318  -49.1668 S.3       23 UNK        -0.2404 
     17 C17        -1.0683  -19.5668  -48.4236 C.3       23 UNK        -0.0398 
     18 CA         -1.3609  -20.9112  -47.7170 C.3       11 UNK         0.1400 
     19 N          -0.4892  -21.1558  -46.5637 N.am      11 UNK        -0.5000 
     20 C          -0.3448  -22.3487  -45.9690 C.2       10 UNK         0.5000 
     21 O          -0.9028  -23.3768  -46.3531 O.2       10 UNK        -0.5000 
     22 CA          0.5274  -22.3852  -44.7010 C.3       10 UNK         0.1400 
     23 CB          2.0166  -22.4474  -45.0600 C.3       10 UNK        -0.1800 
     24 N           0.2796  -21.2369  -43.8277 N.am      10 UNK        -0.5000 
     25 C          -0.8678  -21.0588  -43.1567 C.2       9 UNK         0.5000 
     26 O          -1.8102  -21.8477  -43.2009 O.2       9 UNK        -0.5000 
     27 CA         -1.0150  -19.7767  -42.3226 C.3       9 UNK         0.1400 
     28 CB         -0.5668  -20.0304  -40.8772 C.3       9 UNK        -0.1800 
     29 N          -0.3084  -18.6227  -42.8821 N.am      9 UNK        -0.5000 
     30 C          -0.6074  -18.0571  -44.0619 C.2       8 UNK         0.5000 
     31 O          -1.4389  -18.5306  -44.8396 O.2       8 UNK        -0.5000 
     32 CA          0.1443  -16.7781  -44.4834 C.3       8 UNK         0.1400 
     33 CB         -0.8335  -15.6411  -44.8486 C.3       8 UNK        -0.1800 
     34 N           1.1781  -16.3219  -43.5487 N.am      8 UNK        -0.5000 
     35 C           1.0406  -15.7868  -42.3273 C.2       7 UNK         0.5000 
     36 O          -0.0407  -15.5158  -41.8052 O.2       7 UNK        -0.5000 
     37 CA          2.3614  -15.5597  -41.5595 C.3       7 UNK         0.1400 
     38 CB          2.1492  -15.2367  -40.0655 C.3       7 UNK        -0.1800 
     39 N           3.2958  -16.6832  -41.7354 N.am      7 UNK        -0.5000 
     40 C           3.0750  -17.9576  -41.3786 C.2       6 UNK         0.5000 
     41 O           2.0519  -18.3283  -40.8054 O.2       6 UNK        -0.5000 
     42 CA          4.1641  -18.9854  -41.7475 C.3       6 UNK         0.1400 
     43 CB          3.7318  -20.4417  -41.4687 C.3       6 UNK        -0.1800 
     44 N           4.6451  -18.8530  -43.1265 N.am      6 UNK        -0.5000 
     45 C           3.9444  -19.0002  -44.2595 C.2       5 UNK         0.5000 
     46 O           2.7255  -19.1897  -44.2999 O.2       5 UNK        -0.5000 
     47 CA          4.7695  -18.8961  -45.5622 C.3       5 UNK         0.1400 
     48 CB          4.0153  -19.4084  -46.8000 C.3       5 UNK        -0.1800 
     49 N           5.1916  -17.5193  -45.8104 N.am      5 UNK        -0.5000 
     50 C           6.1933  -16.8884  -45.1837 C.2       4 UNK         0.5000 
     51 O           6.9210  -17.4323  -44.3511 O.2       4 UNK        -0.5000 
     52 CA          6.4087  -15.3971  -45.5182 C.3       4 UNK         0.1400 
     53 CB          7.5618  -15.2376  -46.5208 C.3       4 UNK        -0.1800 
     54 N           5.2285  -14.6919  -46.0360 N.am      4 UNK        -0.5000 
     55 C           4.0578  -14.5677  -45.3972 C.2       3 UNK         0.5000 
     56 O           3.7980  -15.1403  -44.3379 O.2       3 UNK        -0.5000 
     57 CA          2.9870  -13.7005  -46.0862 C.3       3 UNK         0.1400 
     58 CB          2.2669  -14.5114  -47.1736 C.3       3 UNK        -0.1800 
     59 N           1.9893  -13.1891  -45.1439 N.am      3 UNK        -0.5000 
     60 C           2.2311  -12.3079  -44.1638 C.2       2 UNK         0.5000 
     61 O           3.3332  -11.7897  -43.9734 O.2       2 UNK        -0.5000 
     62 CA          1.0375  -11.9512  -43.2461 C.3       2 UNK         0.1400 
     63 CB          1.2637  -10.6489  -42.4506 C.3       2 UNK        -0.1800 
     64 N          -0.2628  -11.9062  -43.9298 N.am      2 UNK        -0.5000 
     65 C          -0.5961  -11.1390  -44.9819 C.2       1 UNK         0.5000 
     66 O           0.1868  -10.3879  -45.5657 O.2       1 UNK        -0.5000 
     67 C          -2.8456  -21.0141  -47.3180 C.2       11 UNK         0.5000 
     68 O          -3.6314  -21.5903  -48.0702 O.2       11 UNK        -0.5000 
     69 N          -3.1977  -20.4995  -46.1298 N.am      12 UNK        -0.5000 
     70 CA         -4.5408  -20.5902  -45.5553 C.3       12 UNK         0.1400 
     71 CB         -4.6248  -19.7290  -44.2872 C.3       12 UNK        -0.1800 
     72 C          -4.9661  -22.0416  -45.2650 C.2       12 UNK         0.5000 
     73 O          -6.0832  -22.4213  -45.6150 O.2       12 UNK        -0.5000 
     74 N          -4.0588  -22.8409  -44.6838 N.am      13 UNK        -0.5000 
     75 CA         -4.2529  -24.2690  -44.4125 C.3       13 UNK         0.1400 
     76 CB         -3.0857  -24.7951  -43.5639 C.3       13 UNK        -0.1800 
     77 C          -4.4117  -25.1131  -45.6911 C.2       13 UNK         0.5000 
     78 O          -5.1811  -26.0745  -45.6935 O.2       13 UNK        -0.5000 
     79 N          -3.7113  -24.7177  -46.7624 N.am      14 UNK        -0.5000 
     80 CA         -3.8290  -25.2995  -48.1006 C.3       14 UNK         0.1400 
     81 CB         -2.5708  -24.9335  -48.9051 C.3       14 UNK        -0.1800 
     82 C          -5.1017  -24.8539  -48.8536 C.2       14 UNK         0.5000 
     83 O          -5.3985  -25.4164  -49.9065 O.2       14 UNK        -0.5000 
     84 N          -5.8144  -23.8473  -48.3233 N.am      15 UNK        -0.5000 
     85 CA         -6.9675  -23.1620  -48.9170 C.3       15 UNK         0.1400 
     86 CB         -8.1863  -24.1020  -49.0205 C.3       15 UNK        -0.1800 
     87 C          -6.6163  -22.4369  -50.2350 C.2       15 UNK         0.5000 
     88 O          -7.4483  -22.3464  -51.1408 O.2       15 UNK        -0.5000 
     89 N          -5.3810  -21.9171  -50.2919 N.am      16 UNK        -0.5000 
     90 CA         -4.7672  -21.1312  -51.3593 C.3       16 UNK         0.1400 
     91 CB         -5.2476  -19.6672  -51.2648 C.3       16 UNK        -0.1800 
     92 C          -4.9433  -21.7662  -52.7549 C.2       16 UNK         0.5000 
     93 O          -4.3868  -22.8360  -53.0164 O.2       16 UNK        -0.5000 
     94 N          -5.7318  -21.1105  -53.6172 N.am      17 UNK        -0.5000 
     95 CA         -6.0200  -21.4905  -55.0000 C.3       17 UNK         0.1400 
     96 CB         -6.9372  -20.4293  -55.6250 C.3       17 UNK        -0.1800 
     97 C          -6.6234  -22.8972  -55.1791 C.2       17 UNK         0.5000 
     98 O          -6.4554  -23.4774  -56.2514 O.2       17 UNK        -0.5000 
     99 N          -7.2591  -23.4487  -54.1341 N.am      18 UNK        -0.5000 
    100 CA        -7.7839  -24.8182  -54.1121 C.3       18 UNK         0.1400 
    101 CB        -8.5925  -25.0284  -52.8255 C.3       18 UNK        -0.1800 
    102 C         -6.6889  -25.8988  -54.2368 C.2       18 UNK         0.5000 
    103 O         -6.9594  -26.9710  -54.7790 O.2       18 UNK        -0.5000 
    104 N         -5.4757  -25.5874  -53.7624 N.am      19 UNK        -0.5000 
    105 CA        -4.2768  -26.4199  -53.8846 C.3       19 UNK         0.1400 
    106 CB        -3.6377  -26.5501  -52.4932 C.3       19 UNK        -0.1800 
    107 C         -3.2686  -25.8246  -54.8880 C.2       19 UNK         0.5000 
    108 O         -2.1503  -26.3307  -54.9882 O.2       19 UNK        -0.5000 
    109 N         -3.6617  -24.7445  -55.5827 N.am      20 UNK        -0.5000 
    110 CA        -2.8430  -23.8919  -56.4531 C.3       20 UNK         0.1400 
    111 CB        -2.3671  -24.6658  -57.6998 C.3       20 UNK        -0.1800 
    112 C         -1.6874  -23.1860  -55.7061 C.2       20 UNK         0.5000 
    113 O         -0.6866  -22.8191  -56.3244 O.2       20 UNK        -0.5000 
    114 N         -1.8473  -22.9882  -54.3909 N.am      21 UNK        -0.5000 
    115 CA        -0.8853  -22.3372  -53.5105 C.3       21 UNK         0.1400 
    116 CB        -1.0218  -22.9267  -52.0934 C.3       21 UNK        -0.1800 
    117 C         -1.1184  -20.8193  -53.5416 C.2       21 UNK         0.5000 
    118 O         -1.8451  -20.2903  -52.7007 O.2       21 UNK        -0.5000 
    119 N         -0.5187  -20.1511  -54.5348 N.am      22 UNK        -0.5000 
    120 CA        -0.5843  -18.6920  -54.7415 C.3       22 UNK         0.1400 
    121 C         -1.9445  -18.1735  -55.3053 C.2       22 UNK         0.5000 
    122 N         -2.8159  -19.0348  -55.8169 N.am      22 UNK        -0.7600 
    123 O         -2.2079  -16.9744  -55.3102 O.2       22 UNK        -0.5000 
    124 C124       -0.1046  -17.9089  -53.4857 C.3       23 UNK        -0.0398 
    125 S125        0.9031  -16.4326  -53.8583 S.3       23 UNK        -0.2404 
    126 C126        0.0733  -15.1529  -52.8468 C.3       23 UNK        -0.0205 
    127 H127       -4.5511  -10.9871  -42.2801 H         1 UNK         0.0600 
    128 H128       -4.8614   -9.2597  -42.4741 H         1 UNK         0.0600 
    129 H129       -3.5459   -9.8100  -41.4307 H         1 UNK         0.0600 
    130 H130       -3.5260  -11.8627  -44.0416 H         1 UNK         0.3000 
    131 H131       -2.2434  -10.3356  -46.0846 H         1 UNK         0.0600 
    132 H132       -3.4643  -12.4151  -46.5637 H         1 UNK         0.0800 
    133 H133       -2.3532  -13.3516  -45.6040 H         1 UNK         0.0800 
    134 H134       -3.0480  -13.8515  -49.0775 H         1 UNK         0.0800 
    135 H135       -2.6547  -14.8032  -47.6652 H         1 UNK         0.0800 
    136 H136       -1.5853  -13.9476  -51.0956 H         1 UNK         0.1150 
    137 H137        1.4094  -17.0267  -51.2381 H         1 UNK         0.1150 
    138 H138       -0.6885  -16.2568  -47.6051 H         1 UNK         0.1150 
    139 H139        1.1541  -17.7840  -47.6001 H         1 UNK         0.0800 
    140 H140        2.2586  -17.8012  -48.9528 H         1 UNK         0.0800 
    141 H141       -1.7836  -19.3906  -49.2297 H         1 UNK         0.0800 
    142 H142       -1.1846  -18.7390  -47.7226 H         1 UNK         0.0800 
    143 H143       -1.1776  -21.7078  -48.4420 H         1 UNK         0.0600 
    144 H144       -0.0248  -20.3535  -46.1653 H         1 UNK         0.3000 
    145 H145        0.2759  -23.2934  -44.1489 H         1 UNK         0.0600 
    146 H146        2.3176  -21.5698  -45.6278 H         1 UNK         0.0600 
    147 H147        2.2367  -23.3256  -45.6681 H         1 UNK         0.0600 
    148 H148        2.6393  -22.5007  -44.1668 H         1 UNK         0.0600 
    149 H149        1.0022  -20.5279  -43.7739 H         1 UNK         0.3000 
    150 H150       -2.0747  -19.5188  -42.2966 H         1 UNK         0.0600 
    151 H151        0.4631  -20.3854  -40.8318 H         1 UNK         0.0600 
    152 H152       -1.1913  -20.7906  -40.4063 H         1 UNK         0.0600 
    153 H153       -0.6417  -19.1267  -40.2720 H         1 UNK         0.0600 
    154 H154        0.4190  -18.2152  -42.3075 H         1 UNK         0.3000 
    155 H155        0.6790  -17.0548  -45.3914 H         1 UNK         0.0600 
    156 H156       -1.3681  -15.2603  -43.9793 H         1 UNK         0.0600 
    157 H157       -1.5934  -15.9823  -45.5516 H         1 UNK         0.0600 
    158 H158       -0.3139  -14.8084  -45.3184 H         1 UNK         0.0600 
    159 H159        2.1313  -16.4766  -43.8564 H         1 UNK         0.3000 
    160 H160        2.8327  -14.6848  -42.0073 H         1 UNK         0.0600 
    161 H161        1.6146  -16.0325  -39.5462 H         1 UNK         0.0600 
    162 H162        1.5673  -14.3223  -39.9447 H         1 UNK         0.0600 
    163 H163        3.1009  -15.0843  -39.5566 H         1 UNK         0.0600 
    164 H164        4.1325  -16.4695  -42.2618 H         1 UNK         0.3000 
    165 H165        5.0163  -18.7671  -41.1025 H         1 UNK         0.0600 
    166 H166        3.4869  -20.5821  -40.4152 H         1 UNK         0.0600 
    167 H167        2.8514  -20.7229  -42.0475 H         1 UNK         0.0600 
    168 H168        4.5296  -21.1435  -41.7112 H         1 UNK         0.0600 
    169 H169        5.6262  -18.6148  -43.2280 H         1 UNK         0.3000 
    170 H170        5.6606  -19.5165  -45.4446 H         1 UNK         0.0600 
    171 H171        4.5560  -19.1826  -47.7193 H         1 UNK         0.0600 
    172 H172        3.9001  -20.4903  -46.7616 H         1 UNK         0.0600 
    173 H173        3.0222  -18.9713  -46.8790 H         1 UNK         0.0600 
    174 H174        4.6295  -16.9847  -46.4547 H         1 UNK         0.3000 
    175 H175        6.6968  -14.9034  -44.5879 H         1 UNK         0.0600 
    176 H176        8.4681  -15.7240  -46.1571 H         1 UNK         0.0600 
    177 H177        7.3173  -15.6799  -47.4874 H         1 UNK         0.0600 
    178 H178        7.8031  -14.1868  -46.6824 H         1 UNK         0.0600 
    179 H179        5.3527  -14.2125  -46.9161 H         1 UNK         0.3000 
    180 H180        3.4804  -12.8452  -46.5523 H         1 UNK         0.0600 
    181 H181        1.7646  -15.3834  -46.7566 H         1 UNK         0.0600 
    182 H182        2.9656  -14.8684  -47.9311 H         1 UNK         0.0600 
    183 H183        1.5191  -13.9076  -47.6880 H         1 UNK         0.0600 
    184 H184        1.0567  -13.5599  -45.2309 H         1 UNK         0.3000 
    185 H185        0.9679  -12.7620  -42.5206 H         1 UNK         0.0600 
    186 H186        0.4221  -10.4394  -41.7902 H         1 UNK         0.0600 
    187 H187        2.1546  -10.7187  -41.8254 H         1 UNK         0.0600 
    188 H188        1.3922   -9.7904  -43.1107 H         1 UNK         0.0600 
    189 H189       -0.9887  -12.4712  -43.5127 H         1 UNK         0.3000 
    190 H190       -2.5031  -19.9948  -45.5866 H         1 UNK         0.3000 
    191 H191       -5.2389  -20.1795  -46.2878 H         1 UNK         0.0600 
    192 H192       -4.3324  -18.6980  -44.4875 H         1 UNK         0.0600 
    193 H193       -5.6434  -19.7101  -43.8978 H         1 UNK         0.0600 
    194 H194       -3.9815  -20.1138  -43.4972 H         1 UNK         0.0600 
    195 H195       -3.1778  -22.4410  -44.3704 H         1 UNK         0.3000 
    196 H196       -5.1712  -24.3759  -43.8315 H         1 UNK         0.0600 
    197 H197       -2.1295  -24.6658  -44.0726 H         1 UNK         0.0600 
    198 H198       -3.2042  -25.8578  -43.3489 H         1 UNK         0.0600 
    199 H199       -3.0290  -24.2753  -42.6075 H         1 UNK         0.0600 
    200 H200       -3.0601  -23.9487  -46.6598 H         1 UNK         0.3000 
    201 H201       -3.8677  -26.3865  -48.0057 H         1 UNK         0.0600 
    202 H202       -2.5008  -23.8597  -49.0801 H         1 UNK         0.0600 
    203 H203       -1.6646  -25.2479  -48.3872 H         1 UNK         0.0600 
    204 H204       -2.5713  -25.4243  -49.8778 H         1 UNK         0.0600 
    205 H205       -5.4919  -23.4546  -47.4477 H         1 UNK         0.3000 
    206 H206       -7.2351  -22.3694  -48.2171 H         1 UNK         0.0600 
    207 H207       -8.4638  -24.4856  -48.0388 H         1 UNK         0.0600 
    208 H208       -9.0561  -23.5796  -49.4200 H         1 UNK         0.0600 
    209 H209       -7.9921  -24.9578  -49.6649 H         1 UNK         0.0600 
    210 H210       -4.7889  -22.0397  -49.4736 H         1 UNK         0.3000 
    211 H211       -3.6985  -21.1391  -51.1494 H         1 UNK         0.0600 
    212 H212       -4.9929  -19.2411  -50.2942 H         1 UNK         0.0600 
    213 H213       -4.7655  -19.0448  -52.0203 H         1 UNK         0.0600 
    214 H214       -6.3276  -19.5788  -51.3883 H         1 UNK         0.0600 
    215 H215       -6.1702  -20.2613  -53.2926 H         1 UNK         0.3000 
    216 H216       -5.0708  -21.4787  -55.5386 H         1 UNK         0.0600 
    217 H217       -7.8929  -20.3679  -55.1030 H         1 UNK         0.0600 
    218 H218       -7.1481  -20.6597  -56.6703 H         1 UNK         0.0600 
    219 H219       -6.4753  -19.4422  -55.5991 H         1 UNK         0.0600 
    220 H220       -7.3305  -22.9216  -53.2705 H         1 UNK         0.3000 
    221 H221       -8.4591  -24.9298  -54.9630 H         1 UNK         0.0600 
    222 H222       -7.9511  -24.9646  -51.9473 H         1 UNK         0.0600 
    223 H223       -9.3814  -24.2832  -52.7225 H         1 UNK         0.0600 
    224 H224       -9.0656  -26.0111  -52.8158 H         1 UNK         0.0600 
    225 H225       -5.3370  -24.6782  -53.3330 H         1 UNK         0.3000 
    226 H226       -4.5325  -27.4198  -54.2400 H         1 UNK         0.0600 
    227 H227       -4.3254  -27.0185  -51.7894 H         1 UNK         0.0600 
    228 H228       -2.7381  -27.1659  -52.5210 H         1 UNK         0.0600 
    229 H229       -3.3598  -25.5738  -52.0945 H         1 UNK         0.0600 
    230 H230       -4.6200  -24.4431  -55.4634 H         1 UNK         0.3000 
    231 H231       -3.5038  -23.0962  -56.7987 H         1 UNK         0.0600 
    232 H232       -1.6333  -25.4318  -57.4480 H         1 UNK         0.0600 
    233 H233       -1.9014  -23.9948  -58.4225 H         1 UNK         0.0600 
    234 H234       -3.2021  -25.1528  -58.2036 H         1 UNK         0.0600 
    235 H235       -2.7365  -23.2307  -53.9638 H         1 UNK         0.3000 
    236 H236        0.1311  -22.5393  -53.8554 H         1 UNK         0.0600 
    237 H237       -2.0285  -22.8094  -51.6931 H         1 UNK         0.0600 
    238 H238       -0.7882  -23.9915  -52.0883 H         1 UNK         0.0600 
    239 H239       -0.3357  -22.4385  -51.4000 H         1 UNK         0.0600 
    240 H240        0.0105  -20.6737  -55.2205 H         1 UNK         0.3000 
    241 H241        0.1316  -18.5063  -55.5426 H         1 UNK         0.0600 
    242 H242       -2.6037  -20.0176  -55.8390 H         1 UNK         0.3800 
    243 H243       -3.6837  -18.6911  -56.1958 H         1 UNK         0.3800 
    244 H244        0.5299  -18.5454  -52.8676 H         1 UNK         0.0800 
    245 H245       -0.9527  -17.6488  -52.8497 H         1 UNK         0.0800 
    246 H246       -0.9115  -14.9733  -53.2817 H         1 UNK         0.0800 
    247 H247        0.6297  -14.2202  -52.9463 H         1 UNK         0.0800 
@<TRIPOS>BOND
     1    1    2 1    
     2    1  127 1    
     3    1  128 1    
     4    1  129 1    
     5    2    3 2    
     6    2    4 am   BACKBONE|DICT|INTERRES
     7    4    5 1    
     8    4  130 1    
     9    5    6 1    
    10    5   65 1    
    11    5  131 1    
    12    6    7 1    
    13    6  132 1    
    14    6  133 1    
    15    7    8 1    
    16    8    9 1    
    17    8  134 1    
    18    8  135 1    
    19    9   10 ar   
    20    9   14 ar   
    21   10   11 ar   
    22   10  136 1    
    23   11   12 ar   
    24   11  126 1    
    25   12   13 ar   
    26   12  137 1    
    27   13   14 ar   
    28   13   15 1    
    29   14  138 1    
    30   15   16 1    
    31   15  139 1    
    32   15  140 1    
    33   16   17 1    
    34   17   18 1    
    35   17  141 1    
    36   17  142 1    
    37   18   19 1    
    38   18   67 1    
    39   18  143 1    
    40   19   20 am   BACKBONE|DICT|INTERRES
    41   19  144 1    
    42   20   21 2    
    43   20   22 1    
    44   22   23 1    
    45   22   24 1    
    46   22  145 1    
    47   23  146 1    
    48   23  147 1    
    49   23  148 1    
    50   24   25 am   BACKBONE|DICT|INTERRES
    51   24  149 1    
    52   25   26 2    
    53   25   27 1    
    54   27   28 1    
    55   27   29 1    
    56   27  150 1    
    57   28  151 1    
    58   28  152 1    
    59   28  153 1    
    60   29   30 am   BACKBONE|DICT|INTERRES
    61   29  154 1    
    62   30   31 2    
    63   30   32 1    
    64   32   33 1    
    65   32   34 1    
    66   32  155 1    
    67   33  156 1    
    68   33  157 1    
    69   33  158 1    
    70   34   35 am   BACKBONE|DICT|INTERRES
    71   34  159 1    
    72   35   36 2    
    73   35   37 1    
    74   37   38 1    
    75   37   39 1    
    76   37  160 1    
    77   38  161 1    
    78   38  162 1    
    79   38  163 1    
    80   39   40 am   BACKBONE|DICT|INTERRES
    81   39  164 1    
    82   40   41 2    
    83   40   42 1    
    84   42   43 1    
    85   42   44 1    
    86   42  165 1    
    87   43  166 1    
    88   43  167 1    
    89   43  168 1    
    90   44   45 am   BACKBONE|DICT|INTERRES
    91   44  169 1    
    92   45   46 2    
    93   45   47 1    
    94   47   48 1    
    95   47   49 1    
    96   47  170 1    
    97   48  171 1    
    98   48  172 1    
    99   48  173 1    
   100   49   50 am   BACKBONE|DICT|INTERRES
   101   49  174 1    
   102   50   51 2    
   103   50   52 1    
   104   52   53 1    
   105   52   54 1    
   106   52  175 1    
   107   53  176 1    
   108   53  177 1    
   109   53  178 1    
   110   54   55 am   BACKBONE|DICT|INTERRES
   111   54  179 1    
   112   55   56 2    
   113   55   57 1    
   114   57   58 1    
   115   57   59 1    
   116   57  180 1    
   117   58  181 1    
   118   58  182 1    
   119   58  183 1    
   120   59   60 am   BACKBONE|DICT|INTERRES
   121   59  184 1    
   122   60   61 2    
   123   60   62 1    
   124   62   63 1    
   125   62   64 1    
   126   62  185 1    
   127   63  186 1    
   128   63  187 1    
   129   63  188 1    
   130   64   65 am   BACKBONE|DICT|INTERRES
   131   64  189 1    
   132   65   66 2    
   133   67   68 2    
   134   67   69 am   BACKBONE|DICT|INTERRES
   135   69   70 1    
   136   69  190 1    
   137   70   71 1    
   138   70   72 1    
   139   70  191 1    
   140   71  192 1    
   141   71  193 1    
   142   71  194 1    
   143   72   73 2    
   144   72   74 am   BACKBONE|DICT|INTERRES
   145   74   75 1    
   146   74  195 1    
   147   75   76 1    
   148   75   77 1    
   149   75  196 1    
   150   76  197 1    
   151   76  198 1    
   152   76  199 1    
   153   77   78 2    
   154   77   79 am   BACKBONE|DICT|INTERRES
   155   79   80 1    
   156   79  200 1    
   157   80   81 1    
   158   80   82 1    
   159   80  201 1    
   160   81  202 1    
   161   81  203 1    
   162   81  204 1    
   163   82   83 2    
   164   82   84 am   BACKBONE|DICT|INTERRES
   165   84   85 1    
   166   84  205 1    
   167   85   86 1    
   168   85   87 1    
   169   85  206 1    
   170   86  207 1    
   171   86  208 1    
   172   86  209 1    
   173   87   88 2    
   174   87   89 am   BACKBONE|DICT|INTERRES
   175   89   90 1    
   176   89  210 1    
   177   90   91 1    
   178   90   92 1    
   179   90  211 1    
   180   91  212 1    
   181   91  213 1    
   182   91  214 1    
   183   92   93 2    
   184   92   94 am   BACKBONE|DICT|INTERRES
   185   94   95 1    
   186   94  215 1    
   187   95   96 1    
   188   95   97 1    
   189   95  216 1    
   190   96  217 1    
   191   96  218 1    
   192   96  219 1    
   193   97   98 2    
   194   97   99 am   BACKBONE|DICT|INTERRES
   195   99  100 1    
   196   99  220 1    
   197  100  101 1    
   198  100  102 1    
   199  100  221 1    
   200  101  222 1    
   201  101  223 1    
   202  101  224 1    
   203  102  103 2    
   204  102  104 am   BACKBONE|DICT|INTERRES
   205  104  105 1    
   206  104  225 1    
   207  105  106 1    
   208  105  107 1    
   209  105  226 1    
   210  106  227 1    
   211  106  228 1    
   212  106  229 1    
   213  107  108 2    
   214  107  109 am   BACKBONE|DICT|INTERRES
   215  109  110 1    
   216  109  230 1    
   217  110  111 1    
   218  110  112 1    
   219  110  231 1    
   220  111  232 1    
   221  111  233 1    
   222  111  234 1    
   223  112  113 2    
   224  112  114 am   BACKBONE|DICT|INTERRES
   225  114  115 1    
   226  114  235 1    
   227  115  116 1    
   228  115  117 1    
   229  115  236 1    
   230  116  237 1    
   231  116  238 1    
   232  116  239 1    
   233  117  118 2    
   234  117  119 am   BACKBONE|DICT|INTERRES
   235  119  120 1    
   236  119  240 1    
   237  120  121 1    
   238  120  124 1    
   239  120  241 1    
   240  121  122 am   BACKBONE|DICT|INTERRES
   241  121  123 2    
   242  122  242 1    
   243  122  243 1    
   244  124  125 1    
   245  124  244 1    
   246  124  245 1    
   247  125  126 1    
   248  126  246 1    
   249  126  247 1    
@<TRIPOS>SUBSTRUCTURE
     1 UNK         1 GROUP             0       ****    0 ROOT    
