@<TRIPOS>MOLECULE
3R540
247   249    1
SMALL
USER_CHARGES


@<TRIPOS>ATOM
      1 CA          1.9272  -15.4131  -51.1389 C.3       0 UNK        -0.1800 
      2 C           2.0172  -14.9350  -49.6973 C.2       0 UNK         0.5000 
      3 O           3.1181  -14.7832  -49.1662 O.2       0 UNK        -0.5000 
      4 N           0.8659  -14.6910  -49.0610 N.am      1 UNK        -0.5000 
      5 CA          0.7334  -14.1731  -47.6982 C.3       1 UNK         0.1400 
      6 C6         -0.6204  -14.5478  -47.0354 C.3       23 UNK        -0.0398 
      7 S7         -2.1083  -14.3049  -48.0745 S.3       23 UNK        -0.2404 
      8 C8         -2.7027  -16.0129  -48.2983 C.3       23 UNK        -0.0205 
      9 C9         -1.8799  -16.7682  -49.3302 C.ar      23 UNK        -0.0193 
     10 C10        -2.2441  -16.7394  -50.6789 C.ar      23 UNK        -0.1150 
     11 C11        -1.4951  -17.4364  -51.6320 C.ar      23 UNK        -0.0193 
     12 C12        -0.3720  -18.1644  -51.2275 C.ar      23 UNK        -0.1150 
     13 C13         0.0110  -18.1848  -49.8848 C.ar      23 UNK        -0.0193 
     14 C14        -0.7540  -17.4964  -48.9406 C.ar      23 UNK        -0.1150 
     15 C15         1.2588  -18.9362  -49.4472 C.3       23 UNK        -0.0205 
     16 S16         0.9825  -20.7298  -49.3230 S.3       23 UNK        -0.2404 
     17 C17        -0.5612  -20.8124  -48.3561 C.3       23 UNK        -0.0398 
     18 CA         -0.6319  -22.0903  -47.5012 C.3       11 UNK         0.1400 
     19 N           0.2510  -22.0314  -46.3350 N.am      11 UNK        -0.5000 
     20 C           0.6361  -23.1141  -45.6480 C.2       10 UNK         0.5000 
     21 O           0.2698  -24.2575  -45.9180 O.2       10 UNK        -0.5000 
     22 CA          1.5470  -22.8796  -44.4340 C.3       10 UNK         0.1400 
     23 CB          2.9788  -22.5550  -44.8857 C.3       10 UNK        -0.1800 
     24 N           1.0491  -21.8230  -43.5536 N.am      10 UNK        -0.5000 
     25 C          -0.1133  -21.8743  -42.8872 C.2       9 UNK         0.5000 
     26 O          -0.8950  -22.8242  -42.9470 O.2       9 UNK        -0.5000 
     27 CA         -0.4857  -20.6417  -42.0428 C.3       9 UNK         0.1400 
     28 CB          0.3182  -20.6078  -40.7346 C.3       9 UNK        -0.1800 
     29 N          -0.3038  -19.3810  -42.7621 N.am      9 UNK        -0.5000 
     30 C          -0.9581  -19.0428  -43.8819 C.2       8 UNK         0.5000 
     31 O          -1.7926  -19.7560  -44.4337 O.2       8 UNK        -0.5000 
     32 CA         -0.5792  -17.7012  -44.5262 C.3       8 UNK         0.1400 
     33 CB         -1.2385  -16.5259  -43.7888 C.3       8 UNK        -0.1800 
     34 N           0.8678  -17.5061  -44.5752 N.am      8 UNK        -0.5000 
     35 C           1.7114  -18.2742  -45.2787 C.2       7 UNK         0.5000 
     36 O           1.3569  -19.2164  -45.9877 O.2       7 UNK        -0.5000 
     37 CA          3.2074  -17.9565  -45.1164 C.3       7 UNK         0.1400 
     38 CB          3.5776  -16.6816  -45.8917 C.3       7 UNK        -0.1800 
     39 N           3.5938  -17.8064  -43.7110 N.am      7 UNK        -0.5000 
     40 C           3.5283  -18.7879  -42.7993 C.2       6 UNK         0.5000 
     41 O           3.1609  -19.9337  -43.0518 O.2       6 UNK        -0.5000 
     42 CA          3.8959  -18.4246  -41.3496 C.3       6 UNK         0.1400 
     43 CB          5.4118  -18.5439  -41.1333 C.3       6 UNK        -0.1800 
     44 N           3.4500  -17.0946  -40.9260 N.am      6 UNK        -0.5000 
     45 C           2.1853  -16.6505  -40.9402 C.2       5 UNK         0.5000 
     46 O           1.2429  -17.2964  -41.4035 O.2       5 UNK        -0.5000 
     47 CA          1.9200  -15.2610  -40.3349 C.3       5 UNK         0.1400 
     48 CB          3.1916  -14.4288  -40.0661 C.3       5 UNK        -0.1800 
     49 N           1.0442  -14.5070  -41.2241 N.am      5 UNK        -0.5000 
     50 C          -0.0370  -13.8139  -40.8560 C.2       4 UNK         0.5000 
     51 O          -0.4611  -13.7656  -39.6997 O.2       4 UNK        -0.5000 
     52 CA         -0.7145  -12.9916  -41.9726 C.3       4 UNK         0.1400 
     53 CB         -1.9745  -12.2507  -41.4904 C.3       4 UNK        -0.1800 
     54 N           0.2220  -12.0158  -42.5355 N.am      4 UNK        -0.5000 
     55 C           1.1586  -12.2866  -43.4509 C.2       3 UNK         0.5000 
     56 O           1.3076  -13.3990  -43.9703 O.2       3 UNK        -0.5000 
     57 CA          2.1171  -11.1426  -43.8083 C.3       3 UNK         0.1400 
     58 CB          3.3250  -11.1255  -42.8579 C.3       3 UNK        -0.1800 
     59 N           2.5740  -11.3696  -45.1697 N.am      3 UNK        -0.5000 
     60 C           2.6926  -10.4473  -46.1303 C.2       2 UNK         0.5000 
     61 O           2.6203   -9.2338  -45.9327 O.2       2 UNK        -0.5000 
     62 CA          2.8866  -10.9808  -47.5660 C.3       2 UNK         0.1400 
     63 CB          4.3753  -10.9880  -47.9443 C.3       2 UNK        -0.1800 
     64 N           2.3405  -12.3297  -47.7525 N.am      2 UNK        -0.5000 
     65 C           1.0463  -12.6627  -47.6462 C.2       1 UNK         0.5000 
     66 O           0.1436  -11.8371  -47.5012 O.2       1 UNK        -0.5000 
     67 C          -2.0883  -22.4373  -47.1362 C.2       11 UNK         0.5000 
     68 O          -2.7832  -22.9989  -47.9821 O.2       11 UNK        -0.5000 
     69 N          -2.5354  -22.1377  -45.9092 N.am      12 UNK        -0.5000 
     70 CA         -3.8219  -22.5987  -45.3855 C.3       12 UNK         0.1400 
     71 CB         -4.2023  -21.8083  -44.1250 C.3       12 UNK        -0.1800 
     72 C          -3.8069  -24.1108  -45.1035 C.2       12 UNK         0.5000 
     73 O          -4.7464  -24.8048  -45.4911 O.2       12 UNK        -0.5000 
     74 N          -2.7269  -24.5995  -44.4754 N.am      13 UNK        -0.5000 
     75 CA         -2.5074  -26.0164  -44.1734 C.3       13 UNK         0.1400 
     76 CB         -1.2888  -26.1620  -43.2494 C.3       13 UNK        -0.1800 
     77 C          -2.3440  -26.8818  -45.4374 C.2       13 UNK         0.5000 
     78 O          -2.9089  -27.9739  -45.5050 O.2       13 UNK        -0.5000 
     79 N          -1.6033  -26.3647  -46.4271 N.am      14 UNK        -0.5000 
     80 CA         -1.4074  -26.9870  -47.7395 C.3       14 UNK         0.1400 
     81 CB         -0.1699  -26.3602  -48.4017 C.3       14 UNK        -0.1800 
     82 C          -2.6293  -26.8555  -48.6724 C.2       14 UNK         0.5000 
     83 O          -2.6705  -27.5277  -49.7028 O.2       14 UNK        -0.5000 
     84 N          -3.5739  -25.9724  -48.3154 N.am      15 UNK        -0.5000 
     85 CA         -4.7794  -25.5774  -49.0540 C.3       15 UNK         0.1400 
     86 CB         -5.7179  -26.7775  -49.2920 C.3       15 UNK        -0.1800 
     87 C          -4.4939  -24.7854  -50.3480 C.2       15 UNK         0.5000 
     88 O          -5.4090  -24.5685  -51.1406 O.2       15 UNK        -0.5000 
     89 N          -3.2542  -24.3097  -50.5192 N.am      16 UNK        -0.5000 
     90 CA         -2.8106  -23.4522  -51.6178 C.3       16 UNK         0.1400 
     91 CB         -1.2825  -23.3154  -51.5552 C.3       16 UNK        -0.1800 
     92 C          -3.4797  -22.0659  -51.5981 C.2       16 UNK         0.5000 
     93 O          -3.7632  -21.5136  -52.6622 O.2       16 UNK        -0.5000 
     94 N          -3.7554  -21.5464  -50.3926 N.am      17 UNK        -0.5000 
     95 CA         -4.4945  -20.2987  -50.1920 C.3       17 UNK         0.1400 
     96 CB         -4.3200  -19.8144  -48.7433 C.3       17 UNK        -0.1800 
     97 C          -5.9872  -20.4536  -50.5379 C.2       17 UNK         0.5000 
     98 O          -6.5745  -19.5397  -51.1158 O.2       17 UNK        -0.5000 
     99 N          -6.5624  -21.6181  -50.2035 N.am      18 UNK        -0.5000 
    100 CA        -7.9538  -21.9748  -50.4882 C.3       18 UNK         0.1400 
    101 CB        -8.3592  -23.1803  -49.6255 C.3       18 UNK        -0.1800 
    102 C         -8.1869  -22.2630  -51.9822 C.2       18 UNK         0.5000 
    103 O         -9.1991  -21.8332  -52.5362 O.2       18 UNK        -0.5000 
    104 N         -7.2288  -22.9565  -52.6122 N.am      19 UNK        -0.5000 
    105 CA        -7.2012  -23.2489  -54.0469 C.3       19 UNK         0.1400 
    106 CB        -6.1661  -24.3552  -54.3047 C.3       19 UNK        -0.1800 
    107 C         -6.8871  -22.0174  -54.9198 C.2       19 UNK         0.5000 
    108 O         -7.1306  -22.0638  -56.1261 O.2       19 UNK        -0.5000 
    109 N         -6.3463  -20.9575  -54.2998 N.am      20 UNK        -0.5000 
    110 CA        -5.8846  -19.7057  -54.9019 C.3       20 UNK         0.1400 
    111 CB        -7.0579  -18.9132  -55.5143 C.3       20 UNK        -0.1800 
    112 C         -4.7242  -19.9455  -55.8867 C.2       20 UNK         0.5000 
    113 O         -4.7714  -19.5012  -57.0361 O.2       20 UNK        -0.5000 
    114 N         -3.6860  -20.6416  -55.3994 N.am      21 UNK        -0.5000 
    115 CA        -2.4785  -21.0328  -56.1397 C.3       21 UNK         0.1400 
    116 CB        -1.5911  -21.8795  -55.2150 C.3       21 UNK        -0.1800 
    117 C         -1.6694  -19.8565  -56.7284 C.2       21 UNK         0.5000 
    118 O         -0.8824  -20.0606  -57.6535 O.2       21 UNK        -0.5000 
    119 N         -1.8958  -18.6514  -56.1946 N.am      22 UNK        -0.5000 
    120 CA        -1.3950  -17.3699  -56.7085 C.3       22 UNK         0.1400 
    121 C         -2.0236  -16.9395  -58.0687 C.2       22 UNK         0.5000 
    122 N         -3.1381  -17.5150  -58.5082 N.am      22 UNK        -0.7600 
    123 O         -1.4847  -16.0645  -58.7409 O.2       22 UNK        -0.5000 
    124 C124       -1.5725  -16.2413  -55.6604 C.3       23 UNK        -0.0398 
    125 S125       -0.6568  -16.5324  -54.1082 S.3       23 UNK        -0.2404 
    126 C126       -1.8981  -17.4029  -53.0966 C.3       23 UNK        -0.0205 
    127 H127        0.8953  -15.4444  -51.4895 H         1 UNK         0.0600 
    128 H128        2.4867  -14.7445  -51.7928 H         1 UNK         0.0600 
    129 H129        2.3483  -16.4139  -51.2310 H         1 UNK         0.0600 
    130 H130       -0.0099  -14.8328  -49.5459 H         1 UNK         0.3000 
    131 H131        1.5003  -14.6551  -47.0880 H         1 UNK         0.0600 
    132 H132       -0.5766  -15.5888  -46.7228 H         1 UNK         0.0800 
    133 H133       -0.7586  -13.9890  -46.1078 H         1 UNK         0.0800 
    134 H134       -3.7456  -15.9794  -48.6172 H         1 UNK         0.0800 
    135 H135       -2.6997  -16.5402  -47.3431 H         1 UNK         0.0800 
    136 H136       -3.1117  -16.1718  -50.9850 H         1 UNK         0.1150 
    137 H137        0.2137  -18.7006  -51.9611 H         1 UNK         0.1150 
    138 H138       -0.4602  -17.5227  -47.9021 H         1 UNK         0.1150 
    139 H139        1.6162  -18.5572  -48.4900 H         1 UNK         0.0800 
    140 H140        2.0633  -18.7533  -50.1605 H         1 UNK         0.0800 
    141 H141       -1.3746  -20.7695  -49.0810 H         1 UNK         0.0800 
    142 H142       -0.6633  -19.9360  -47.7161 H         1 UNK         0.0800 
    143 H143       -0.2879  -22.9171  -48.1262 H         1 UNK         0.0600 
    144 H144        0.6036  -21.1158  -46.0720 H         1 UNK         0.3000 
    145 H145        1.5756  -23.8068  -43.8580 H         1 UNK         0.0600 
    146 H146        3.6560  -22.4976  -44.0335 H         1 UNK         0.0600 
    147 H147        3.3633  -23.3259  -45.5547 H         1 UNK         0.0600 
    148 H148        3.0278  -21.6030  -45.4163 H         1 UNK         0.0600 
    149 H149        1.6547  -21.0148  -43.4337 H         1 UNK         0.3000 
    150 H150       -1.5441  -20.7241  -41.7872 H         1 UNK         0.0600 
    151 H151        1.3880  -20.5170  -40.9217 H         1 UNK         0.0600 
    152 H152        0.1619  -21.5198  -40.1571 H         1 UNK         0.0600 
    153 H153        0.0164  -19.7684  -40.1078 H         1 UNK         0.0600 
    154 H154        0.3527  -18.7148  -42.3639 H         1 UNK         0.3000 
    155 H155       -0.9524  -17.7122  -45.5517 H         1 UNK         0.0600 
    156 H156       -0.9321  -16.4780  -42.7436 H         1 UNK         0.0600 
    157 H157       -2.3252  -16.6170  -43.8069 H         1 UNK         0.0600 
    158 H158       -0.9840  -15.5749  -44.2538 H         1 UNK         0.0600 
    159 H159        1.2516  -16.8025  -43.9624 H         1 UNK         0.3000 
    160 H160        3.7721  -18.7912  -45.5372 H         1 UNK         0.0600 
    161 H161        3.0885  -15.7985  -45.4785 H         1 UNK         0.0600 
    162 H162        3.2828  -16.7608  -46.9393 H         1 UNK         0.0600 
    163 H163        4.6534  -16.5076  -45.8715 H         1 UNK         0.0600 
    164 H164        3.9055  -16.8938  -43.4138 H         1 UNK         0.3000 
    165 H165        3.4053  -19.1510  -40.6991 H         1 UNK         0.0600 
    166 H166        5.6741  -18.3984  -40.0853 H         1 UNK         0.0600 
    167 H167        5.9622  -17.8098  -41.7231 H         1 UNK         0.0600 
    168 H168        5.7711  -19.5329  -41.4217 H         1 UNK         0.0600 
    169 H169        4.1597  -16.4921  -40.5353 H         1 UNK         0.3000 
    170 H170        1.4213  -15.4413  -39.3807 H         1 UNK         0.0600 
    171 H171        3.8443  -14.9160  -39.3408 H         1 UNK         0.0600 
    172 H172        3.7644  -14.2565  -40.9784 H         1 UNK         0.0600 
    173 H173        2.9355  -13.4531  -39.6523 H         1 UNK         0.0600 
    174 H174        1.3060  -14.4847  -42.2033 H         1 UNK         0.3000 
    175 H175       -1.0219  -13.6882  -42.7542 H         1 UNK         0.0600 
    176 H176       -1.7439  -11.5265  -40.7081 H         1 UNK         0.0600 
    177 H177       -2.4544  -11.7164  -42.3106 H         1 UNK         0.0600 
    178 H178       -2.7084  -12.9496  -41.0871 H         1 UNK         0.0600 
    179 H179        0.1915  -11.0915  -42.1294 H         1 UNK         0.3000 
    180 H180        1.5772  -10.1957  -43.7406 H         1 UNK         0.0600 
    181 H181        3.8755  -12.0668  -42.8895 H         1 UNK         0.0600 
    182 H182        3.0101  -10.9635  -41.8263 H         1 UNK         0.0600 
    183 H183        4.0172  -10.3243  -43.1171 H         1 UNK         0.0600 
    184 H184        2.6010  -12.3456  -45.4334 H         1 UNK         0.3000 
    185 H185        2.3602  -10.3062  -48.2441 H         1 UNK         0.0600 
    186 H186        4.5179  -11.3009  -48.9788 H         1 UNK         0.0600 
    187 H187        4.8087   -9.9921  -47.8436 H         1 UNK         0.0600 
    188 H188        4.9488  -11.6623  -47.3070 H         1 UNK         0.0600 
    189 H189        3.0020  -13.0688  -47.9652 H         1 UNK         0.3000 
    190 H190       -1.9586  -21.5858  -45.2829 H         1 UNK         0.3000 
    191 H191       -4.5889  -22.4088  -46.1396 H         1 UNK         0.0600 
    192 H192       -5.1485  -22.1609  -43.7129 H         1 UNK         0.0600 
    193 H193       -4.3224  -20.7484  -44.3490 H         1 UNK         0.0600 
    194 H194       -3.4477  -21.9023  -43.3439 H         1 UNK         0.0600 
    195 H195       -2.0099  -23.9538  -44.1575 H         1 UNK         0.3000 
    196 H196       -3.3846  -26.3811  -43.6349 H         1 UNK         0.0600 
    197 H197       -0.3804  -25.7795  -43.7156 H         1 UNK         0.0600 
    198 H198       -1.4368  -25.6199  -42.3152 H         1 UNK         0.0600 
    199 H199       -1.1132  -27.2079  -42.9949 H         1 UNK         0.0600 
    200 H200       -1.1009  -25.4962  -46.2564 H         1 UNK         0.3000 
    201 H201       -1.2161  -28.0522  -47.5950 H         1 UNK         0.0600 
    202 H202       -0.3097  -25.2950  -48.5867 H         1 UNK         0.0600 
    203 H203        0.0460  -26.8342  -49.3600 H         1 UNK         0.0600 
    204 H204        0.7148  -26.4775  -47.7755 H         1 UNK         0.0600 
    205 H205       -3.4279  -25.4696  -47.4504 H         1 UNK         0.3000 
    206 H206       -5.3045  -24.8821  -48.3977 H         1 UNK         0.0600 
    207 H207       -5.9122  -27.3153  -48.3641 H         1 UNK         0.0600 
    208 H208       -6.6814  -26.4486  -49.6828 H         1 UNK         0.0600 
    209 H209       -5.3021  -27.4837  -50.0108 H         1 UNK         0.0600 
    210 H210       -2.5972  -24.4614  -49.7676 H         1 UNK         0.3000 
    211 H211       -3.0775  -23.9378  -52.5583 H         1 UNK         0.0600 
    212 H212       -0.9096  -22.6778  -52.3569 H         1 UNK         0.0600 
    213 H213       -0.7960  -24.2854  -51.6590 H         1 UNK         0.0600 
    214 H214       -0.9562  -22.8775  -50.6120 H         1 UNK         0.0600 
    215 H215       -3.4950  -22.0751  -49.5658 H         1 UNK         0.3000 
    216 H216       -4.0756  -19.5378  -50.8547 H         1 UNK         0.0600 
    217 H217       -4.6352  -20.5693  -48.0222 H         1 UNK         0.0600 
    218 H218       -4.9112  -18.9164  -48.5587 H         1 UNK         0.0600 
    219 H219       -3.2831  -19.5575  -48.5321 H         1 UNK         0.0600 
    220 H220       -5.9944  -22.3254  -49.7635 H         1 UNK         0.3000 
    221 H221       -8.5875  -21.1305  -50.2081 H         1 UNK         0.0600 
    222 H222       -8.2442  -22.9623  -48.5637 H         1 UNK         0.0600 
    223 H223       -7.7616  -24.0631  -49.8535 H         1 UNK         0.0600 
    224 H224       -9.4049  -23.4425  -49.7916 H         1 UNK         0.0600 
    225 H225       -6.4703  -23.3523  -52.0615 H         1 UNK         0.3000 
    226 H226       -8.1845  -23.6211  -54.3414 H         1 UNK         0.0600 
    227 H227       -5.1615  -24.0354  -54.0248 H         1 UNK         0.0600 
    228 H228       -6.4011  -25.2561  -53.7375 H         1 UNK         0.0600 
    229 H229       -6.1411  -24.6326  -55.3592 H         1 UNK         0.0600 
    230 H230       -6.1593  -21.0542  -53.3115 H         1 UNK         0.3000 
    231 H231       -5.4772  -19.1075  -54.0853 H         1 UNK         0.0600 
    232 H232       -7.4947  -19.4249  -56.3722 H         1 UNK         0.0600 
    233 H233       -6.7270  -17.9316  -55.8553 H         1 UNK         0.0600 
    234 H234       -7.8484  -18.7530  -54.7810 H         1 UNK         0.0600 
    235 H235       -3.7396  -20.9663  -54.4354 H         1 UNK         0.3000 
    236 H236       -2.7971  -21.6561  -56.9773 H         1 UNK         0.0600 
    237 H237       -2.1233  -22.7593  -54.8529 H         1 UNK         0.0600 
    238 H238       -0.7002  -22.2308  -55.7371 H         1 UNK         0.0600 
    239 H239       -1.2604  -21.3053  -54.3487 H         1 UNK         0.0600 
    240 H240       -2.5670  -18.5956  -55.4462 H         1 UNK         0.3000 
    241 H241       -0.3259  -17.4903  -56.8929 H         1 UNK         0.0600 
    242 H242       -3.5263  -17.2248  -59.3916 H         1 UNK         0.3800 
    243 H243       -3.6124  -18.2334  -57.9689 H         1 UNK         0.3800 
    244 H244       -2.6291  -16.0810  -55.4396 H         1 UNK         0.0800 
    245 H245       -1.2075  -15.2949  -56.0636 H         1 UNK         0.0800 
    246 H246       -2.8697  -16.9200  -53.2113 H         1 UNK         0.0800 
    247 H247       -2.0120  -18.4280  -53.4500 H         1 UNK         0.0800 
@<TRIPOS>BOND
     1    1    2 1    
     2    1  127 1    
     3    1  128 1    
     4    1  129 1    
     5    2    3 2    
     6    2    4 am   BACKBONE|DICT|INTERRES
     7    4    5 1    
     8    4  130 1    
     9    5    6 1    
    10    5   65 1    
    11    5  131 1    
    12    6    7 1    
    13    6  132 1    
    14    6  133 1    
    15    7    8 1    
    16    8    9 1    
    17    8  134 1    
    18    8  135 1    
    19    9   10 ar   
    20    9   14 ar   
    21   10   11 ar   
    22   10  136 1    
    23   11   12 ar   
    24   11  126 1    
    25   12   13 ar   
    26   12  137 1    
    27   13   14 ar   
    28   13   15 1    
    29   14  138 1    
    30   15   16 1    
    31   15  139 1    
    32   15  140 1    
    33   16   17 1    
    34   17   18 1    
    35   17  141 1    
    36   17  142 1    
    37   18   19 1    
    38   18   67 1    
    39   18  143 1    
    40   19   20 am   BACKBONE|DICT|INTERRES
    41   19  144 1    
    42   20   21 2    
    43   20   22 1    
    44   22   23 1    
    45   22   24 1    
    46   22  145 1    
    47   23  146 1    
    48   23  147 1    
    49   23  148 1    
    50   24   25 am   BACKBONE|DICT|INTERRES
    51   24  149 1    
    52   25   26 2    
    53   25   27 1    
    54   27   28 1    
    55   27   29 1    
    56   27  150 1    
    57   28  151 1    
    58   28  152 1    
    59   28  153 1    
    60   29   30 am   BACKBONE|DICT|INTERRES
    61   29  154 1    
    62   30   31 2    
    63   30   32 1    
    64   32   33 1    
    65   32   34 1    
    66   32  155 1    
    67   33  156 1    
    68   33  157 1    
    69   33  158 1    
    70   34   35 am   BACKBONE|DICT|INTERRES
    71   34  159 1    
    72   35   36 2    
    73   35   37 1    
    74   37   38 1    
    75   37   39 1    
    76   37  160 1    
    77   38  161 1    
    78   38  162 1    
    79   38  163 1    
    80   39   40 am   BACKBONE|DICT|INTERRES
    81   39  164 1    
    82   40   41 2    
    83   40   42 1    
    84   42   43 1    
    85   42   44 1    
    86   42  165 1    
    87   43  166 1    
    88   43  167 1    
    89   43  168 1    
    90   44   45 am   BACKBONE|DICT|INTERRES
    91   44  169 1    
    92   45   46 2    
    93   45   47 1    
    94   47   48 1    
    95   47   49 1    
    96   47  170 1    
    97   48  171 1    
    98   48  172 1    
    99   48  173 1    
   100   49   50 am   BACKBONE|DICT|INTERRES
   101   49  174 1    
   102   50   51 2    
   103   50   52 1    
   104   52   53 1    
   105   52   54 1    
   106   52  175 1    
   107   53  176 1    
   108   53  177 1    
   109   53  178 1    
   110   54   55 am   BACKBONE|DICT|INTERRES
   111   54  179 1    
   112   55   56 2    
   113   55   57 1    
   114   57   58 1    
   115   57   59 1    
   116   57  180 1    
   117   58  181 1    
   118   58  182 1    
   119   58  183 1    
   120   59   60 am   BACKBONE|DICT|INTERRES
   121   59  184 1    
   122   60   61 2    
   123   60   62 1    
   124   62   63 1    
   125   62   64 1    
   126   62  185 1    
   127   63  186 1    
   128   63  187 1    
   129   63  188 1    
   130   64   65 am   BACKBONE|DICT|INTERRES
   131   64  189 1    
   132   65   66 2    
   133   67   68 2    
   134   67   69 am   BACKBONE|DICT|INTERRES
   135   69   70 1    
   136   69  190 1    
   137   70   71 1    
   138   70   72 1    
   139   70  191 1    
   140   71  192 1    
   141   71  193 1    
   142   71  194 1    
   143   72   73 2    
   144   72   74 am   BACKBONE|DICT|INTERRES
   145   74   75 1    
   146   74  195 1    
   147   75   76 1    
   148   75   77 1    
   149   75  196 1    
   150   76  197 1    
   151   76  198 1    
   152   76  199 1    
   153   77   78 2    
   154   77   79 am   BACKBONE|DICT|INTERRES
   155   79   80 1    
   156   79  200 1    
   157   80   81 1    
   158   80   82 1    
   159   80  201 1    
   160   81  202 1    
   161   81  203 1    
   162   81  204 1    
   163   82   83 2    
   164   82   84 am   BACKBONE|DICT|INTERRES
   165   84   85 1    
   166   84  205 1    
   167   85   86 1    
   168   85   87 1    
   169   85  206 1    
   170   86  207 1    
   171   86  208 1    
   172   86  209 1    
   173   87   88 2    
   174   87   89 am   BACKBONE|DICT|INTERRES
   175   89   90 1    
   176   89  210 1    
   177   90   91 1    
   178   90   92 1    
   179   90  211 1    
   180   91  212 1    
   181   91  213 1    
   182   91  214 1    
   183   92   93 2    
   184   92   94 am   BACKBONE|DICT|INTERRES
   185   94   95 1    
   186   94  215 1    
   187   95   96 1    
   188   95   97 1    
   189   95  216 1    
   190   96  217 1    
   191   96  218 1    
   192   96  219 1    
   193   97   98 2    
   194   97   99 am   BACKBONE|DICT|INTERRES
   195   99  100 1    
   196   99  220 1    
   197  100  101 1    
   198  100  102 1    
   199  100  221 1    
   200  101  222 1    
   201  101  223 1    
   202  101  224 1    
   203  102  103 2    
   204  102  104 am   BACKBONE|DICT|INTERRES
   205  104  105 1    
   206  104  225 1    
   207  105  106 1    
   208  105  107 1    
   209  105  226 1    
   210  106  227 1    
   211  106  228 1    
   212  106  229 1    
   213  107  108 2    
   214  107  109 am   BACKBONE|DICT|INTERRES
   215  109  110 1    
   216  109  230 1    
   217  110  111 1    
   218  110  112 1    
   219  110  231 1    
   220  111  232 1    
   221  111  233 1    
   222  111  234 1    
   223  112  113 2    
   224  112  114 am   BACKBONE|DICT|INTERRES
   225  114  115 1    
   226  114  235 1    
   227  115  116 1    
   228  115  117 1    
   229  115  236 1    
   230  116  237 1    
   231  116  238 1    
   232  116  239 1    
   233  117  118 2    
   234  117  119 am   BACKBONE|DICT|INTERRES
   235  119  120 1    
   236  119  240 1    
   237  120  121 1    
   238  120  124 1    
   239  120  241 1    
   240  121  122 am   BACKBONE|DICT|INTERRES
   241  121  123 2    
   242  122  242 1    
   243  122  243 1    
   244  124  125 1    
   245  124  244 1    
   246  124  245 1    
   247  125  126 1    
   248  126  246 1    
   249  126  247 1    
@<TRIPOS>SUBSTRUCTURE
     1 UNK         1 GROUP             0       ****    0 ROOT    
