@<TRIPOS>MOLECULE
3R540
247   249    1
SMALL
USER_CHARGES


@<TRIPOS>ATOM
      1 CA          9.1729  -16.3475  -52.5140 C.3       0 UNK        -0.1800 
      2 C           7.8022  -16.6038  -51.9032 C.2       0 UNK         0.5000 
      3 O           7.7043  -16.8494  -50.7006 O.2       0 UNK        -0.5000 
      4 N           6.7488  -16.5561  -52.7277 N.am      1 UNK        -0.5000 
      5 CA          5.3505  -16.7274  -52.3202 C.3       1 UNK         0.1400 
      6 C6          4.4298  -16.9817  -53.5392 C.3       23 UNK        -0.0398 
      7 S7          4.7280  -18.6526  -54.2289 S.3       23 UNK        -0.2404 
      8 C8          3.2910  -19.6346  -53.6646 C.3       23 UNK        -0.0205 
      9 C9          2.8806  -19.3229  -52.2326 C.ar      23 UNK        -0.0193 
     10 C10         1.7283  -18.5688  -51.9961 C.ar      23 UNK        -0.1150 
     11 C11         1.3823  -18.1884  -50.7000 C.ar      23 UNK        -0.0193 
     12 C12         2.1917  -18.5874  -49.6332 C.ar      23 UNK        -0.1150 
     13 C13         3.3410  -19.3509  -49.8488 C.ar      23 UNK        -0.0193 
     14 C14         3.6710  -19.7331  -51.1535 C.ar      23 UNK        -0.1150 
     15 C15         4.2719  -19.6806  -48.6878 C.3       23 UNK        -0.0205 
     16 S16         3.8567  -21.2454  -47.8555 S.3       23 UNK        -0.2404 
     17 C17         2.6082  -20.7325  -46.6200 C.3       23 UNK        -0.0398 
     18 CA          1.5147  -21.8106  -46.4193 C.3       11 UNK         0.1400 
     19 N           0.8820  -21.7442  -45.0934 N.am      11 UNK        -0.5000 
     20 C           0.1207  -22.7231  -44.5805 C.2       10 UNK         0.5000 
     21 O          -0.0574  -23.7963  -45.1583 O.2       10 UNK        -0.5000 
     22 CA         -0.6418  -22.4459  -43.2694 C.3       10 UNK         0.1400 
     23 CB         -0.5916  -23.6396  -42.2939 C.3       10 UNK        -0.1800 
     24 N          -0.2976  -21.1824  -42.6079 N.am      10 UNK        -0.5000 
     25 C           0.8030  -20.8706  -41.9097 C.2       9 UNK         0.5000 
     26 O           1.7605  -21.6297  -41.7613 O.2       9 UNK        -0.5000 
     27 CA          0.8510  -19.4640  -41.2730 C.3       9 UNK         0.1400 
     28 CB          1.9192  -18.5937  -41.9528 C.3       9 UNK        -0.1800 
     29 N          -0.4323  -18.7519  -41.3034 N.am      9 UNK        -0.5000 
     30 C          -1.4744  -19.0166  -40.5006 C.2       8 UNK         0.5000 
     31 O          -1.4679  -19.8984  -39.6415 O.2       8 UNK        -0.5000 
     32 CA         -2.7428  -18.1717  -40.7095 C.3       8 UNK         0.1400 
     33 CB         -2.6168  -16.8147  -39.9989 C.3       8 UNK        -0.1800 
     34 N          -3.0029  -17.9541  -42.1328 N.am      8 UNK        -0.5000 
     35 C          -3.7617  -18.7514  -42.8984 C.2       7 UNK         0.5000 
     36 O          -4.3796  -19.7250  -42.4684 O.2       7 UNK        -0.5000 
     37 CA         -3.8259  -18.4301  -44.4051 C.3       7 UNK         0.1400 
     38 CB         -5.0576  -17.5773  -44.7425 C.3       7 UNK        -0.1800 
     39 N          -2.6233  -17.7569  -44.8934 N.am      7 UNK        -0.5000 
     40 C          -1.4380  -18.3652  -45.0406 C.2       6 UNK         0.5000 
     41 O          -1.2727  -19.5757  -44.8920 O.2       6 UNK        -0.5000 
     42 CA         -0.2240  -17.4965  -45.4115 C.3       6 UNK         0.1400 
     43 CB          0.0114  -17.5882  -46.9147 C.3       6 UNK        -0.1800 
     44 N          -0.3460  -16.0843  -45.0588 N.am      6 UNK        -0.5000 
     45 C          -0.5931  -15.5877  -43.8390 C.2       5 UNK         0.5000 
     46 O          -0.6432  -16.2834  -42.8242 O.2       5 UNK        -0.5000 
     47 CA         -0.9112  -14.0796  -43.7479 C.3       5 UNK         0.1400 
     48 CB          0.3149  -13.3078  -43.2400 C.3       5 UNK        -0.1800 
     49 N          -1.3560  -13.4866  -45.0154 N.am      5 UNK        -0.5000 
     50 C          -2.4065  -13.8884  -45.7479 C.2       4 UNK         0.5000 
     51 O          -3.1971  -14.7608  -45.3837 O.2       4 UNK        -0.5000 
     52 CA         -2.5673  -13.2693  -47.1511 C.3       4 UNK         0.1400 
     53 CB         -3.6759  -12.2068  -47.1398 C.3       4 UNK        -0.1800 
     54 N          -1.3531  -12.6888  -47.7413 N.am      4 UNK        -0.5000 
     55 C          -0.1912  -13.3240  -47.9558 C.2       3 UNK         0.5000 
     56 O           0.0189  -14.4846  -47.5967 O.2       3 UNK        -0.5000 
     57 CA          0.9176  -12.5036  -48.6525 C.3       3 UNK         0.1400 
     58 CB          1.1559  -11.1584  -47.9410 C.3       3 UNK        -0.1800 
     59 N           2.1896  -13.2251  -48.6902 N.am      3 UNK        -0.5000 
     60 C           2.5257  -14.1763  -49.5698 C.2       2 UNK         0.5000 
     61 O           1.8323  -14.4967  -50.5377 O.2       2 UNK        -0.5000 
     62 CA          3.8691  -14.8785  -49.2899 C.3       2 UNK         0.1400 
     63 CB          3.8366  -15.6224  -47.9424 C.3       2 UNK        -0.1800 
     64 N           4.2462  -15.8361  -50.3286 N.am      2 UNK        -0.5000 
     65 C           4.8819  -15.5305  -51.4655 C.2       1 UNK         0.5000 
     66 O           5.1387  -14.3788  -51.8263 O.2       1 UNK        -0.5000 
     67 C           0.4715  -21.8059  -47.5600 C.2       11 UNK         0.5000 
     68 O           0.7416  -22.3511  -48.6276 O.2       11 UNK        -0.5000 
     69 N          -0.7339  -21.2771  -47.2978 N.am      12 UNK        -0.5000 
     70 CA         -1.8741  -21.3431  -48.2118 C.3       12 UNK         0.1400 
     71 CB         -3.0188  -20.4849  -47.6609 C.3       12 UNK        -0.1800 
     72 C          -2.3604  -22.7792  -48.4897 C.2       12 UNK         0.5000 
     73 O          -2.9179  -23.0258  -49.5585 O.2       12 UNK        -0.5000 
     74 N          -2.1379  -23.7106  -47.5505 N.am      13 UNK        -0.5000 
     75 CA         -2.4123  -25.1347  -47.7495 C.3       13 UNK         0.1400 
     76 CB         -2.4813  -25.8517  -46.3933 C.3       13 UNK        -0.1800 
     77 C          -1.3662  -25.7873  -48.6712 C.2       13 UNK         0.5000 
     78 O          -1.7352  -26.5800  -49.5370 O.2       13 UNK        -0.5000 
     79 N          -0.0909  -25.4049  -48.5063 N.am      14 UNK        -0.5000 
     80 CA          1.0267  -25.8396  -49.3501 C.3       14 UNK         0.1400 
     81 CB          2.3563  -25.4522  -48.6840 C.3       14 UNK        -0.1800 
     82 C           0.9394  -25.2727  -50.7806 C.2       14 UNK         0.5000 
     83 O           1.2464  -25.9822  -51.7388 O.2       14 UNK        -0.5000 
     84 N           0.4737  -24.0219  -50.8980 N.am      15 UNK        -0.5000 
     85 CA          0.1803  -23.3321  -52.1566 C.3       15 UNK         0.1400 
     86 CB          0.0611  -21.8263  -51.8726 C.3       15 UNK        -0.1800 
     87 C          -1.0928  -23.8475  -52.8638 C.2       15 UNK         0.5000 
     88 O          -1.3422  -23.4557  -54.0042 O.2       15 UNK        -0.5000 
     89 N          -1.8731  -24.6990  -52.1796 N.am      16 UNK        -0.5000 
     90 CA         -3.1296  -25.3205  -52.6122 C.3       16 UNK         0.1400 
     91 CB         -2.9149  -26.2153  -53.8509 C.3       16 UNK        -0.1800 
     92 C          -4.2941  -24.3213  -52.7819 C.2       16 UNK         0.5000 
     93 O          -5.2478  -24.6068  -53.5081 O.2       16 UNK        -0.5000 
     94 N          -4.2181  -23.1838  -52.0798 N.am      17 UNK        -0.5000 
     95 CA         -5.3018  -22.2115  -51.9484 C.3       17 UNK         0.1400 
     96 CB         -4.7082  -20.8357  -51.6159 C.3       17 UNK        -0.1800 
     97 C          -6.3151  -22.6378  -50.8697 C.2       17 UNK         0.5000 
     98 O          -7.4971  -22.3205  -51.0018 O.2       17 UNK        -0.5000 
     99 N          -5.8297  -23.3655  -49.8481 N.am      18 UNK        -0.5000 
    100 CA        -6.5657  -23.9024  -48.6981 C.3       18 UNK         0.1400 
    101 CB        -7.5741  -24.9802  -49.1465 C.3       18 UNK        -0.1800 
    102 C         -7.2060  -22.7740  -47.8669 C.2       18 UNK         0.5000 
    103 O         -8.4307  -22.6442  -47.8241 O.2       18 UNK        -0.5000 
    104 N         -6.3344  -21.9577  -47.2568 N.am      19 UNK        -0.5000 
    105 CA        -6.6309  -20.6828  -46.5981 C.3       19 UNK         0.1400 
    106 CB        -7.5748  -20.8574  -45.3866 C.3       19 UNK        -0.1800 
    107 C         -7.0881  -19.6480  -47.6436 C.2       19 UNK         0.5000 
    108 O         -6.3347  -19.4029  -48.5871 O.2       19 UNK        -0.5000 
    109 N         -8.2763  -19.0511  -47.4618 N.am      20 UNK        -0.5000 
    110 CA        -8.9507  -18.1349  -48.3949 C.3       20 UNK         0.1400 
    111 CB        -9.4635  -18.9225  -49.6189 C.3       20 UNK        -0.1800 
    112 C         -8.0913  -16.9150  -48.7956 C.2       20 UNK         0.5000 
    113 O         -8.0782  -16.5205  -49.9638 O.2       20 UNK        -0.5000 
    114 N         -7.3374  -16.3803  -47.8208 N.am      21 UNK        -0.5000 
    115 CA        -6.3596  -15.2905  -47.9569 C.3       21 UNK         0.1400 
    116 CB        -7.0824  -13.9557  -48.2354 C.3       21 UNK        -0.1800 
    117 C         -5.2406  -15.5850  -48.9844 C.2       21 UNK         0.5000 
    118 O         -4.6811  -14.6545  -49.5652 O.2       21 UNK        -0.5000 
    119 N         -4.9447  -16.8744  -49.2012 N.am      22 UNK        -0.5000 
    120 CA        -4.0309  -17.3903  -50.2303 C.3       22 UNK         0.1400 
    121 C         -4.5448  -17.2122  -51.6949 C.2       22 UNK         0.5000 
    122 N         -5.8276  -16.9477  -51.9217 N.am      22 UNK        -0.7600 
    123 O         -3.7820  -17.3375  -52.6483 O.2       22 UNK        -0.5000 
    124 C124       -2.5612  -16.9230  -50.0189 C.3       23 UNK        -0.0398 
    125 S125       -1.3570  -18.2619  -50.3146 S.3       23 UNK        -0.2404 
    126 C126        0.1720  -17.2961  -50.4720 C.3       23 UNK        -0.0205 
    127 H127        9.6390  -15.4836  -52.0402 H         1 UNK         0.0600 
    128 H128        9.8194  -17.2117  -52.3613 H         1 UNK         0.0600 
    129 H129        9.1103  -16.1551  -53.5854 H         1 UNK         0.0600 
    130 H130        6.8946  -16.3389  -53.7028 H         1 UNK         0.3000 
    131 H131        5.3164  -17.6105  -51.6801 H         1 UNK         0.0600 
    132 H132        3.3775  -16.8677  -53.2803 H         1 UNK         0.0800 
    133 H133        4.6160  -16.2418  -54.3191 H         1 UNK         0.0800 
    134 H134        3.5301  -20.6955  -53.7491 H         1 UNK         0.0800 
    135 H135        2.4579  -19.4574  -54.3465 H         1 UNK         0.0800 
    136 H136        1.1157  -18.2446  -52.8257 H         1 UNK         0.1150 
    137 H137        1.9489  -18.2782  -48.6335 H         1 UNK         0.1150 
    138 H138        4.5704  -20.3043  -51.3366 H         1 UNK         0.1150 
    139 H139        5.2961  -19.7523  -49.0573 H         1 UNK         0.0800 
    140 H140        4.2779  -18.8669  -47.9609 H         1 UNK         0.0800 
    141 H141        2.1741  -19.7693  -46.8839 H         1 UNK         0.0800 
    142 H142        3.1449  -20.5707  -45.6842 H         1 UNK         0.0800 
    143 H143        2.0084  -22.7843  -46.4631 H         1 UNK         0.0600 
    144 H144        0.9330  -20.8704  -44.5918 H         1 UNK         0.3000 
    145 H145       -1.6839  -22.3274  -43.5697 H         1 UNK         0.0600 
    146 H146       -1.1522  -23.4290  -41.3831 H         1 UNK         0.0600 
    147 H147       -1.0307  -24.5304  -42.7447 H         1 UNK         0.0600 
    148 H148        0.4303  -23.8922  -42.0108 H         1 UNK         0.0600 
    149 H149       -0.9829  -20.4486  -42.7261 H         1 UNK         0.3000 
    150 H150        1.1420  -19.5951  -40.2287 H         1 UNK         0.0600 
    151 H151        2.9071  -19.0477  -41.8649 H         1 UNK         0.0600 
    152 H152        1.9747  -17.6058  -41.4951 H         1 UNK         0.0600 
    153 H153        1.7158  -18.4601  -43.0133 H         1 UNK         0.0600 
    154 H154       -0.4993  -17.9603  -41.9372 H         1 UNK         0.3000 
    155 H155       -3.5819  -18.7064  -40.2589 H         1 UNK         0.0600 
    156 H156       -1.7842  -16.2265  -40.3857 H         1 UNK         0.0600 
    157 H157       -2.4524  -16.9500  -38.9292 H         1 UNK         0.0600 
    158 H158       -3.5257  -16.2243  -40.1157 H         1 UNK         0.0600 
    159 H159       -2.4842  -17.2027  -42.5707 H         1 UNK         0.3000 
    160 H160       -3.9217  -19.3814  -44.9290 H         1 UNK         0.0600 
    161 H161       -5.1411  -17.4213  -45.8179 H         1 UNK         0.0600 
    162 H162       -5.0114  -16.5984  -44.2636 H         1 UNK         0.0600 
    163 H163       -5.9750  -18.0634  -44.4092 H         1 UNK         0.0600 
    164 H164       -2.6943  -16.7581  -45.0585 H         1 UNK         0.3000 
    165 H165        0.6484  -17.9002  -44.8997 H         1 UNK         0.0600 
    166 H166        0.1325  -18.6192  -47.2439 H         1 UNK         0.0600 
    167 H167        0.9036  -17.0307  -47.1918 H         1 UNK         0.0600 
    168 H168       -0.8270  -17.1669  -47.4664 H         1 UNK         0.0600 
    169 H169       -0.3034  -15.4356  -45.8392 H         1 UNK         0.3000 
    170 H170       -1.7203  -13.9626  -43.0244 H         1 UNK         0.0600 
    171 H171        0.6598  -13.7062  -42.2847 H         1 UNK         0.0600 
    172 H172        1.1476  -13.3699  -43.9419 H         1 UNK         0.0600 
    173 H173        0.0824  -12.2540  -43.0855 H         1 UNK         0.0600 
    174 H174       -0.7612  -12.7717  -45.4068 H         1 UNK         0.3000 
    175 H175       -2.8741  -14.0838  -47.8068 H         1 UNK         0.0600 
    176 H176       -3.9292  -11.8917  -48.1523 H         1 UNK         0.0600 
    177 H177       -4.5879  -12.5953  -46.6849 H         1 UNK         0.0600 
    178 H178       -3.3796  -11.3230  -46.5736 H         1 UNK         0.0600 
    179 H179       -1.4362  -11.7320  -48.0524 H         1 UNK         0.3000 
    180 H180        0.5917  -12.3048  -49.6755 H         1 UNK         0.0600 
    181 H181        1.4107  -11.2982  -46.8895 H         1 UNK         0.0600 
    182 H182        0.2754  -10.5170  -47.9852 H         1 UNK         0.0600 
    183 H183        1.9706  -10.6058  -48.4098 H         1 UNK         0.0600 
    184 H184        2.8090  -13.0541  -47.9122 H         1 UNK         0.3000 
    185 H185        4.6398  -14.1067  -49.2326 H         1 UNK         0.0600 
    186 H186        3.0395  -16.3627  -47.9120 H         1 UNK         0.0600 
    187 H187        4.7790  -16.1366  -47.7520 H         1 UNK         0.0600 
    188 H188        3.6741  -14.9374  -47.1098 H         1 UNK         0.0600 
    189 H189        4.0145  -16.8011  -50.1441 H         1 UNK         0.3000 
    190 H190       -0.8954  -20.8401  -46.3960 H         1 UNK         0.3000 
    191 H191       -1.5607  -20.9212  -49.1665 H         1 UNK         0.0600 
    192 H192       -2.7222  -19.4397  -47.5745 H         1 UNK         0.0600 
    193 H193       -3.3339  -20.8323  -46.6776 H         1 UNK         0.0600 
    194 H194       -3.8846  -20.5162  -48.3217 H         1 UNK         0.0600 
    195 H195       -1.6436  -23.4573  -46.7048 H         1 UNK         0.3000 
    196 H196       -3.3886  -25.2373  -48.2280 H         1 UNK         0.0600 
    197 H197       -2.7763  -26.8938  -46.5219 H         1 UNK         0.0600 
    198 H198       -3.2147  -25.3847  -45.7357 H         1 UNK         0.0600 
    199 H199       -1.5195  -25.8482  -45.8807 H         1 UNK         0.0600 
    200 H200        0.1211  -24.7277  -47.7879 H         1 UNK         0.3000 
    201 H201        0.9896  -26.9287  -49.4220 H         1 UNK         0.0600 
    202 H202        2.4375  -25.8809  -47.6850 H         1 UNK         0.0600 
    203 H203        2.4684  -24.3715  -48.5954 H         1 UNK         0.0600 
    204 H204        3.2026  -25.8199  -49.2654 H         1 UNK         0.0600 
    205 H205        0.3502  -23.4761  -50.0479 H         1 UNK         0.3000 
    206 H206        1.0215  -23.4876  -52.8349 H         1 UNK         0.0600 
    207 H207       -0.8154  -21.6015  -51.2655 H         1 UNK         0.0600 
    208 H208        0.9379  -21.4502  -51.3447 H         1 UNK         0.0600 
    209 H209       -0.0290  -21.2570  -52.7983 H         1 UNK         0.0600 
    210 H210       -1.5733  -24.9501  -51.2473 H         1 UNK         0.3000 
    211 H211       -3.4267  -25.9750  -51.7917 H         1 UNK         0.0600 
    212 H212       -2.6990  -25.6288  -54.7441 H         1 UNK         0.0600 
    213 H213       -3.8032  -26.8118  -54.0610 H         1 UNK         0.0600 
    214 H214       -2.0891  -26.9099  -53.6964 H         1 UNK         0.0600 
    215 H215       -3.4287  -23.0595  -51.4545 H         1 UNK         0.3000 
    216 H216       -5.8334  -22.1315  -52.8990 H         1 UNK         0.0600 
    217 H217       -5.4989  -20.0949  -51.4890 H         1 UNK         0.0600 
    218 H218       -4.0534  -20.4832  -52.4130 H         1 UNK         0.0600 
    219 H219       -4.1291  -20.8574  -50.6934 H         1 UNK         0.0600 
    220 H220       -4.8250  -23.5053  -49.8310 H         1 UNK         0.3000 
    221 H221       -5.8317  -24.3918  -48.0561 H         1 UNK         0.0600 
    222 H222       -8.3556  -24.5704  -49.7868 H         1 UNK         0.0600 
    223 H223       -7.0765  -25.7789  -49.6966 H         1 UNK         0.0600 
    224 H224       -8.0645  -25.4346  -48.2849 H         1 UNK         0.0600 
    225 H225       -5.3537  -22.1460  -47.3965 H         1 UNK         0.3000 
    226 H226       -5.6824  -20.3131  -46.2112 H         1 UNK         0.0600 
    227 H227       -7.1747  -21.5925  -44.6882 H         1 UNK         0.0600 
    228 H228       -7.6822  -19.9227  -44.8351 H         1 UNK         0.0600 
    229 H229       -8.5730  -21.1874  -45.6745 H         1 UNK         0.0600 
    230 H230       -8.8132  -19.3128  -46.6469 H         1 UNK         0.3000 
    231 H231       -9.8191  -17.7360  -47.8690 H         1 UNK         0.0600 
    232 H232      -10.0865  -19.7632  -49.3136 H         1 UNK         0.0600 
    233 H233       -8.6413  -19.3186  -50.2168 H         1 UNK         0.0600 
    234 H234      -10.0688  -18.2904  -50.2696 H         1 UNK         0.0600 
    235 H235       -7.4126  -16.7882  -46.9000 H         1 UNK         0.3000 
    236 H236       -5.8603  -15.1997  -46.9910 H         1 UNK         0.0600 
    237 H237       -6.3859  -13.1174  -48.2269 H         1 UNK         0.0600 
    238 H238       -7.5734  -13.9574  -49.2089 H         1 UNK         0.0600 
    239 H239       -7.8397  -13.7528  -47.4783 H         1 UNK         0.0600 
    240 H240       -5.4974  -17.5881  -48.7379 H         1 UNK         0.3000 
    241 H241       -4.0607  -18.4668  -50.0656 H         1 UNK         0.0600 
    242 H242       -6.1453  -16.8424  -52.8716 H         1 UNK         0.3800 
    243 H243       -6.4880  -16.8326  -51.1601 H         1 UNK         0.3800 
    244 H244       -2.3269  -16.0612  -50.6463 H         1 UNK         0.0800 
    245 H245       -2.4148  -16.5841  -48.9936 H         1 UNK         0.0800 
    246 H246        0.3168  -16.6825  -49.5825 H         1 UNK         0.0800 
    247 H247        0.0704  -16.5975  -51.3038 H         1 UNK         0.0800 
@<TRIPOS>BOND
     1    1    2 1    
     2    1  127 1    
     3    1  128 1    
     4    1  129 1    
     5    2    3 2    
     6    2    4 am   BACKBONE|DICT|INTERRES
     7    4    5 1    
     8    4  130 1    
     9    5    6 1    
    10    5   65 1    
    11    5  131 1    
    12    6    7 1    
    13    6  132 1    
    14    6  133 1    
    15    7    8 1    
    16    8    9 1    
    17    8  134 1    
    18    8  135 1    
    19    9   10 ar   
    20    9   14 ar   
    21   10   11 ar   
    22   10  136 1    
    23   11   12 ar   
    24   11  126 1    
    25   12   13 ar   
    26   12  137 1    
    27   13   14 ar   
    28   13   15 1    
    29   14  138 1    
    30   15   16 1    
    31   15  139 1    
    32   15  140 1    
    33   16   17 1    
    34   17   18 1    
    35   17  141 1    
    36   17  142 1    
    37   18   19 1    
    38   18   67 1    
    39   18  143 1    
    40   19   20 am   BACKBONE|DICT|INTERRES
    41   19  144 1    
    42   20   21 2    
    43   20   22 1    
    44   22   23 1    
    45   22   24 1    
    46   22  145 1    
    47   23  146 1    
    48   23  147 1    
    49   23  148 1    
    50   24   25 am   BACKBONE|DICT|INTERRES
    51   24  149 1    
    52   25   26 2    
    53   25   27 1    
    54   27   28 1    
    55   27   29 1    
    56   27  150 1    
    57   28  151 1    
    58   28  152 1    
    59   28  153 1    
    60   29   30 am   BACKBONE|DICT|INTERRES
    61   29  154 1    
    62   30   31 2    
    63   30   32 1    
    64   32   33 1    
    65   32   34 1    
    66   32  155 1    
    67   33  156 1    
    68   33  157 1    
    69   33  158 1    
    70   34   35 am   BACKBONE|DICT|INTERRES
    71   34  159 1    
    72   35   36 2    
    73   35   37 1    
    74   37   38 1    
    75   37   39 1    
    76   37  160 1    
    77   38  161 1    
    78   38  162 1    
    79   38  163 1    
    80   39   40 am   BACKBONE|DICT|INTERRES
    81   39  164 1    
    82   40   41 2    
    83   40   42 1    
    84   42   43 1    
    85   42   44 1    
    86   42  165 1    
    87   43  166 1    
    88   43  167 1    
    89   43  168 1    
    90   44   45 am   BACKBONE|DICT|INTERRES
    91   44  169 1    
    92   45   46 2    
    93   45   47 1    
    94   47   48 1    
    95   47   49 1    
    96   47  170 1    
    97   48  171 1    
    98   48  172 1    
    99   48  173 1    
   100   49   50 am   BACKBONE|DICT|INTERRES
   101   49  174 1    
   102   50   51 2    
   103   50   52 1    
   104   52   53 1    
   105   52   54 1    
   106   52  175 1    
   107   53  176 1    
   108   53  177 1    
   109   53  178 1    
   110   54   55 am   BACKBONE|DICT|INTERRES
   111   54  179 1    
   112   55   56 2    
   113   55   57 1    
   114   57   58 1    
   115   57   59 1    
   116   57  180 1    
   117   58  181 1    
   118   58  182 1    
   119   58  183 1    
   120   59   60 am   BACKBONE|DICT|INTERRES
   121   59  184 1    
   122   60   61 2    
   123   60   62 1    
   124   62   63 1    
   125   62   64 1    
   126   62  185 1    
   127   63  186 1    
   128   63  187 1    
   129   63  188 1    
   130   64   65 am   BACKBONE|DICT|INTERRES
   131   64  189 1    
   132   65   66 2    
   133   67   68 2    
   134   67   69 am   BACKBONE|DICT|INTERRES
   135   69   70 1    
   136   69  190 1    
   137   70   71 1    
   138   70   72 1    
   139   70  191 1    
   140   71  192 1    
   141   71  193 1    
   142   71  194 1    
   143   72   73 2    
   144   72   74 am   BACKBONE|DICT|INTERRES
   145   74   75 1    
   146   74  195 1    
   147   75   76 1    
   148   75   77 1    
   149   75  196 1    
   150   76  197 1    
   151   76  198 1    
   152   76  199 1    
   153   77   78 2    
   154   77   79 am   BACKBONE|DICT|INTERRES
   155   79   80 1    
   156   79  200 1    
   157   80   81 1    
   158   80   82 1    
   159   80  201 1    
   160   81  202 1    
   161   81  203 1    
   162   81  204 1    
   163   82   83 2    
   164   82   84 am   BACKBONE|DICT|INTERRES
   165   84   85 1    
   166   84  205 1    
   167   85   86 1    
   168   85   87 1    
   169   85  206 1    
   170   86  207 1    
   171   86  208 1    
   172   86  209 1    
   173   87   88 2    
   174   87   89 am   BACKBONE|DICT|INTERRES
   175   89   90 1    
   176   89  210 1    
   177   90   91 1    
   178   90   92 1    
   179   90  211 1    
   180   91  212 1    
   181   91  213 1    
   182   91  214 1    
   183   92   93 2    
   184   92   94 am   BACKBONE|DICT|INTERRES
   185   94   95 1    
   186   94  215 1    
   187   95   96 1    
   188   95   97 1    
   189   95  216 1    
   190   96  217 1    
   191   96  218 1    
   192   96  219 1    
   193   97   98 2    
   194   97   99 am   BACKBONE|DICT|INTERRES
   195   99  100 1    
   196   99  220 1    
   197  100  101 1    
   198  100  102 1    
   199  100  221 1    
   200  101  222 1    
   201  101  223 1    
   202  101  224 1    
   203  102  103 2    
   204  102  104 am   BACKBONE|DICT|INTERRES
   205  104  105 1    
   206  104  225 1    
   207  105  106 1    
   208  105  107 1    
   209  105  226 1    
   210  106  227 1    
   211  106  228 1    
   212  106  229 1    
   213  107  108 2    
   214  107  109 am   BACKBONE|DICT|INTERRES
   215  109  110 1    
   216  109  230 1    
   217  110  111 1    
   218  110  112 1    
   219  110  231 1    
   220  111  232 1    
   221  111  233 1    
   222  111  234 1    
   223  112  113 2    
   224  112  114 am   BACKBONE|DICT|INTERRES
   225  114  115 1    
   226  114  235 1    
   227  115  116 1    
   228  115  117 1    
   229  115  236 1    
   230  116  237 1    
   231  116  238 1    
   232  116  239 1    
   233  117  118 2    
   234  117  119 am   BACKBONE|DICT|INTERRES
   235  119  120 1    
   236  119  240 1    
   237  120  121 1    
   238  120  124 1    
   239  120  241 1    
   240  121  122 am   BACKBONE|DICT|INTERRES
   241  121  123 2    
   242  122  242 1    
   243  122  243 1    
   244  124  125 1    
   245  124  244 1    
   246  124  245 1    
   247  125  126 1    
   248  126  246 1    
   249  126  247 1    
@<TRIPOS>SUBSTRUCTURE
     1 UNK         1 GROUP             0       ****    0 ROOT    
