@<TRIPOS>MOLECULE
3R540
247   249    1
SMALL
USER_CHARGES


@<TRIPOS>ATOM
      1 CA          5.6569  -11.8506  -47.0754 C.3       0 UNK        -0.1800 
      2 C           4.2267  -12.3337  -47.2618 C.2       0 UNK         0.5000 
      3 O           3.3083  -11.5171  -47.3324 O.2       0 UNK        -0.5000 
      4 N           4.0307  -13.6546  -47.3643 N.am      1 UNK        -0.5000 
      5 CA          2.7244  -14.3062  -47.5349 C.3       1 UNK         0.1400 
      6 C6          2.8107  -15.8474  -47.4196 C.3       23 UNK        -0.0398 
      7 S7          4.0264  -16.6156  -48.5468 S.3       23 UNK        -0.2404 
      8 C8          2.9347  -17.4188  -49.7663 C.3       23 UNK        -0.0205 
      9 C9          2.2485  -18.6640  -49.2176 C.ar      23 UNK        -0.0193 
     10 C10         0.8556  -18.7880  -49.2672 C.ar      23 UNK        -0.1150 
     11 C11         0.2294  -19.9551  -48.8154 C.ar      23 UNK        -0.0193 
     12 C12         1.0081  -21.0009  -48.3160 C.ar      23 UNK        -0.1150 
     13 C13         2.3988  -20.8870  -48.2497 C.ar      23 UNK        -0.0193 
     14 C14         3.0118  -19.7178  -48.7053 C.ar      23 UNK        -0.1150 
     15 C15         3.2461  -22.0435  -47.7411 C.3       23 UNK        -0.0205 
     16 S16         3.6295  -21.9222  -45.9626 S.3       23 UNK        -0.2404 
     17 C17         2.0218  -22.2257  -45.1522 C.3       23 UNK        -0.0398 
     18 CA          1.6113  -23.7263  -45.1268 C.3       11 UNK         0.1400 
     19 N           1.1832  -24.1615  -43.7958 N.am      11 UNK        -0.5000 
     20 C           1.1793  -25.4323  -43.3686 C.2       10 UNK         0.5000 
     21 O           1.6110  -26.3766  -44.0301 O.2       10 UNK        -0.5000 
     22 CA          0.5769  -25.6961  -41.9738 C.3       10 UNK         0.1400 
     23 CB          1.6712  -25.6407  -40.8971 C.3       10 UNK        -0.1800 
     24 N          -0.4822  -24.7466  -41.6270 N.am      10 UNK        -0.5000 
     25 C          -1.6925  -24.7134  -42.2026 C.2       9 UNK         0.5000 
     26 O          -2.0817  -25.5475  -43.0193 O.2       9 UNK        -0.5000 
     27 CA         -2.6051  -23.5249  -41.8356 C.3       9 UNK         0.1400 
     28 CB         -3.5639  -23.9139  -40.7008 C.3       9 UNK        -0.1800 
     29 N          -1.8771  -22.3085  -41.4545 N.am      9 UNK        -0.5000 
     30 C          -1.0363  -21.6332  -42.2490 C.2       8 UNK         0.5000 
     31 O          -0.7493  -21.9860  -43.3960 O.2       8 UNK        -0.5000 
     32 CA         -0.3487  -20.4038  -41.6244 C.3       8 UNK         0.1400 
     33 CB          0.8903  -20.8460  -40.8300 C.3       8 UNK        -0.1800 
     34 N           0.0661  -19.4170  -42.6228 N.am      8 UNK        -0.5000 
     35 C          -0.7693  -18.7367  -43.4155 C.2       7 UNK         0.5000 
     36 O          -2.0000  -18.8308  -43.3572 O.2       7 UNK        -0.5000 
     37 CA         -0.1242  -17.8099  -44.4566 C.3       7 UNK         0.1400 
     38 CB          0.6895  -18.6200  -45.4821 C.3       7 UNK        -0.1800 
     39 N          -1.1952  -17.0822  -45.1260 N.am      7 UNK        -0.5000 
     40 C          -1.0939  -15.9237  -45.7785 C.2       6 UNK         0.5000 
     41 O          -0.0434  -15.2909  -45.9045 O.2       6 UNK        -0.5000 
     42 CA         -2.4028  -15.3681  -46.3579 C.3       6 UNK         0.1400 
     43 CB         -3.2697  -14.7473  -45.2450 C.3       6 UNK        -0.1800 
     44 N          -2.0870  -14.3714  -47.3743 N.am      6 UNK        -0.5000 
     45 C          -2.9406  -13.8551  -48.2661 C.2       5 UNK         0.5000 
     46 O          -4.1220  -14.1908  -48.3524 O.2       5 UNK        -0.5000 
     47 CA         -2.3714  -12.7769  -49.2123 C.3       5 UNK         0.1400 
     48 CB         -3.4596  -11.9338  -49.9094 C.3       5 UNK        -0.1800 
     49 N          -1.3818  -11.9224  -48.5504 N.am      5 UNK        -0.5000 
     50 C          -1.5687  -11.0938  -47.5122 C.2       4 UNK         0.5000 
     51 O          -2.6631  -10.8553  -47.0009 O.2       4 UNK        -0.5000 
     52 CA         -0.3051  -10.4289  -46.9321 C.3       4 UNK         0.1400 
     53 CB          0.2319  -11.2564  -45.7539 C.3       4 UNK        -0.1800 
     54 N           0.7633  -10.2607  -47.9192 N.am      4 UNK        -0.5000 
     55 C           0.7272   -9.3993  -48.9460 C.2       3 UNK         0.5000 
     56 O          -0.1951   -8.6083  -49.1466 O.2       3 UNK        -0.5000 
     57 CA          1.9113   -9.4502  -49.9259 C.3       3 UNK         0.1400 
     58 CB          3.1094   -8.6548  -49.3841 C.3       3 UNK        -0.1800 
     59 N           2.3194  -10.8289  -50.1960 N.am      3 UNK        -0.5000 
     60 C           1.7107  -11.6396  -51.0734 C.2       2 UNK         0.5000 
     61 O           0.7715  -11.2908  -51.7887 O.2       2 UNK        -0.5000 
     62 CA          2.2273  -13.0889  -51.1610 C.3       2 UNK         0.1400 
     63 CB          3.3242  -13.2094  -52.2291 C.3       2 UNK        -0.1800 
     64 N           2.7460  -13.5851  -49.8868 N.am      2 UNK        -0.5000 
     65 C           1.9875  -13.8817  -48.8226 C.2       1 UNK         0.5000 
     66 O           0.7602  -13.8004  -48.8197 O.2       1 UNK        -0.5000 
     67 C           0.5075  -24.0141  -46.1627 C.2       11 UNK         0.5000 
     68 O           0.8177  -24.4304  -47.2760 O.2       11 UNK        -0.5000 
     69 N          -0.7587  -23.8014  -45.7710 N.am      12 UNK        -0.5000 
     70 CA         -1.9708  -23.8675  -46.5996 C.3       12 UNK         0.1400 
     71 CB         -3.1777  -23.4808  -45.7315 C.3       12 UNK        -0.1800 
     72 C          -2.2419  -25.2001  -47.3331 C.2       12 UNK         0.5000 
     73 O          -3.1368  -25.2466  -48.1762 O.2       12 UNK        -0.5000 
     74 N          -1.4730  -26.2536  -47.0301 N.am      13 UNK        -0.5000 
     75 CA         -1.4087  -27.4867  -47.8161 C.3       13 UNK         0.1400 
     76 CB         -0.6307  -28.5409  -47.0138 C.3       13 UNK        -0.1800 
     77 C          -0.7670  -27.2826  -49.2084 C.2       13 UNK         0.5000 
     78 O          -1.0433  -28.0652  -50.1187 O.2       13 UNK        -0.5000 
     79 N           0.0688  -26.2460  -49.3475 N.am      14 UNK        -0.5000 
     80 CA          0.7122  -25.8092  -50.5826 C.3       14 UNK         0.1400 
     81 CB          2.2260  -25.7149  -50.3232 C.3       14 UNK        -0.1800 
     82 C           0.1504  -24.4436  -51.0233 C.2       14 UNK         0.5000 
     83 O          -0.6059  -23.8139  -50.2796 O.2       14 UNK        -0.5000 
     84 N           0.5543  -24.0140  -52.2301 N.am      15 UNK        -0.5000 
     85 CA          0.1946  -22.7533  -52.8933 C.3       15 UNK         0.1400 
     86 CB          0.7631  -21.5441  -52.1233 C.3       15 UNK        -0.1800 
     87 C          -1.3222  -22.6475  -53.1432 C.2       15 UNK         0.5000 
     88 O          -1.9741  -21.7261  -52.6505 O.2       15 UNK        -0.5000 
     89 N          -1.8512  -23.6175  -53.9038 N.am      16 UNK        -0.5000 
     90 CA         -3.2753  -23.8712  -54.1634 C.3       16 UNK         0.1400 
     91 CB         -3.3944  -24.9900  -55.2096 C.3       16 UNK        -0.1800 
     92 C          -4.1247  -22.6551  -54.5899 C.2       16 UNK         0.5000 
     93 O          -5.3125  -22.6102  -54.2693 O.2       16 UNK        -0.5000 
     94 N          -3.5078  -21.6883  -55.2822 N.am      17 UNK        -0.5000 
     95 CA         -4.1374  -20.4349  -55.7032 C.3       17 UNK         0.1400 
     96 CB         -3.2287  -19.7421  -56.7302 C.3       17 UNK        -0.1800 
     97 C          -4.4559  -19.4768  -54.5360 C.2       17 UNK         0.5000 
     98 O          -5.4068  -18.7012  -54.6408 O.2       17 UNK        -0.5000 
     99 N          -3.6630  -19.5409  -53.4581 N.am      18 UNK        -0.5000 
    100 CA        -3.8054  -18.7162  -52.2559 C.3       18 UNK         0.1400 
    101 CB        -2.4474  -18.0683  -51.9391 C.3       18 UNK        -0.1800 
    102 C         -4.3245  -19.5226  -51.0509 C.2       18 UNK         0.5000 
    103 O         -4.7928  -18.9205  -50.0854 O.2       18 UNK        -0.5000 
    104 N         -4.2577  -20.8603  -51.1230 N.am      19 UNK        -0.5000 
    105 CA        -4.6166  -21.8251  -50.0768 C.3       19 UNK         0.1400 
    106 CB        -4.4548  -23.2444  -50.6356 C.3       19 UNK        -0.1800 
    107 C         -6.0214  -21.6634  -49.4641 C.2       19 UNK         0.5000 
    108 O         -6.2224  -22.0543  -48.3157 O.2       19 UNK        -0.5000 
    109 N         -6.9589  -21.0840  -50.2254 N.am      20 UNK        -0.5000 
    110 CA        -8.3053  -20.7387  -49.7685 C.3       20 UNK         0.1400 
    111 CB        -9.1702  -20.3941  -50.9906 C.3       20 UNK        -0.1800 
    112 C         -8.3288  -19.5814  -48.7476 C.2       20 UNK         0.5000 
    113 O         -9.2440  -19.5278  -47.9248 O.2       20 UNK        -0.5000 
    114 N         -7.3412  -18.6784  -48.8204 N.am      21 UNK        -0.5000 
    115 CA        -7.1746  -17.5488  -47.9062 C.3       21 UNK         0.1400 
    116 CB        -6.6668  -16.3340  -48.6963 C.3       21 UNK        -0.1800 
    117 C         -6.2117  -17.8866  -46.7545 C.2       21 UNK         0.5000 
    118 O         -6.3981  -17.3798  -45.6473 O.2       21 UNK        -0.5000 
    119 N         -5.2078  -18.7308  -47.0265 N.am      22 UNK        -0.5000 
    120 CA        -4.2545  -19.2525  -46.0339 C.3       22 UNK         0.1400 
    121 C         -4.9188  -20.1686  -44.9635 C.2       22 UNK         0.5000 
    122 N         -4.3259  -20.2771  -43.7835 N.am      22 UNK        -0.7600 
    123 O         -5.9450  -20.8030  -45.1933 O.2       22 UNK        -0.5000 
    124 C124       -3.0544  -19.9707  -46.7052 C.3       23 UNK        -0.0398 
    125 S125       -2.1779  -18.9080  -47.9032 S.3       23 UNK        -0.2404 
    126 C126       -1.2793  -20.1180  -48.9243 C.3       23 UNK        -0.0205 
    127 H127        5.7466  -11.3021  -46.1378 H         1 UNK         0.0600 
    128 H128        5.9353  -11.1825  -47.8903 H         1 UNK         0.0600 
    129 H129        6.3654  -12.6790  -47.0556 H         1 UNK         0.0600 
    130 H130        4.8227  -14.2807  -47.3196 H         1 UNK         0.3000 
    131 H131        2.1048  -13.9594  -46.7064 H         1 UNK         0.0600 
    132 H132        3.0870  -16.1179  -46.3998 H         1 UNK         0.0800 
    133 H133        1.8281  -16.2927  -47.5802 H         1 UNK         0.0800 
    134 H134        2.2034  -16.6954  -50.1302 H         1 UNK         0.0800 
    135 H135        3.5332  -17.7081  -50.6309 H         1 UNK         0.0800 
    136 H136        0.2546  -17.9859  -49.6721 H         1 UNK         0.1150 
    137 H137        0.5284  -21.9148  -48.0033 H         1 UNK         0.1150 
    138 H138        4.0888  -19.6316  -48.6740 H         1 UNK         0.1150 
    139 H139        2.7667  -22.9955  -47.9603 H         1 UNK         0.0800 
    140 H140        4.1886  -22.0636  -48.2902 H         1 UNK         0.0800 
    141 H141        1.2573  -21.5845  -45.5924 H         1 UNK         0.0800 
    142 H142        2.1324  -21.8518  -44.1334 H         1 UNK         0.0800 
    143 H143        2.4772  -24.3322  -45.4033 H         1 UNK         0.0600 
    144 H144        0.7410  -23.4549  -43.2230 H         1 UNK         0.3000 
    145 H145        0.1509  -26.7017  -41.9792 H         1 UNK         0.0600 
    146 H146        1.2709  -25.8913  -39.9145 H         1 UNK         0.0600 
    147 H147        2.4679  -26.3538  -41.1135 H         1 UNK         0.0600 
    148 H148        2.1250  -24.6508  -40.8333 H         1 UNK         0.0600 
    149 H149       -0.2540  -24.0357  -40.9483 H         1 UNK         0.3000 
    150 H150       -3.2024  -23.2871  -42.7176 H         1 UNK         0.0600 
    151 H151       -3.0265  -24.1344  -39.7775 H         1 UNK         0.0600 
    152 H152       -4.1418  -24.8008  -40.9643 H         1 UNK         0.0600 
    153 H153       -4.2757  -23.1146  -40.4936 H         1 UNK         0.0600 
    154 H154       -2.0461  -21.9649  -40.5199 H         1 UNK         0.3000 
    155 H155       -1.0530  -19.9205  -40.9441 H         1 UNK         0.0600 
    156 H156        1.6290  -21.3296  -41.4709 H         1 UNK         0.0600 
    157 H157        0.6243  -21.5539  -40.0440 H         1 UNK         0.0600 
    158 H158        1.3722  -19.9962  -40.3461 H         1 UNK         0.0600 
    159 H159        1.0603  -19.3009  -42.7484 H         1 UNK         0.3000 
    160 H160        0.5250  -17.1006  -43.9394 H         1 UNK         0.0600 
    161 H161        1.0361  -17.9984  -46.3045 H         1 UNK         0.0600 
    162 H162        0.0966  -19.4277  -45.9108 H         1 UNK         0.0600 
    163 H163        1.5724  -19.0679  -45.0257 H         1 UNK         0.0600 
    164 H164       -2.1033  -17.5036  -44.9874 H         1 UNK         0.3000 
    165 H165       -2.9486  -16.1870  -46.8308 H         1 UNK         0.0600 
    166 H166       -4.2295  -14.4033  -45.6301 H         1 UNK         0.0600 
    167 H167       -2.7714  -13.8960  -44.7794 H         1 UNK         0.0600 
    168 H168       -3.4852  -15.4740  -44.4607 H         1 UNK         0.0600 
    169 H169       -1.1110  -14.0953  -47.4016 H         1 UNK         0.3000 
    170 H170       -1.8290  -13.3164  -49.9900 H         1 UNK         0.0600 
    171 H171       -4.1045  -12.5624  -50.5244 H         1 UNK         0.0600 
    172 H172       -4.0973  -11.4180  -49.1912 H         1 UNK         0.0600 
    173 H173       -3.0165  -11.1842  -50.5652 H         1 UNK         0.0600 
    174 H174       -0.4244  -12.1065  -48.8261 H         1 UNK         0.3000 
    175 H175       -0.5866   -9.4415  -46.5602 H         1 UNK         0.0600 
    176 H176        1.1059  -10.7847  -45.3044 H         1 UNK         0.0600 
    177 H177       -0.5221  -11.3593  -44.9725 H         1 UNK         0.0600 
    178 H178        0.5170  -12.2612  -46.0669 H         1 UNK         0.0600 
    179 H179        1.5980  -10.8264  -47.7887 H         1 UNK         0.3000 
    180 H180        1.5951   -8.9825  -50.8610 H         1 UNK         0.0600 
    181 H181        3.4779   -9.0628  -48.4425 H         1 UNK         0.0600 
    182 H182        2.8356   -7.6144  -49.2046 H         1 UNK         0.0600 
    183 H183        3.9357   -8.6551  -50.0951 H         1 UNK         0.0600 
    184 H184        3.0455  -11.2083  -49.6045 H         1 UNK         0.3000 
    185 H185        1.3892  -13.7225  -51.4596 H         1 UNK         0.0600 
    186 H186        3.6481  -14.2439  -52.3461 H         1 UNK         0.0600 
    187 H187        2.9616  -12.8712  -53.2007 H         1 UNK         0.0600 
    188 H188        4.1995  -12.6090  -51.9778 H         1 UNK         0.0600 
    189 H189        3.7473  -13.6863  -49.8055 H         1 UNK         0.3000 
    190 H190       -0.8915  -23.4261  -44.8385 H         1 UNK         0.3000 
    191 H191       -1.8554  -23.1096  -47.3755 H         1 UNK         0.0600 
    192 H192       -3.4159  -24.2622  -45.0100 H         1 UNK         0.0600 
    193 H193       -4.0664  -23.3215  -46.3442 H         1 UNK         0.0600 
    194 H194       -2.9947  -22.5604  -45.1782 H         1 UNK         0.0600 
    195 H195       -0.7624  -26.1290  -46.3240 H         1 UNK         0.3000 
    196 H196       -2.4265  -27.8513  -47.9690 H         1 UNK         0.0600 
    197 H197       -0.5785  -29.4855  -47.5567 H         1 UNK         0.0600 
    198 H198       -1.1119  -28.7426  -46.0565 H         1 UNK         0.0600 
    199 H199        0.3924  -28.2189  -46.8140 H         1 UNK         0.0600 
    200 H200        0.1992  -25.6131  -48.5606 H         1 UNK         0.3000 
    201 H201        0.5320  -26.5272  -51.3849 H         1 UNK         0.0600 
    202 H202        2.7700  -25.4393  -51.2271 H         1 UNK         0.0600 
    203 H203        2.4559  -24.9695  -49.5608 H         1 UNK         0.0600 
    204 H204        2.6265  -26.6708  -49.9852 H         1 UNK         0.0600 
    205 H205        1.1725  -24.6128  -52.7594 H         1 UNK         0.3000 
    206 H206        0.6716  -22.7670  -53.8742 H         1 UNK         0.0600 
    207 H207        1.8403  -21.6315  -51.9832 H         1 UNK         0.0600 
    208 H208        0.5764  -20.6134  -52.6601 H         1 UNK         0.0600 
    209 H209        0.3066  -21.4474  -51.1401 H         1 UNK         0.0600 
    210 H210       -1.2189  -24.3180  -54.2624 H         1 UNK         0.3000 
    211 H211       -3.6998  -24.2470  -53.2325 H         1 UNK         0.0600 
    212 H212       -2.9349  -24.7041  -56.1566 H         1 UNK         0.0600 
    213 H213       -4.4394  -25.2300  -55.4109 H         1 UNK         0.0600 
    214 H214       -2.9147  -25.9066  -54.8657 H         1 UNK         0.0600 
    215 H215       -2.5291  -21.8041  -55.5001 H         1 UNK         0.3000 
    216 H216       -5.0817  -20.6784  -56.1948 H         1 UNK         0.0600 
    217 H217       -3.6793  -18.8156  -57.0886 H         1 UNK         0.0600 
    218 H218       -3.0599  -20.3772  -57.6001 H         1 UNK         0.0600 
    219 H219       -2.2571  -19.4907  -56.3028 H         1 UNK         0.0600 
    220 H220       -2.9285  -20.2422  -53.4301 H         1 UNK         0.3000 
    221 H221       -4.5252  -17.9127  -52.4236 H         1 UNK         0.0600 
    222 H222       -1.6459  -18.8062  -51.9017 H         1 UNK         0.0600 
    223 H223       -2.1814  -17.3347  -52.7000 H         1 UNK         0.0600 
    224 H224       -2.4677  -17.5481  -50.9800 H         1 UNK         0.0600 
    225 H225       -3.7731  -21.2514  -51.9219 H         1 UNK         0.3000 
    226 H226       -3.8971  -21.7015  -49.2685 H         1 UNK         0.0600 
    227 H227       -4.7357  -23.9931  -49.8944 H         1 UNK         0.0600 
    228 H228       -5.0868  -23.4015  -51.5096 H         1 UNK         0.0600 
    229 H229       -3.4200  -23.4430  -50.9146 H         1 UNK         0.0600 
    230 H230       -6.7068  -20.8032  -51.1616 H         1 UNK         0.3000 
    231 H231       -8.7356  -21.6167  -49.2821 H         1 UNK         0.0600 
    232 H232       -8.7774  -19.5320  -51.5312 H         1 UNK         0.0600 
    233 H233      -10.1919  -20.1565  -50.6915 H         1 UNK         0.0600 
    234 H234       -9.2229  -21.2320  -51.6861 H         1 UNK         0.0600 
    235 H235       -6.5902  -18.8195  -49.4898 H         1 UNK         0.3000 
    236 H236       -8.1384  -17.2810  -47.4681 H         1 UNK         0.0600 
    237 H237       -6.5786  -15.4607  -48.0489 H         1 UNK         0.0600 
    238 H238       -5.6842  -16.5162  -49.1334 H         1 UNK         0.0600 
    239 H239       -7.3505  -16.0727  -49.5038 H         1 UNK         0.0600 
    240 H240       -5.0923  -19.0563  -47.9779 H         1 UNK         0.3000 
    241 H241       -3.8643  -18.3844  -45.5007 H         1 UNK         0.0600 
    242 H242       -3.4772  -19.7541  -43.5670 H         1 UNK         0.3800 
    243 H243       -4.7448  -20.8604  -43.0784 H         1 UNK         0.3800 
    244 H244       -3.4012  -20.8729  -47.2075 H         1 UNK         0.0800 
    245 H245       -2.3299  -20.2930  -45.9550 H         1 UNK         0.0800 
    246 H246       -1.5734  -21.1334  -48.6603 H         1 UNK         0.0800 
    247 H247       -1.5689  -19.9948  -49.9656 H         1 UNK         0.0800 
@<TRIPOS>BOND
     1    1    2 1    
     2    1  127 1    
     3    1  128 1    
     4    1  129 1    
     5    2    3 2    
     6    2    4 am   BACKBONE|DICT|INTERRES
     7    4    5 1    
     8    4  130 1    
     9    5    6 1    
    10    5   65 1    
    11    5  131 1    
    12    6    7 1    
    13    6  132 1    
    14    6  133 1    
    15    7    8 1    
    16    8    9 1    
    17    8  134 1    
    18    8  135 1    
    19    9   10 ar   
    20    9   14 ar   
    21   10   11 ar   
    22   10  136 1    
    23   11   12 ar   
    24   11  126 1    
    25   12   13 ar   
    26   12  137 1    
    27   13   14 ar   
    28   13   15 1    
    29   14  138 1    
    30   15   16 1    
    31   15  139 1    
    32   15  140 1    
    33   16   17 1    
    34   17   18 1    
    35   17  141 1    
    36   17  142 1    
    37   18   19 1    
    38   18   67 1    
    39   18  143 1    
    40   19   20 am   BACKBONE|DICT|INTERRES
    41   19  144 1    
    42   20   21 2    
    43   20   22 1    
    44   22   23 1    
    45   22   24 1    
    46   22  145 1    
    47   23  146 1    
    48   23  147 1    
    49   23  148 1    
    50   24   25 am   BACKBONE|DICT|INTERRES
    51   24  149 1    
    52   25   26 2    
    53   25   27 1    
    54   27   28 1    
    55   27   29 1    
    56   27  150 1    
    57   28  151 1    
    58   28  152 1    
    59   28  153 1    
    60   29   30 am   BACKBONE|DICT|INTERRES
    61   29  154 1    
    62   30   31 2    
    63   30   32 1    
    64   32   33 1    
    65   32   34 1    
    66   32  155 1    
    67   33  156 1    
    68   33  157 1    
    69   33  158 1    
    70   34   35 am   BACKBONE|DICT|INTERRES
    71   34  159 1    
    72   35   36 2    
    73   35   37 1    
    74   37   38 1    
    75   37   39 1    
    76   37  160 1    
    77   38  161 1    
    78   38  162 1    
    79   38  163 1    
    80   39   40 am   BACKBONE|DICT|INTERRES
    81   39  164 1    
    82   40   41 2    
    83   40   42 1    
    84   42   43 1    
    85   42   44 1    
    86   42  165 1    
    87   43  166 1    
    88   43  167 1    
    89   43  168 1    
    90   44   45 am   BACKBONE|DICT|INTERRES
    91   44  169 1    
    92   45   46 2    
    93   45   47 1    
    94   47   48 1    
    95   47   49 1    
    96   47  170 1    
    97   48  171 1    
    98   48  172 1    
    99   48  173 1    
   100   49   50 am   BACKBONE|DICT|INTERRES
   101   49  174 1    
   102   50   51 2    
   103   50   52 1    
   104   52   53 1    
   105   52   54 1    
   106   52  175 1    
   107   53  176 1    
   108   53  177 1    
   109   53  178 1    
   110   54   55 am   BACKBONE|DICT|INTERRES
   111   54  179 1    
   112   55   56 2    
   113   55   57 1    
   114   57   58 1    
   115   57   59 1    
   116   57  180 1    
   117   58  181 1    
   118   58  182 1    
   119   58  183 1    
   120   59   60 am   BACKBONE|DICT|INTERRES
   121   59  184 1    
   122   60   61 2    
   123   60   62 1    
   124   62   63 1    
   125   62   64 1    
   126   62  185 1    
   127   63  186 1    
   128   63  187 1    
   129   63  188 1    
   130   64   65 am   BACKBONE|DICT|INTERRES
   131   64  189 1    
   132   65   66 2    
   133   67   68 2    
   134   67   69 am   BACKBONE|DICT|INTERRES
   135   69   70 1    
   136   69  190 1    
   137   70   71 1    
   138   70   72 1    
   139   70  191 1    
   140   71  192 1    
   141   71  193 1    
   142   71  194 1    
   143   72   73 2    
   144   72   74 am   BACKBONE|DICT|INTERRES
   145   74   75 1    
   146   74  195 1    
   147   75   76 1    
   148   75   77 1    
   149   75  196 1    
   150   76  197 1    
   151   76  198 1    
   152   76  199 1    
   153   77   78 2    
   154   77   79 am   BACKBONE|DICT|INTERRES
   155   79   80 1    
   156   79  200 1    
   157   80   81 1    
   158   80   82 1    
   159   80  201 1    
   160   81  202 1    
   161   81  203 1    
   162   81  204 1    
   163   82   83 2    
   164   82   84 am   BACKBONE|DICT|INTERRES
   165   84   85 1    
   166   84  205 1    
   167   85   86 1    
   168   85   87 1    
   169   85  206 1    
   170   86  207 1    
   171   86  208 1    
   172   86  209 1    
   173   87   88 2    
   174   87   89 am   BACKBONE|DICT|INTERRES
   175   89   90 1    
   176   89  210 1    
   177   90   91 1    
   178   90   92 1    
   179   90  211 1    
   180   91  212 1    
   181   91  213 1    
   182   91  214 1    
   183   92   93 2    
   184   92   94 am   BACKBONE|DICT|INTERRES
   185   94   95 1    
   186   94  215 1    
   187   95   96 1    
   188   95   97 1    
   189   95  216 1    
   190   96  217 1    
   191   96  218 1    
   192   96  219 1    
   193   97   98 2    
   194   97   99 am   BACKBONE|DICT|INTERRES
   195   99  100 1    
   196   99  220 1    
   197  100  101 1    
   198  100  102 1    
   199  100  221 1    
   200  101  222 1    
   201  101  223 1    
   202  101  224 1    
   203  102  103 2    
   204  102  104 am   BACKBONE|DICT|INTERRES
   205  104  105 1    
   206  104  225 1    
   207  105  106 1    
   208  105  107 1    
   209  105  226 1    
   210  106  227 1    
   211  106  228 1    
   212  106  229 1    
   213  107  108 2    
   214  107  109 am   BACKBONE|DICT|INTERRES
   215  109  110 1    
   216  109  230 1    
   217  110  111 1    
   218  110  112 1    
   219  110  231 1    
   220  111  232 1    
   221  111  233 1    
   222  111  234 1    
   223  112  113 2    
   224  112  114 am   BACKBONE|DICT|INTERRES
   225  114  115 1    
   226  114  235 1    
   227  115  116 1    
   228  115  117 1    
   229  115  236 1    
   230  116  237 1    
   231  116  238 1    
   232  116  239 1    
   233  117  118 2    
   234  117  119 am   BACKBONE|DICT|INTERRES
   235  119  120 1    
   236  119  240 1    
   237  120  121 1    
   238  120  124 1    
   239  120  241 1    
   240  121  122 am   BACKBONE|DICT|INTERRES
   241  121  123 2    
   242  122  242 1    
   243  122  243 1    
   244  124  125 1    
   245  124  244 1    
   246  124  245 1    
   247  125  126 1    
   248  126  246 1    
   249  126  247 1    
@<TRIPOS>SUBSTRUCTURE
     1 UNK         1 GROUP             0       ****    0 ROOT    
