@<TRIPOS>MOLECULE
3R540
247   249    1
SMALL
USER_CHARGES


@<TRIPOS>ATOM
      1 CA          2.7285  -11.4655  -45.7056 C.3       0 UNK        -0.1800 
      2 C           2.0564  -12.4133  -46.6889 C.2       0 UNK         0.5000 
      3 O           1.4031  -11.9577  -47.6267 O.2       0 UNK        -0.5000 
      4 N           2.2145  -13.7286  -46.4785 N.am      1 UNK        -0.5000 
      5 CA          1.6828  -14.8136  -47.3210 C.3       1 UNK         0.1400 
      6 C6          2.2498  -14.7916  -48.7789 C.3       23 UNK        -0.0398 
      7 S7          3.1157  -16.3244  -49.2670 S.3       23 UNK        -0.2404 
      8 C8          1.7130  -17.4721  -49.3885 C.3       23 UNK        -0.0205 
      9 C9          2.0933  -18.8443  -49.9270 C.ar      23 UNK        -0.0193 
     10 C10         1.4602  -19.3466  -51.0674 C.ar      23 UNK        -0.1150 
     11 C11         1.7631  -20.6240  -51.5530 C.ar      23 UNK        -0.0193 
     12 C12         2.7027  -21.4041  -50.8735 C.ar      23 UNK        -0.1150 
     13 C13         3.3317  -20.9223  -49.7222 C.ar      23 UNK        -0.0193 
     14 C14         3.0267  -19.6395  -49.2567 C.ar      23 UNK        -0.1150 
     15 C15         4.3377  -21.7937  -48.9845 C.3       23 UNK        -0.0205 
     16 S16         3.5330  -23.1252  -48.0344 S.3       23 UNK        -0.2404 
     17 C17         2.7161  -22.1833  -46.7027 C.3       23 UNK        -0.0398 
     18 CA          1.2597  -22.6237  -46.4225 C.3       11 UNK         0.1400 
     19 N           0.7790  -22.0860  -45.1465 N.am      11 UNK        -0.5000 
     20 C          -0.3658  -22.4341  -44.5431 C.2       10 UNK         0.5000 
     21 O          -1.1254  -23.3017  -44.9693 O.2       10 UNK        -0.5000 
     22 CA         -0.7537  -21.6506  -43.2759 C.3       10 UNK         0.1400 
     23 CB         -0.0543  -22.2300  -42.0378 C.3       10 UNK        -0.1800 
     24 N          -0.4586  -20.2219  -43.3911 N.am      10 UNK        -0.5000 
     25 C          -1.0548  -19.3948  -44.2621 C.2       9 UNK         0.5000 
     26 O          -1.9762  -19.7388  -45.0029 O.2       9 UNK        -0.5000 
     27 CA         -0.4891  -17.9633  -44.3605 C.3       9 UNK         0.1400 
     28 CB         -1.0351  -17.0780  -43.2317 C.3       9 UNK        -0.1800 
     29 N           0.9747  -17.9364  -44.3327 N.am      9 UNK        -0.5000 
     30 C           1.7632  -18.5093  -45.2523 C.2       8 UNK         0.5000 
     31 O           1.3352  -19.0565  -46.2657 O.2       8 UNK        -0.5000 
     32 CA          3.2741  -18.5324  -44.9624 C.3       8 UNK         0.1400 
     33 CB          3.9557  -17.2313  -45.4046 C.3       8 UNK        -0.1800 
     34 N           3.5457  -18.7707  -43.5465 N.am      8 UNK        -0.5000 
     35 C           3.3962  -19.9580  -42.9445 C.2       7 UNK         0.5000 
     36 O           3.0387  -20.9784  -43.5321 O.2       7 UNK        -0.5000 
     37 CA          3.6519  -20.0010  -41.4267 C.3       7 UNK         0.1400 
     38 CB          5.1508  -20.1635  -41.1346 C.3       7 UNK        -0.1800 
     39 N           3.1485  -18.8109  -40.7382 N.am      7 UNK        -0.5000 
     40 C           1.8497  -18.5002  -40.6268 C.2       6 UNK         0.5000 
     41 O           0.9410  -19.2044  -41.0645 O.2       6 UNK        -0.5000 
     42 CA          1.5089  -17.1556  -39.9583 C.3       6 UNK         0.1400 
     43 CB          1.4109  -17.3202  -38.4348 C.3       6 UNK        -0.1800 
     44 N           2.4485  -16.0741  -40.2688 N.am      6 UNK        -0.5000 
     45 C           2.7403  -15.6292  -41.4978 C.2       5 UNK         0.5000 
     46 O           2.2896  -16.1277  -42.5308 O.2       5 UNK        -0.5000 
     47 CA          3.6456  -14.3889  -41.5730 C.3       5 UNK         0.1400 
     48 CB          4.3597  -14.2677  -42.9299 C.3       5 UNK        -0.1800 
     49 N           2.8293  -13.1993  -41.3635 N.am      5 UNK        -0.5000 
     50 C           2.4496  -12.7113  -40.1787 C.2       4 UNK         0.5000 
     51 O           2.8428  -13.1584  -39.1002 O.2       4 UNK        -0.5000 
     52 CA          1.4301  -11.5561  -40.2006 C.3       4 UNK         0.1400 
     53 CB          2.0613  -10.2515  -40.7261 C.3       4 UNK        -0.1800 
     54 N           0.1823  -11.8826  -40.9085 N.am      4 UNK        -0.5000 
     55 C          -0.0035  -12.1183  -42.2147 C.2       3 UNK         0.5000 
     56 O           0.8945  -12.0834  -43.0624 O.2       3 UNK        -0.5000 
     57 CA         -1.4375  -12.4576  -42.6458 C.3       3 UNK         0.1400 
     58 CB         -2.3466  -11.2169  -42.6020 C.3       3 UNK        -0.1800 
     59 N          -1.3924  -12.9798  -44.0057 N.am      3 UNK        -0.5000 
     60 C          -2.2269  -13.8837  -44.5299 C.2       2 UNK         0.5000 
     61 O          -3.1930  -14.3534  -43.9291 O.2       2 UNK        -0.5000 
     62 CA         -1.9171  -14.3602  -45.9566 C.3       2 UNK         0.1400 
     63 CB         -2.6293  -13.4527  -46.9797 C.3       2 UNK        -0.1800 
     64 N          -0.4711  -14.3909  -46.1935 N.am      2 UNK        -0.5000 
     65 C           0.1365  -14.9300  -47.2581 C.2       1 UNK         0.5000 
     66 O          -0.4746  -15.5120  -48.1540 O.2       1 UNK        -0.5000 
     67 C           0.2910  -22.3020  -47.5845 C.2       11 UNK         0.5000 
     68 O          -0.0446  -23.2048  -48.3508 O.2       11 UNK        -0.5000 
     69 N          -0.2055  -21.0562  -47.6482 N.am      12 UNK        -0.5000 
     70 CA         -1.2441  -20.6228  -48.5881 C.3       12 UNK         0.1400 
     71 CB         -1.5161  -19.1191  -48.4323 C.3       12 UNK        -0.1800 
     72 C          -2.5577  -21.4071  -48.4373 C.2       12 UNK         0.5000 
     73 O          -3.1210  -21.8396  -49.4446 O.2       12 UNK        -0.5000 
     74 N          -3.0043  -21.5889  -47.1863 N.am      13 UNK        -0.5000 
     75 CA         -4.2030  -22.3480  -46.8300 C.3       13 UNK         0.1400 
     76 CB         -4.5273  -22.1313  -45.3447 C.3       13 UNK        -0.1800 
     77 C          -4.0811  -23.8472  -47.1566 C.2       13 UNK         0.5000 
     78 O          -5.0212  -24.4248  -47.7035 O.2       13 UNK        -0.5000 
     79 N          -2.9155  -24.4423  -46.8634 N.am      14 UNK        -0.5000 
     80 CA         -2.5677  -25.8239  -47.2112 C.3       14 UNK         0.1400 
     81 CB         -1.2285  -26.1969  -46.5584 C.3       14 UNK        -0.1800 
     82 C          -2.5156  -26.0588  -48.7330 C.2       14 UNK         0.5000 
     83 O          -2.8903  -27.1348  -49.1990 O.2       14 UNK        -0.5000 
     84 N          -2.1108  -25.0236  -49.4786 N.am      15 UNK        -0.5000 
     85 CA         -2.1387  -24.9488  -50.9378 C.3       15 UNK         0.1400 
     86 CB         -1.0122  -24.0097  -51.3992 C.3       15 UNK        -0.1800 
     87 C          -3.5167  -24.5326  -51.5054 C.2       15 UNK         0.5000 
     88 O          -3.5864  -24.1348  -52.6662 O.2       15 UNK        -0.5000 
     89 N          -4.5836  -24.6338  -50.6977 N.am      16 UNK        -0.5000 
     90 CA         -6.0014  -24.4492  -51.0343 C.3       16 UNK         0.1400 
     91 CB         -6.4365  -25.4033  -52.1667 C.3       16 UNK        -0.1800 
     92 C          -6.4346  -22.9925  -51.2978 C.2       16 UNK         0.5000 
     93 O          -7.5455  -22.7770  -51.7873 O.2       16 UNK        -0.5000 
     94 N          -5.5877  -22.0192  -50.9349 N.am      17 UNK        -0.5000 
     95 CA         -5.8181  -20.5736  -51.0020 C.3       17 UNK         0.1400 
     96 CB         -6.7223  -20.1430  -49.8255 C.3       17 UNK        -0.1800 
     97 C          -6.3151  -20.1064  -52.3897 C.2       17 UNK         0.5000 
     98 O          -5.6499  -20.3593  -53.3979 O.2       17 UNK        -0.5000 
     99 N          -7.4816  -19.4501  -52.4224 N.am      18 UNK        -0.5000 
    100 CA        -8.1192  -18.8881  -53.6118 C.3       18 UNK         0.1400 
    101 CB        -9.3120  -18.0266  -53.1696 C.3       18 UNK        -0.1800 
    102 C         -8.5662  -19.9265  -54.6596 C.2       18 UNK         0.5000 
    103 O         -8.7533  -19.5486  -55.8162 O.2       18 UNK        -0.5000 
    104 N         -8.7189  -21.2018  -54.2685 N.am      19 UNK        -0.5000 
    105 CA        -9.0985  -22.2873  -55.1787 C.3       19 UNK         0.1400 
    106 CB        -9.5346  -23.5198  -54.3732 C.3       19 UNK        -0.1800 
    107 C         -7.9705  -22.6504  -56.1623 C.2       19 UNK         0.5000 
    108 O         -8.2529  -22.9671  -57.3185 O.2       19 UNK        -0.5000 
    109 N         -6.7185  -22.5699  -55.6929 N.am      20 UNK        -0.5000 
    110 CA        -5.5141  -22.7531  -56.5066 C.3       20 UNK         0.1400 
    111 CB        -4.4674  -23.4931  -55.6651 C.3       20 UNK        -0.1800 
    112 C         -4.9283  -21.4126  -56.9882 C.2       20 UNK         0.5000 
    113 O         -4.0506  -21.4182  -57.8518 O.2       20 UNK        -0.5000 
    114 N         -5.3951  -20.3035  -56.3951 N.am      21 UNK        -0.5000 
    115 CA        -4.8691  -18.9404  -56.5027 C.3       21 UNK         0.1400 
    116 CB        -5.0006  -18.3941  -57.9399 C.3       21 UNK        -0.1800 
    117 C         -3.4414  -18.8344  -55.9257 C.2       21 UNK         0.5000 
    118 O         -2.5797  -18.1744  -56.5095 O.2       21 UNK        -0.5000 
    119 N         -3.2219  -19.4953  -54.7831 N.am      22 UNK        -0.5000 
    120 CA        -1.9611  -19.5048  -54.0383 C.3       22 UNK         0.1400 
    121 C         -2.2382  -19.8261  -52.5502 C.2       22 UNK         0.5000 
    122 N         -2.6705  -21.0373  -52.2209 N.am      22 UNK        -0.7600 
    123 O         -2.0706  -18.9703  -51.6886 O.2       22 UNK        -0.5000 
    124 C124       -0.8851  -20.4276  -54.6771 C.3       23 UNK        -0.0398 
    125 S125        0.8074  -20.0148  -54.1266 S.3       23 UNK        -0.2404 
    126 C126        1.0347  -21.2046  -52.7607 C.3       23 UNK        -0.0205 
    127 H127        1.9956  -10.7729  -45.2916 H         1 UNK         0.0600 
    128 H128        3.4993  -10.8846  -46.2117 H         1 UNK         0.0600 
    129 H129        3.1926  -11.9992  -44.8765 H         1 UNK         0.0600 
    130 H130        2.7696  -14.0293  -45.6906 H         1 UNK         0.3000 
    131 H131        2.0281  -15.7244  -46.8356 H         1 UNK         0.0600 
    132 H132        2.9838  -13.9927  -48.8901 H         1 UNK         0.0800 
    133 H133        1.4846  -14.5607  -49.5221 H         1 UNK         0.0800 
    134 H134        1.2876  -17.5974  -48.3946 H         1 UNK         0.0800 
    135 H135        0.9364  -17.0200  -50.0077 H         1 UNK         0.0800 
    136 H136        0.7116  -18.7486  -51.5674 H         1 UNK         0.1150 
    137 H137        2.9303  -22.4009  -51.2245 H         1 UNK         0.1150 
    138 H138        3.5022  -19.2600  -48.3634 H         1 UNK         0.1150 
    139 H139        5.0204  -22.2418  -49.7079 H         1 UNK         0.0800 
    140 H140        4.9559  -21.1925  -48.3159 H         1 UNK         0.0800 
    141 H141        2.7567  -21.1176  -46.9165 H         1 UNK         0.0800 
    142 H142        3.3211  -22.3286  -45.8073 H         1 UNK         0.0800 
    143 H143        1.2664  -23.7098  -46.3091 H         1 UNK         0.0600 
    144 H144        1.3730  -21.4010  -44.6938 H         1 UNK         0.3000 
    145 H145       -1.8311  -21.7588  -43.1361 H         1 UNK         0.0600 
    146 H146       -0.3863  -21.7292  -41.1282 H         1 UNK         0.0600 
    147 H147       -0.2772  -23.2917  -41.9247 H         1 UNK         0.0600 
    148 H148        1.0290  -22.1264  -42.0992 H         1 UNK         0.0600 
    149 H149        0.2408  -19.8482  -42.7562 H         1 UNK         0.3000 
    150 H150       -0.8095  -17.5390  -45.3143 H         1 UNK         0.0600 
    151 H151       -2.1184  -16.9774  -43.3074 H         1 UNK         0.0600 
    152 H152       -0.6074  -16.0763  -43.2710 H         1 UNK         0.0600 
    153 H153       -0.8145  -17.4941  -42.2494 H         1 UNK         0.0600 
    154 H154        1.4122  -17.4564  -43.5505 H         1 UNK         0.3000 
    155 H155        3.7156  -19.3492  -45.5369 H         1 UNK         0.0600 
    156 H156        3.4961  -16.3563  -44.9465 H         1 UNK         0.0600 
    157 H157        3.8951  -17.1145  -46.4860 H         1 UNK         0.0600 
    158 H158        5.0139  -17.2302  -45.1428 H         1 UNK         0.0600 
    159 H159        3.7708  -17.9630  -42.9842 H         1 UNK         0.3000 
    160 H160        3.1296  -20.8726  -41.0264 H         1 UNK         0.0600 
    161 H161        5.7274  -19.3085  -41.4901 H         1 UNK         0.0600 
    162 H162        5.5487  -21.0540  -41.6232 H         1 UNK         0.0600 
    163 H163        5.3344  -20.2716  -40.0655 H         1 UNK         0.0600 
    164 H164        3.8323  -18.1774  -40.3511 H         1 UNK         0.3000 
    165 H165        0.5291  -16.8478  -40.3278 H         1 UNK         0.0600 
    166 H166        1.0694  -16.4001  -37.9599 H         1 UNK         0.0600 
    167 H167        0.6993  -18.1039  -38.1711 H         1 UNK         0.0600 
    168 H168        2.3727  -17.5880  -37.9957 H         1 UNK         0.0600 
    169 H169        2.8265  -15.5677  -39.4791 H         1 UNK         0.3000 
    170 H170        4.4067  -14.4617  -40.7932 H         1 UNK         0.0600 
    171 H171        4.9717  -15.1481  -43.1295 H         1 UNK         0.0600 
    172 H172        3.6506  -14.1641  -43.7509 H         1 UNK         0.0600 
    173 H173        5.0202  -13.4008  -42.9497 H         1 UNK         0.0600 
    174 H174        2.3746  -12.8069  -42.1841 H         1 UNK         0.3000 
    175 H175        1.1410  -11.3770  -39.1636 H         1 UNK         0.0600 
    176 H176        2.3987  -10.3408  -41.7591 H         1 UNK         0.0600 
    177 H177        1.3527   -9.4248  -40.6767 H         1 UNK         0.0600 
    178 H178        2.9282   -9.9723  -40.1261 H         1 UNK         0.0600 
    179 H179       -0.6250  -11.9619  -40.3057 H         1 UNK         0.3000 
    180 H180       -1.8227  -13.2235  -41.9692 H         1 UNK         0.0600 
    181 H181       -1.9771  -10.4263  -43.2562 H         1 UNK         0.0600 
    182 H182       -2.4095  -10.8074  -41.5933 H         1 UNK         0.0600 
    183 H183       -3.3620  -11.4613  -42.9145 H         1 UNK         0.0600 
    184 H184       -0.6143  -12.6246  -44.5442 H         1 UNK         0.3000 
    185 H185       -2.3028  -15.3772  -46.0544 H         1 UNK         0.0600 
    186 H186       -3.6935  -13.3697  -46.7555 H         1 UNK         0.0600 
    187 H187       -2.2127  -12.4448  -46.9779 H         1 UNK         0.0600 
    188 H188       -2.5483  -13.8456  -47.9929 H         1 UNK         0.0600 
    189 H189        0.1095  -13.9910  -45.4713 H         1 UNK         0.3000 
    190 H190        0.1630  -20.3514  -47.0151 H         1 UNK         0.3000 
    191 H191       -0.8718  -20.7978  -49.5996 H         1 UNK         0.0600 
    192 H192       -0.6956  -18.5322  -48.8311 H         1 UNK         0.0600 
    193 H193       -2.4078  -18.8185  -48.9841 H         1 UNK         0.0600 
    194 H194       -1.6633  -18.8283  -47.3940 H         1 UNK         0.0600 
    195 H195       -2.4933  -21.1575  -46.4231 H         1 UNK         0.3000 
    196 H196       -5.0326  -21.9508  -47.4178 H         1 UNK         0.0600 
    197 H197       -5.4417  -22.6555  -45.0645 H         1 UNK         0.0600 
    198 H198       -4.6767  -21.0741  -45.1246 H         1 UNK         0.0600 
    199 H199       -3.7285  -22.4964  -44.6992 H         1 UNK         0.0600 
    200 H200       -2.2090  -23.9120  -46.3581 H         1 UNK         0.3000 
    201 H201       -3.3415  -26.4760  -46.8012 H         1 UNK         0.0600 
    202 H202       -1.2790  -26.1027  -45.4736 H         1 UNK         0.0600 
    203 H203       -0.4179  -25.5593  -46.9122 H         1 UNK         0.0600 
    204 H204       -0.9575  -27.2291  -46.7835 H         1 UNK         0.0600 
    205 H205       -1.7649  -24.1974  -49.0019 H         1 UNK         0.3000 
    206 H206       -1.9262  -25.9396  -51.3435 H         1 UNK         0.0600 
    207 H207       -0.0383  -24.3771  -51.0754 H         1 UNK         0.0600 
    208 H208       -0.9792  -23.9225  -52.4857 H         1 UNK         0.0600 
    209 H209       -1.1379  -23.0098  -50.9860 H         1 UNK         0.0600 
    210 H210       -4.4156  -24.8899  -49.7326 H         1 UNK         0.3000 
    211 H211       -6.5449  -24.7506  -50.1380 H         1 UNK         0.0600 
    212 H212       -6.0357  -25.0953  -53.1326 H         1 UNK         0.0600 
    213 H213       -7.5226  -25.4294  -52.2589 H         1 UNK         0.0600 
    214 H214       -6.1063  -26.4240  -51.9740 H         1 UNK         0.0600 
    215 H215       -4.6985  -22.2919  -50.5293 H         1 UNK         0.3000 
    216 H216       -4.8512  -20.0932  -50.8537 H         1 UNK         0.0600 
    217 H217       -6.8486  -19.0600  -49.7944 H         1 UNK         0.0600 
    218 H218       -6.2795  -20.4339  -48.8732 H         1 UNK         0.0600 
    219 H219       -7.7115  -20.5995  -49.8794 H         1 UNK         0.0600 
    220 H220       -7.9731  -19.3184  -51.5505 H         1 UNK         0.3000 
    221 H221       -7.3910  -18.2355  -54.0976 H         1 UNK         0.0600 
    222 H222      -10.0662  -18.6206  -52.6518 H         1 UNK         0.0600 
    223 H223       -8.9954  -17.2264  -52.5003 H         1 UNK         0.0600 
    224 H224       -9.7961  -17.5568  -54.0270 H         1 UNK         0.0600 
    225 H225       -8.5127  -21.4586  -53.3097 H         1 UNK         0.3000 
    226 H226       -9.9568  -21.9518  -55.7650 H         1 UNK         0.0600 
    227 H227      -10.3172  -23.2704  -53.6566 H         1 UNK         0.0600 
    228 H228       -9.9302  -24.2930  -55.0328 H         1 UNK         0.0600 
    229 H229       -8.7018  -23.9581  -53.8244 H         1 UNK         0.0600 
    230 H230       -6.5778  -22.3040  -54.7271 H         1 UNK         0.3000 
    231 H231       -5.7380  -23.3595  -57.3866 H         1 UNK         0.0600 
    232 H232       -4.8574  -24.4340  -55.2770 H         1 UNK         0.0600 
    233 H233       -4.1462  -22.8839  -54.8201 H         1 UNK         0.0600 
    234 H234       -3.5805  -23.7264  -56.2553 H         1 UNK         0.0600 
    235 H235       -6.0870  -20.4360  -55.6714 H         1 UNK         0.3000 
    236 H236       -5.4993  -18.3226  -55.8618 H         1 UNK         0.0600 
    237 H237       -4.7462  -17.3343  -57.9768 H         1 UNK         0.0600 
    238 H238       -4.3400  -18.9104  -58.6365 H         1 UNK         0.0600 
    239 H239       -6.0220  -18.4953  -58.3068 H         1 UNK         0.0600 
    240 H240       -4.0033  -19.9593  -54.3252 H         1 UNK         0.3000 
    241 H241       -1.5781  -18.4821  -54.0632 H         1 UNK         0.0600 
    242 H242       -2.8333  -21.2426  -51.2422 H         1 UNK         0.3800 
    243 H243       -2.8597  -21.7500  -52.9088 H         1 UNK         0.3800 
    244 H244       -1.1012  -21.4828  -54.5033 H         1 UNK         0.0800 
    245 H245       -0.8928  -20.3063  -55.7608 H         1 UNK         0.0800 
    246 H246        1.5638  -22.0759  -53.1497 H         1 UNK         0.0800 
    247 H247        0.0692  -21.5647  -52.4131 H         1 UNK         0.0800 
@<TRIPOS>BOND
     1    1    2 1    
     2    1  127 1    
     3    1  128 1    
     4    1  129 1    
     5    2    3 2    
     6    2    4 am   BACKBONE|DICT|INTERRES
     7    4    5 1    
     8    4  130 1    
     9    5    6 1    
    10    5   65 1    
    11    5  131 1    
    12    6    7 1    
    13    6  132 1    
    14    6  133 1    
    15    7    8 1    
    16    8    9 1    
    17    8  134 1    
    18    8  135 1    
    19    9   10 ar   
    20    9   14 ar   
    21   10   11 ar   
    22   10  136 1    
    23   11   12 ar   
    24   11  126 1    
    25   12   13 ar   
    26   12  137 1    
    27   13   14 ar   
    28   13   15 1    
    29   14  138 1    
    30   15   16 1    
    31   15  139 1    
    32   15  140 1    
    33   16   17 1    
    34   17   18 1    
    35   17  141 1    
    36   17  142 1    
    37   18   19 1    
    38   18   67 1    
    39   18  143 1    
    40   19   20 am   BACKBONE|DICT|INTERRES
    41   19  144 1    
    42   20   21 2    
    43   20   22 1    
    44   22   23 1    
    45   22   24 1    
    46   22  145 1    
    47   23  146 1    
    48   23  147 1    
    49   23  148 1    
    50   24   25 am   BACKBONE|DICT|INTERRES
    51   24  149 1    
    52   25   26 2    
    53   25   27 1    
    54   27   28 1    
    55   27   29 1    
    56   27  150 1    
    57   28  151 1    
    58   28  152 1    
    59   28  153 1    
    60   29   30 am   BACKBONE|DICT|INTERRES
    61   29  154 1    
    62   30   31 2    
    63   30   32 1    
    64   32   33 1    
    65   32   34 1    
    66   32  155 1    
    67   33  156 1    
    68   33  157 1    
    69   33  158 1    
    70   34   35 am   BACKBONE|DICT|INTERRES
    71   34  159 1    
    72   35   36 2    
    73   35   37 1    
    74   37   38 1    
    75   37   39 1    
    76   37  160 1    
    77   38  161 1    
    78   38  162 1    
    79   38  163 1    
    80   39   40 am   BACKBONE|DICT|INTERRES
    81   39  164 1    
    82   40   41 2    
    83   40   42 1    
    84   42   43 1    
    85   42   44 1    
    86   42  165 1    
    87   43  166 1    
    88   43  167 1    
    89   43  168 1    
    90   44   45 am   BACKBONE|DICT|INTERRES
    91   44  169 1    
    92   45   46 2    
    93   45   47 1    
    94   47   48 1    
    95   47   49 1    
    96   47  170 1    
    97   48  171 1    
    98   48  172 1    
    99   48  173 1    
   100   49   50 am   BACKBONE|DICT|INTERRES
   101   49  174 1    
   102   50   51 2    
   103   50   52 1    
   104   52   53 1    
   105   52   54 1    
   106   52  175 1    
   107   53  176 1    
   108   53  177 1    
   109   53  178 1    
   110   54   55 am   BACKBONE|DICT|INTERRES
   111   54  179 1    
   112   55   56 2    
   113   55   57 1    
   114   57   58 1    
   115   57   59 1    
   116   57  180 1    
   117   58  181 1    
   118   58  182 1    
   119   58  183 1    
   120   59   60 am   BACKBONE|DICT|INTERRES
   121   59  184 1    
   122   60   61 2    
   123   60   62 1    
   124   62   63 1    
   125   62   64 1    
   126   62  185 1    
   127   63  186 1    
   128   63  187 1    
   129   63  188 1    
   130   64   65 am   BACKBONE|DICT|INTERRES
   131   64  189 1    
   132   65   66 2    
   133   67   68 2    
   134   67   69 am   BACKBONE|DICT|INTERRES
   135   69   70 1    
   136   69  190 1    
   137   70   71 1    
   138   70   72 1    
   139   70  191 1    
   140   71  192 1    
   141   71  193 1    
   142   71  194 1    
   143   72   73 2    
   144   72   74 am   BACKBONE|DICT|INTERRES
   145   74   75 1    
   146   74  195 1    
   147   75   76 1    
   148   75   77 1    
   149   75  196 1    
   150   76  197 1    
   151   76  198 1    
   152   76  199 1    
   153   77   78 2    
   154   77   79 am   BACKBONE|DICT|INTERRES
   155   79   80 1    
   156   79  200 1    
   157   80   81 1    
   158   80   82 1    
   159   80  201 1    
   160   81  202 1    
   161   81  203 1    
   162   81  204 1    
   163   82   83 2    
   164   82   84 am   BACKBONE|DICT|INTERRES
   165   84   85 1    
   166   84  205 1    
   167   85   86 1    
   168   85   87 1    
   169   85  206 1    
   170   86  207 1    
   171   86  208 1    
   172   86  209 1    
   173   87   88 2    
   174   87   89 am   BACKBONE|DICT|INTERRES
   175   89   90 1    
   176   89  210 1    
   177   90   91 1    
   178   90   92 1    
   179   90  211 1    
   180   91  212 1    
   181   91  213 1    
   182   91  214 1    
   183   92   93 2    
   184   92   94 am   BACKBONE|DICT|INTERRES
   185   94   95 1    
   186   94  215 1    
   187   95   96 1    
   188   95   97 1    
   189   95  216 1    
   190   96  217 1    
   191   96  218 1    
   192   96  219 1    
   193   97   98 2    
   194   97   99 am   BACKBONE|DICT|INTERRES
   195   99  100 1    
   196   99  220 1    
   197  100  101 1    
   198  100  102 1    
   199  100  221 1    
   200  101  222 1    
   201  101  223 1    
   202  101  224 1    
   203  102  103 2    
   204  102  104 am   BACKBONE|DICT|INTERRES
   205  104  105 1    
   206  104  225 1    
   207  105  106 1    
   208  105  107 1    
   209  105  226 1    
   210  106  227 1    
   211  106  228 1    
   212  106  229 1    
   213  107  108 2    
   214  107  109 am   BACKBONE|DICT|INTERRES
   215  109  110 1    
   216  109  230 1    
   217  110  111 1    
   218  110  112 1    
   219  110  231 1    
   220  111  232 1    
   221  111  233 1    
   222  111  234 1    
   223  112  113 2    
   224  112  114 am   BACKBONE|DICT|INTERRES
   225  114  115 1    
   226  114  235 1    
   227  115  116 1    
   228  115  117 1    
   229  115  236 1    
   230  116  237 1    
   231  116  238 1    
   232  116  239 1    
   233  117  118 2    
   234  117  119 am   BACKBONE|DICT|INTERRES
   235  119  120 1    
   236  119  240 1    
   237  120  121 1    
   238  120  124 1    
   239  120  241 1    
   240  121  122 am   BACKBONE|DICT|INTERRES
   241  121  123 2    
   242  122  242 1    
   243  122  243 1    
   244  124  125 1    
   245  124  244 1    
   246  124  245 1    
   247  125  126 1    
   248  126  246 1    
   249  126  247 1    
@<TRIPOS>SUBSTRUCTURE
     1 UNK         1 GROUP             0       ****    0 ROOT    
