@<TRIPOS>MOLECULE
3R540
247   249    1
SMALL
USER_CHARGES


@<TRIPOS>ATOM
      1 CA          2.8189  -10.4290  -48.6252 C.3       0 UNK        -0.1800 
      2 C           2.1039  -11.2709  -47.5795 C.2       0 UNK         0.5000 
      3 O           2.4010  -11.1508  -46.3917 O.2       0 UNK        -0.5000 
      4 N           1.1493  -12.1056  -48.0109 N.am      1 UNK        -0.5000 
      5 CA          0.3805  -13.0526  -47.1863 C.3       1 UNK         0.1400 
      6 C6         -0.5485  -13.9348  -48.0575 C.3       23 UNK        -0.0398 
      7 S7          0.3859  -14.9552  -49.2475 S.3       23 UNK        -0.2404 
      8 C8         -0.5469  -16.5156  -49.1922 C.3       23 UNK        -0.0205 
      9 C9          0.1055  -17.5711  -50.0694 C.ar      23 UNK        -0.0193 
     10 C10        -0.2448  -17.6844  -51.4188 C.ar      23 UNK        -0.1150 
     11 C11         0.3659  -18.6455  -52.2299 C.ar      23 UNK        -0.0193 
     12 C12         1.3206  -19.5044  -51.6794 C.ar      23 UNK        -0.1150 
     13 C13         1.6839  -19.3957  -50.3348 C.ar      23 UNK        -0.0193 
     14 C14         1.0732  -18.4266  -49.5339 C.ar      23 UNK        -0.1150 
     15 C15         2.7595  -20.3072  -49.7652 C.3       23 UNK        -0.0205 
     16 S16         2.0680  -21.8825  -49.1783 S.3       23 UNK        -0.2404 
     17 C17         1.4288  -21.3864  -47.5452 C.3       23 UNK        -0.0398 
     18 CA          0.8573  -22.5811  -46.7463 C.3       11 UNK         0.1400 
     19 N           0.9226  -22.3474  -45.3009 N.am      11 UNK        -0.5000 
     20 C           0.7166  -23.2770  -44.3573 C.2       10 UNK         0.5000 
     21 O           0.4223  -24.4478  -44.6016 O.2       10 UNK        -0.5000 
     22 CA          0.8365  -22.8098  -42.8949 C.3       10 UNK         0.1400 
     23 CB          2.3078  -22.6655  -42.4764 C.3       10 UNK        -0.1800 
     24 N           0.1344  -21.5465  -42.6714 N.am      10 UNK        -0.5000 
     25 C          -1.2001  -21.4308  -42.6345 C.2       9 UNK         0.5000 
     26 O          -1.9684  -22.3913  -42.6879 O.2       9 UNK        -0.5000 
     27 CA         -1.7808  -20.0070  -42.5439 C.3       9 UNK         0.1400 
     28 CB         -1.9291  -19.5801  -41.0761 C.3       9 UNK        -0.1800 
     29 N          -0.9923  -19.0065  -43.2666 N.am      9 UNK        -0.5000 
     30 C          -0.7965  -19.0000  -44.5930 C.2       8 UNK         0.5000 
     31 O          -1.2720  -19.8352  -45.3592 O.2       8 UNK        -0.5000 
     32 CA          0.1381  -17.9161  -45.1559 C.3       8 UNK         0.1400 
     33 CB         -0.5819  -16.5648  -45.2510 C.3       8 UNK        -0.1800 
     34 N           1.3622  -17.7670  -44.3714 N.am      8 UNK        -0.5000 
     35 C           2.2643  -18.7379  -44.1714 C.2       7 UNK         0.5000 
     36 O           2.1804  -19.8622  -44.6629 O.2       7 UNK        -0.5000 
     37 CA          3.4232  -18.4171  -43.2159 C.3       7 UNK         0.1400 
     38 CB          4.5186  -17.6139  -43.9317 C.3       7 UNK        -0.1800 
     39 N           2.9557  -17.6867  -42.0386 N.am      7 UNK        -0.5000 
     40 C           2.2153  -18.2312  -41.0623 C.2       6 UNK         0.5000 
     41 O           1.8920  -19.4190  -41.0296 O.2       6 UNK        -0.5000 
     42 CA          1.7251  -17.2770  -39.9577 C.3       6 UNK         0.1400 
     43 CB          2.8117  -17.0770  -38.8908 C.3       6 UNK        -0.1800 
     44 N           1.3125  -15.9735  -40.4823 N.am      6 UNK        -0.5000 
     45 C           0.2422  -15.7826  -41.2662 C.2       5 UNK         0.5000 
     46 O          -0.5204  -16.6846  -41.6093 O.2       5 UNK        -0.5000 
     47 CA          0.0051  -14.3545  -41.7876 C.3       5 UNK         0.1400 
     48 CB         -0.8108  -13.5333  -40.7789 C.3       5 UNK        -0.1800 
     49 N           1.2343  -13.6307  -42.1147 N.am      5 UNK        -0.5000 
     50 C           2.1312  -13.9987  -43.0385 C.2       4 UNK         0.5000 
     51 O           2.0755  -15.0660  -43.6517 O.2       4 UNK        -0.5000 
     52 CA          3.2654  -12.9938  -43.3243 C.3       4 UNK         0.1400 
     53 CB          4.1744  -13.4390  -44.4836 C.3       4 UNK        -0.1800 
     54 N           2.7307  -11.6695  -43.6376 N.am      4 UNK        -0.5000 
     55 C           2.3493  -10.7449  -42.7475 C.2       3 UNK         0.5000 
     56 O           2.4039  -10.9101  -41.5283 O.2       3 UNK        -0.5000 
     57 CA          1.7626   -9.4466  -43.3202 C.3       3 UNK         0.1400 
     58 CB          2.8604   -8.5770  -43.9540 C.3       3 UNK        -0.1800 
     59 N           0.7409   -9.7493  -44.3205 N.am      3 UNK        -0.5000 
     60 C          -0.5641   -9.8965  -44.0528 C.2       2 UNK         0.5000 
     61 O          -1.0563   -9.7335  -42.9358 O.2       2 UNK        -0.5000 
     62 CA         -1.4798  -10.2900  -45.2292 C.3       2 UNK         0.1400 
     63 CB         -2.0553   -9.0362  -45.9052 C.3       2 UNK        -0.1800 
     64 N          -0.7984  -11.1044  -46.2364 N.am      2 UNK        -0.5000 
     65 C          -0.4329  -12.3815  -46.0565 C.2       1 UNK         0.5000 
     66 O          -0.7035  -13.0266  -45.0445 O.2       1 UNK        -0.5000 
     67 C          -0.5603  -22.9486  -47.2304 C.2       11 UNK         0.5000 
     68 O          -0.6898  -23.7568  -48.1491 O.2       11 UNK        -0.5000 
     69 N          -1.5946  -22.3857  -46.5879 N.am      12 UNK        -0.5000 
     70 CA         -3.0204  -22.5680  -46.8796 C.3       12 UNK         0.1400 
     71 CB         -3.8472  -21.8262  -45.8182 C.3       12 UNK        -0.1800 
     72 C          -3.4972  -24.0285  -46.9883 C.2       12 UNK         0.5000 
     73 O          -4.4444  -24.2888  -47.7305 O.2       12 UNK        -0.5000 
     74 N          -2.8288  -24.9500  -46.2826 N.am      13 UNK        -0.5000 
     75 CA         -3.0778  -26.3904  -46.3494 C.3       13 UNK         0.1400 
     76 CB         -2.3119  -27.0791  -45.2100 C.3       13 UNK        -0.1800 
     77 C          -2.7015  -27.0175  -47.7083 C.2       13 UNK         0.5000 
     78 O          -3.3280  -27.9981  -48.1109 O.2       13 UNK        -0.5000 
     79 N          -1.6979  -26.4458  -48.3869 N.am      14 UNK        -0.5000 
     80 CA         -1.2224  -26.8726  -49.7034 C.3       14 UNK         0.1400 
     81 CB          0.3144  -26.8589  -49.7080 C.3       14 UNK        -0.1800 
     82 C          -1.7684  -25.9608  -50.8147 C.2       14 UNK         0.5000 
     83 O          -2.1257  -26.4521  -51.8846 O.2       14 UNK        -0.5000 
     84 N          -1.8403  -24.6524  -50.5347 N.am      15 UNK        -0.5000 
     85 CA         -2.2984  -23.6057  -51.4504 C.3       15 UNK         0.1400 
     86 CB         -1.7034  -22.2670  -50.9872 C.3       15 UNK        -0.1800 
     87 C          -3.8344  -23.5181  -51.5815 C.2       15 UNK         0.5000 
     88 O          -4.3190  -22.7063  -52.3718 O.2       15 UNK        -0.5000 
     89 N          -4.5615  -24.3472  -50.8157 N.am      16 UNK        -0.5000 
     90 CA         -6.0186  -24.5149  -50.7859 C.3       16 UNK         0.1400 
     91 CB         -6.5317  -25.0828  -52.1251 C.3       16 UNK        -0.1800 
     92 C          -6.7404  -23.2282  -50.3452 C.2       16 UNK         0.5000 
     93 O          -7.5814  -22.7009  -51.0720 O.2       16 UNK        -0.5000 
     94 N          -6.3561  -22.7374  -49.1582 N.am      17 UNK        -0.5000 
     95 CA         -6.7707  -21.4667  -48.5448 C.3       17 UNK         0.1400 
     96 CB         -8.2930  -21.4253  -48.2940 C.3       17 UNK        -0.1800 
     97 C          -6.2456  -20.2254  -49.3005 C.2       17 UNK         0.5000 
     98 O          -6.8084  -19.1390  -49.1568 O.2       17 UNK        -0.5000 
     99 N          -5.1576  -20.4255  -50.0596 N.am      18 UNK        -0.5000 
    100 CA        -4.4820  -19.5057  -50.9775 C.3       18 UNK         0.1400 
    101 CB        -4.0614  -18.1946  -50.2839 C.3       18 UNK        -0.1800 
    102 C         -5.2811  -19.2497  -52.2696 C.2       18 UNK         0.5000 
    103 O         -6.5030  -19.4077  -52.3103 O.2       18 UNK        -0.5000 
    104 N         -4.5449  -18.8733  -53.3219 N.am      19 UNK        -0.5000 
    105 CA        -4.9633  -18.5885  -54.6990 C.3       19 UNK         0.1400 
    106 CB        -5.9867  -17.4386  -54.7583 C.3       19 UNK        -0.1800 
    107 C         -5.4546  -19.8176  -55.4887 C.2       19 UNK         0.5000 
    108 O         -5.0329  -19.9996  -56.6308 O.2       19 UNK        -0.5000 
    109 N         -6.3271  -20.6332  -54.8848 N.am      20 UNK        -0.5000 
    110 CA        -7.0345  -21.7431  -55.5268 C.3       20 UNK         0.1400 
    111 CB        -8.1179  -22.2710  -54.5778 C.3       20 UNK        -0.1800 
    112 C         -6.1314  -22.8885  -56.0221 C.2       20 UNK         0.5000 
    113 O         -6.4562  -23.4974  -57.0428 O.2       20 UNK        -0.5000 
    114 N         -5.0194  -23.1509  -55.3229 N.am      21 UNK        -0.5000 
    115 CA        -4.0107  -24.1382  -55.7191 C.3       21 UNK         0.1400 
    116 CB        -4.1386  -25.4045  -54.8537 C.3       21 UNK        -0.1800 
    117 C         -2.5931  -23.5369  -55.7108 C.2       21 UNK         0.5000 
    118 O         -1.6154  -24.2747  -55.5778 O.2       21 UNK        -0.5000 
    119 N         -2.4980  -22.2122  -55.8774 N.am      22 UNK        -0.5000 
    120 CA        -1.2381  -21.4974  -56.1294 C.3       22 UNK         0.1400 
    121 C         -0.7524  -21.6952  -57.5925 C.2       22 UNK         0.5000 
    122 N          0.5538  -21.7241  -57.8188 N.am      22 UNK        -0.7600 
    123 O         -1.5442  -21.7849  -58.5287 O.2       22 UNK        -0.5000 
    124 C124       -1.3682  -19.9916  -55.7952 C.3       23 UNK        -0.0398 
    125 S125       -1.4725  -19.7188  -53.9945 S.3       23 UNK        -0.2404 
    126 C126        0.0287  -18.7370  -53.7086 C.3       23 UNK        -0.0205 
    127 H127        2.6794   -9.3693  -48.4117 H         1 UNK         0.0600 
    128 H128        2.4458  -10.6271  -49.6302 H         1 UNK         0.0600 
    129 H129        3.8874  -10.6432  -48.6097 H         1 UNK         0.0600 
    130 H130        0.9628  -12.1586  -49.0025 H         1 UNK         0.3000 
    131 H131        1.1056  -13.7044  -46.6937 H         1 UNK         0.0600 
    132 H132       -1.1524  -14.5913  -47.4292 H         1 UNK         0.0800 
    133 H133       -1.2558  -13.3170  -48.6137 H         1 UNK         0.0800 
    134 H134       -0.6037  -16.8757  -48.1652 H         1 UNK         0.0800 
    135 H135       -1.5732  -16.3375  -49.5168 H         1 UNK         0.0800 
    136 H136       -0.9808  -17.0150  -51.8415 H         1 UNK         0.1150 
    137 H137        1.7951  -20.2499  -52.3022 H         1 UNK         0.1150 
    138 H138        1.3596  -18.3298  -48.4964 H         1 UNK         0.1150 
    139 H139        3.5030  -20.5187  -50.5352 H         1 UNK         0.0800 
    140 H140        3.2977  -19.8094  -48.9570 H         1 UNK         0.0800 
    141 H141        0.6908  -20.5897  -47.6530 H         1 UNK         0.0800 
    142 H142        2.2703  -20.9498  -47.0072 H         1 UNK         0.0800 
    143 H143        1.4912  -23.4501  -46.9369 H         1 UNK         0.0600 
    144 H144        1.2009  -21.4132  -45.0094 H         1 UNK         0.3000 
    145 H145        0.3825  -23.5743  -42.2608 H         1 UNK         0.0600 
    146 H146        2.3916  -22.3831  -41.4267 H         1 UNK         0.0600 
    147 H147        2.8431  -23.6070  -42.6045 H         1 UNK         0.0600 
    148 H148        2.8277  -21.9102  -43.0657 H         1 UNK         0.0600 
    149 H149        0.7013  -20.7128  -42.5846 H         1 UNK         0.3000 
    150 H150       -2.7756  -20.0309  -42.9935 H         1 UNK         0.0600 
    151 H151       -2.5150  -20.3075  -40.5128 H         1 UNK         0.0600 
    152 H152       -2.4393  -18.6202  -40.9950 H         1 UNK         0.0600 
    153 H153       -0.9595  -19.4864  -40.5856 H         1 UNK         0.0600 
    154 H154       -0.6054  -18.2493  -42.7094 H         1 UNK         0.3000 
    155 H155        0.4287  -18.2189  -46.1636 H         1 UNK         0.0600 
    156 H156       -0.9011  -16.2069  -44.2731 H         1 UNK         0.0600 
    157 H157       -1.4720  -16.6373  -45.8766 H         1 UNK         0.0600 
    158 H158        0.0687  -15.8063  -45.6848 H         1 UNK         0.0600 
    159 H159        1.5353  -16.8506  -43.9653 H         1 UNK         0.3000 
    160 H160        3.8582  -19.3622  -42.8835 H         1 UNK         0.0600 
    161 H161        4.1345  -16.6775  -44.3352 H         1 UNK         0.0600 
    162 H162        4.9314  -18.1819  -44.7663 H         1 UNK         0.0600 
    163 H163        5.3428  -17.3791  -43.2582 H         1 UNK         0.0600 
    164 H164        3.1256  -16.6920  -42.0230 H         1 UNK         0.3000 
    165 H165        0.8593  -17.7404  -39.4796 H         1 UNK         0.0600 
    166 H166        2.4458  -16.4657  -38.0656 H         1 UNK         0.0600 
    167 H167        3.1260  -18.0334  -38.4707 H         1 UNK         0.0600 
    168 H168        3.6977  -16.5916  -39.3017 H         1 UNK         0.0600 
    169 H169        1.8892  -15.1783  -40.2502 H         1 UNK         0.3000 
    170 H170       -0.5792  -14.4350  -42.7055 H         1 UNK         0.0600 
    171 H171       -1.7463  -14.0365  -40.5310 H         1 UNK         0.0600 
    172 H172       -0.2631  -13.3779  -39.8486 H         1 UNK         0.0600 
    173 H173       -1.0670  -12.5545  -41.1858 H         1 UNK         0.0600 
    174 H174        1.3714  -12.7339  -41.6633 H         1 UNK         0.3000 
    175 H175        3.8797  -12.9285  -42.4241 H         1 UNK         0.0600 
    176 H176        3.6094  -13.5851  -45.4054 H         1 UNK         0.0600 
    177 H177        4.9506  -12.6999  -44.6822 H         1 UNK         0.0600 
    178 H178        4.6763  -14.3774  -44.2490 H         1 UNK         0.0600 
    179 H179        2.6167  -11.4641  -44.6287 H         1 UNK         0.3000 
    180 H180        1.3219   -8.8804  -42.4967 H         1 UNK         0.0600 
    181 H181        3.3427   -9.0761  -44.7953 H         1 UNK         0.0600 
    182 H182        3.6361   -8.3373  -43.2258 H         1 UNK         0.0600 
    183 H183        2.4521   -7.6335  -44.3164 H         1 UNK         0.0600 
    184 H184        1.0761   -9.9735  -45.2492 H         1 UNK         0.3000 
    185 H185       -2.3112  -10.8698  -44.8223 H         1 UNK         0.0600 
    186 H186       -2.5926   -8.4168  -45.1856 H         1 UNK         0.0600 
    187 H187       -1.2709   -8.4204  -46.3471 H         1 UNK         0.0600 
    188 H188       -2.7598   -9.3011  -46.6938 H         1 UNK         0.0600 
    189 H189       -0.5416  -10.6469  -47.0990 H         1 UNK         0.3000 
    190 H190       -1.3829  -21.6713  -45.8963 H         1 UNK         0.3000 
    191 H191       -3.2136  -22.1011  -47.8466 H         1 UNK         0.0600 
    192 H192       -3.7356  -20.7463  -45.9139 H         1 UNK         0.0600 
    193 H193       -4.9098  -22.0515  -45.9024 H         1 UNK         0.0600 
    194 H194       -3.5445  -22.1074  -44.8101 H         1 UNK         0.0600 
    195 H195       -2.0558  -24.6472  -45.7057 H         1 UNK         0.3000 
    196 H196       -4.1458  -26.5567  -46.1938 H         1 UNK         0.0600 
    197 H197       -2.4888  -28.1555  -45.2134 H         1 UNK         0.0600 
    198 H198       -2.6278  -26.7012  -44.2375 H         1 UNK         0.0600 
    199 H199       -1.2358  -26.9217  -45.2970 H         1 UNK         0.0600 
    200 H200       -1.2708  -25.6058  -48.0099 H         1 UNK         0.3000 
    201 H201       -1.5507  -27.8926  -49.9140 H         1 UNK         0.0600 
    202 H202        0.7151  -27.5388  -48.9560 H         1 UNK         0.0600 
    203 H203        0.7113  -25.8633  -49.5037 H         1 UNK         0.0600 
    204 H204        0.7050  -27.1767  -50.6755 H         1 UNK         0.0600 
    205 H205       -1.4765  -24.3309  -49.6394 H         1 UNK         0.3000 
    206 H206       -1.9036  -23.8229  -52.4452 H         1 UNK         0.0600 
    207 H207       -0.6214  -22.3330  -50.8701 H         1 UNK         0.0600 
    208 H208       -1.8926  -21.4859  -51.7208 H         1 UNK         0.0600 
    209 H209       -2.1224  -21.9415  -50.0351 H         1 UNK         0.0600 
    210 H210       -4.0515  -24.9290  -50.1659 H         1 UNK         0.3000 
    211 H211       -6.2275  -25.2600  -50.0167 H         1 UNK         0.0600 
    212 H212       -6.3322  -24.4085  -52.9568 H         1 UNK         0.0600 
    213 H213       -7.6083  -25.2533  -52.0924 H         1 UNK         0.0600 
    214 H214       -6.0583  -26.0381  -52.3514 H         1 UNK         0.0600 
    215 H215       -5.6726  -23.2796  -48.6318 H         1 UNK         0.3000 
    216 H216       -6.2902  -21.4366  -47.5688 H         1 UNK         0.0600 
    217 H217       -8.5620  -20.5707  -47.6722 H         1 UNK         0.0600 
    218 H218       -8.6326  -22.3217  -47.7753 H         1 UNK         0.0600 
    219 H219       -8.8571  -21.3386  -49.2228 H         1 UNK         0.0600 
    220 H220       -4.8554  -21.3847  -50.1393 H         1 UNK         0.3000 
    221 H221       -3.5686  -20.0199  -51.2727 H         1 UNK         0.0600 
    222 H222       -4.9189  -17.5722  -50.0281 H         1 UNK         0.0600 
    223 H223       -3.5017  -18.3930  -49.3698 H         1 UNK         0.0600 
    224 H224       -3.4179  -17.6015  -50.9343 H         1 UNK         0.0600 
    225 H225       -3.5419  -18.8366  -53.1913 H         1 UNK         0.3000 
    226 H226       -4.0631  -18.2363  -55.2045 H         1 UNK         0.0600 
    227 H227       -5.6104  -16.5500  -54.2516 H         1 UNK         0.0600 
    228 H228       -6.1956  -17.1596  -55.7918 H         1 UNK         0.0600 
    229 H229       -6.9372  -17.7101  -54.2987 H         1 UNK         0.0600 
    230 H230       -6.5946  -20.4043  -53.9307 H         1 UNK         0.3000 
    231 H231       -7.5372  -21.3349  -56.4061 H         1 UNK         0.0600 
    232 H232       -7.6842  -22.6377  -53.6497 H         1 UNK         0.0600 
    233 H233       -8.6733  -23.0934  -55.0305 H         1 UNK         0.0600 
    234 H234       -8.8365  -21.4914  -54.3249 H         1 UNK         0.0600 
    235 H235       -4.8374  -22.6434  -54.4626 H         1 UNK         0.3000 
    236 H236       -4.1748  -24.4399  -56.7553 H         1 UNK         0.0600 
    237 H237       -5.1497  -25.8095  -54.8951 H         1 UNK         0.0600 
    238 H238       -3.4639  -26.1875  -55.2013 H         1 UNK         0.0600 
    239 H239       -3.8970  -25.2103  -53.8110 H         1 UNK         0.0600 
    240 H240       -3.3469  -21.6883  -56.0389 H         1 UNK         0.3000 
    241 H241       -0.4731  -21.9218  -55.4753 H         1 UNK         0.0600 
    242 H242        1.2249  -21.6497  -57.0696 H         1 UNK         0.3800 
    243 H243        0.8835  -21.8384  -58.7650 H         1 UNK         0.3800 
    244 H244       -0.5175  -19.4319  -56.1882 H         1 UNK         0.0800 
    245 H245       -2.2491  -19.5643  -56.2757 H         1 UNK         0.0800 
    246 H246       -0.1082  -17.7368  -54.1226 H         1 UNK         0.0800 
    247 H247        0.8653  -19.1827  -54.2493 H         1 UNK         0.0800 
@<TRIPOS>BOND
     1    1    2 1    
     2    1  127 1    
     3    1  128 1    
     4    1  129 1    
     5    2    3 2    
     6    2    4 am   BACKBONE|DICT|INTERRES
     7    4    5 1    
     8    4  130 1    
     9    5    6 1    
    10    5   65 1    
    11    5  131 1    
    12    6    7 1    
    13    6  132 1    
    14    6  133 1    
    15    7    8 1    
    16    8    9 1    
    17    8  134 1    
    18    8  135 1    
    19    9   10 ar   
    20    9   14 ar   
    21   10   11 ar   
    22   10  136 1    
    23   11   12 ar   
    24   11  126 1    
    25   12   13 ar   
    26   12  137 1    
    27   13   14 ar   
    28   13   15 1    
    29   14  138 1    
    30   15   16 1    
    31   15  139 1    
    32   15  140 1    
    33   16   17 1    
    34   17   18 1    
    35   17  141 1    
    36   17  142 1    
    37   18   19 1    
    38   18   67 1    
    39   18  143 1    
    40   19   20 am   BACKBONE|DICT|INTERRES
    41   19  144 1    
    42   20   21 2    
    43   20   22 1    
    44   22   23 1    
    45   22   24 1    
    46   22  145 1    
    47   23  146 1    
    48   23  147 1    
    49   23  148 1    
    50   24   25 am   BACKBONE|DICT|INTERRES
    51   24  149 1    
    52   25   26 2    
    53   25   27 1    
    54   27   28 1    
    55   27   29 1    
    56   27  150 1    
    57   28  151 1    
    58   28  152 1    
    59   28  153 1    
    60   29   30 am   BACKBONE|DICT|INTERRES
    61   29  154 1    
    62   30   31 2    
    63   30   32 1    
    64   32   33 1    
    65   32   34 1    
    66   32  155 1    
    67   33  156 1    
    68   33  157 1    
    69   33  158 1    
    70   34   35 am   BACKBONE|DICT|INTERRES
    71   34  159 1    
    72   35   36 2    
    73   35   37 1    
    74   37   38 1    
    75   37   39 1    
    76   37  160 1    
    77   38  161 1    
    78   38  162 1    
    79   38  163 1    
    80   39   40 am   BACKBONE|DICT|INTERRES
    81   39  164 1    
    82   40   41 2    
    83   40   42 1    
    84   42   43 1    
    85   42   44 1    
    86   42  165 1    
    87   43  166 1    
    88   43  167 1    
    89   43  168 1    
    90   44   45 am   BACKBONE|DICT|INTERRES
    91   44  169 1    
    92   45   46 2    
    93   45   47 1    
    94   47   48 1    
    95   47   49 1    
    96   47  170 1    
    97   48  171 1    
    98   48  172 1    
    99   48  173 1    
   100   49   50 am   BACKBONE|DICT|INTERRES
   101   49  174 1    
   102   50   51 2    
   103   50   52 1    
   104   52   53 1    
   105   52   54 1    
   106   52  175 1    
   107   53  176 1    
   108   53  177 1    
   109   53  178 1    
   110   54   55 am   BACKBONE|DICT|INTERRES
   111   54  179 1    
   112   55   56 2    
   113   55   57 1    
   114   57   58 1    
   115   57   59 1    
   116   57  180 1    
   117   58  181 1    
   118   58  182 1    
   119   58  183 1    
   120   59   60 am   BACKBONE|DICT|INTERRES
   121   59  184 1    
   122   60   61 2    
   123   60   62 1    
   124   62   63 1    
   125   62   64 1    
   126   62  185 1    
   127   63  186 1    
   128   63  187 1    
   129   63  188 1    
   130   64   65 am   BACKBONE|DICT|INTERRES
   131   64  189 1    
   132   65   66 2    
   133   67   68 2    
   134   67   69 am   BACKBONE|DICT|INTERRES
   135   69   70 1    
   136   69  190 1    
   137   70   71 1    
   138   70   72 1    
   139   70  191 1    
   140   71  192 1    
   141   71  193 1    
   142   71  194 1    
   143   72   73 2    
   144   72   74 am   BACKBONE|DICT|INTERRES
   145   74   75 1    
   146   74  195 1    
   147   75   76 1    
   148   75   77 1    
   149   75  196 1    
   150   76  197 1    
   151   76  198 1    
   152   76  199 1    
   153   77   78 2    
   154   77   79 am   BACKBONE|DICT|INTERRES
   155   79   80 1    
   156   79  200 1    
   157   80   81 1    
   158   80   82 1    
   159   80  201 1    
   160   81  202 1    
   161   81  203 1    
   162   81  204 1    
   163   82   83 2    
   164   82   84 am   BACKBONE|DICT|INTERRES
   165   84   85 1    
   166   84  205 1    
   167   85   86 1    
   168   85   87 1    
   169   85  206 1    
   170   86  207 1    
   171   86  208 1    
   172   86  209 1    
   173   87   88 2    
   174   87   89 am   BACKBONE|DICT|INTERRES
   175   89   90 1    
   176   89  210 1    
   177   90   91 1    
   178   90   92 1    
   179   90  211 1    
   180   91  212 1    
   181   91  213 1    
   182   91  214 1    
   183   92   93 2    
   184   92   94 am   BACKBONE|DICT|INTERRES
   185   94   95 1    
   186   94  215 1    
   187   95   96 1    
   188   95   97 1    
   189   95  216 1    
   190   96  217 1    
   191   96  218 1    
   192   96  219 1    
   193   97   98 2    
   194   97   99 am   BACKBONE|DICT|INTERRES
   195   99  100 1    
   196   99  220 1    
   197  100  101 1    
   198  100  102 1    
   199  100  221 1    
   200  101  222 1    
   201  101  223 1    
   202  101  224 1    
   203  102  103 2    
   204  102  104 am   BACKBONE|DICT|INTERRES
   205  104  105 1    
   206  104  225 1    
   207  105  106 1    
   208  105  107 1    
   209  105  226 1    
   210  106  227 1    
   211  106  228 1    
   212  106  229 1    
   213  107  108 2    
   214  107  109 am   BACKBONE|DICT|INTERRES
   215  109  110 1    
   216  109  230 1    
   217  110  111 1    
   218  110  112 1    
   219  110  231 1    
   220  111  232 1    
   221  111  233 1    
   222  111  234 1    
   223  112  113 2    
   224  112  114 am   BACKBONE|DICT|INTERRES
   225  114  115 1    
   226  114  235 1    
   227  115  116 1    
   228  115  117 1    
   229  115  236 1    
   230  116  237 1    
   231  116  238 1    
   232  116  239 1    
   233  117  118 2    
   234  117  119 am   BACKBONE|DICT|INTERRES
   235  119  120 1    
   236  119  240 1    
   237  120  121 1    
   238  120  124 1    
   239  120  241 1    
   240  121  122 am   BACKBONE|DICT|INTERRES
   241  121  123 2    
   242  122  242 1    
   243  122  243 1    
   244  124  125 1    
   245  124  244 1    
   246  124  245 1    
   247  125  126 1    
   248  126  246 1    
   249  126  247 1    
@<TRIPOS>SUBSTRUCTURE
     1 UNK         1 GROUP             0       ****    0 ROOT    
