@<TRIPOS>MOLECULE
3R540
247   249    1
SMALL
USER_CHARGES


@<TRIPOS>ATOM
      1 CA          2.0118   -9.9701  -50.9495 C.3       0 UNK        -0.1800 
      2 C           2.2394  -11.3884  -50.4455 C.2       0 UNK         0.5000 
      3 O           2.8495  -12.1964  -51.1460 O.2       0 UNK        -0.5000 
      4 N           1.7453  -11.6932  -49.2396 N.am      1 UNK        -0.5000 
      5 CA          1.8934  -12.9872  -48.5671 C.3       1 UNK         0.1400 
      6 C6          0.9580  -13.1083  -47.3394 C.3       23 UNK        -0.0398 
      7 S7         -0.7993  -13.0816  -47.8332 S.3       23 UNK        -0.2404 
      8 C8         -1.2748  -14.8379  -47.7307 C.3       23 UNK        -0.0205 
      9 C9         -0.4177  -15.7335  -48.6135 C.ar      23 UNK        -0.0193 
     10 C10        -0.6929  -15.8447  -49.9784 C.ar      23 UNK        -0.1150 
     11 C11         0.0933  -16.6603  -50.7970 C.ar      23 UNK        -0.0193 
     12 C12         1.1635  -17.3679  -50.2399 C.ar      23 UNK        -0.1150 
     13 C13         1.4509  -17.2636  -48.8754 C.ar      23 UNK        -0.0193 
     14 C14         0.6520  -16.4494  -48.0677 C.ar      23 UNK        -0.1150 
     15 C15         2.6479  -17.9977  -48.2852 C.3       23 UNK        -0.0205 
     16 S16         2.3104  -19.7594  -47.9702 S.3       23 UNK        -0.2404 
     17 C17         1.2159  -19.6787  -46.5128 C.3       23 UNK        -0.0398 
     18 CA          0.0534  -20.6989  -46.5512 C.3       11 UNK         0.1400 
     19 N          -0.5581  -20.8433  -45.2269 N.am      11 UNK        -0.5000 
     20 C          -1.4995  -21.7351  -44.8905 C.2       10 UNK         0.5000 
     21 O          -1.9564  -22.5758  -45.6626 O.2       10 UNK        -0.5000 
     22 CA         -2.0568  -21.6425  -43.4605 C.3       10 UNK         0.1400 
     23 CB         -1.1341  -22.3561  -42.4609 C.3       10 UNK        -0.1800 
     24 N          -2.2554  -20.2538  -43.0468 N.am      10 UNK        -0.5000 
     25 C          -3.2410  -19.4671  -43.5010 C.2       9 UNK         0.5000 
     26 O          -4.1140  -19.8474  -44.2818 O.2       9 UNK        -0.5000 
     27 CA         -3.2231  -17.9990  -43.0313 C.3       9 UNK         0.1400 
     28 CB         -3.8369  -17.8679  -41.6294 C.3       9 UNK        -0.1800 
     29 N          -1.8784  -17.4211  -43.0220 N.am      9 UNK        -0.5000 
     30 C          -1.1171  -17.2574  -44.1122 C.2       8 UNK         0.5000 
     31 O          -1.4805  -17.5391  -45.2519 O.2       8 UNK        -0.5000 
     32 CA          0.3150  -16.7479  -43.8917 C.3       8 UNK         0.1400 
     33 CB          0.3494  -15.2137  -43.8698 C.3       8 UNK        -0.1800 
     34 N           0.9419  -17.2657  -42.6771 N.am      8 UNK        -0.5000 
     35 C           1.1345  -18.5567  -42.3757 C.2       7 UNK         0.5000 
     36 O           0.7773  -19.4842  -43.1007 O.2       7 UNK        -0.5000 
     37 CA          1.8153  -18.8643  -41.0322 C.3       7 UNK         0.1400 
     38 CB          3.3394  -18.9488  -41.2010 C.3       7 UNK        -0.1800 
     39 N           1.5028  -17.8531  -40.0230 N.am      7 UNK        -0.5000 
     40 C           0.4472  -17.8962  -39.2010 C.2       6 UNK         0.5000 
     41 O          -0.3674  -18.8195  -39.1817 O.2       6 UNK        -0.5000 
     42 CA          0.2670  -16.7036  -38.2407 C.3       6 UNK         0.1400 
     43 CB          1.0415  -16.9438  -36.9358 C.3       6 UNK        -0.1800 
     44 N           0.6856  -15.4232  -38.8168 N.am      6 UNK        -0.5000 
     45 C           0.0401  -14.7948  -39.8084 C.2       5 UNK         0.5000 
     46 O          -0.9815  -15.2301  -40.3418 O.2       5 UNK        -0.5000 
     47 CA          0.6501  -13.4680  -40.3091 C.3       5 UNK         0.1400 
     48 CB          0.1704  -12.3008  -39.4327 C.3       5 UNK        -0.1800 
     49 N           2.1168  -13.4159  -40.4151 N.am      5 UNK        -0.5000 
     50 C           2.9065  -14.3340  -40.9882 C.2       4 UNK         0.5000 
     51 O           2.5258  -15.4577  -41.3156 O.2       4 UNK        -0.5000 
     52 CA          4.3788  -13.9508  -41.2236 C.3       4 UNK         0.1400 
     53 CB          5.2201  -14.2812  -39.9818 C.3       4 UNK        -0.1800 
     54 N           4.9210  -14.6818  -42.3726 N.am      4 UNK        -0.5000 
     55 C           4.5688  -14.4634  -43.6465 C.2       3 UNK         0.5000 
     56 O           3.8813  -13.5084  -44.0185 O.2       3 UNK        -0.5000 
     57 CA          5.0309  -15.5134  -44.6671 C.3       3 UNK         0.1400 
     58 CB          4.1265  -16.7598  -44.6072 C.3       3 UNK        -0.1800 
     59 N           4.9888  -14.9360  -46.0067 N.am      3 UNK        -0.5000 
     60 C           5.5678  -15.4469  -47.0980 C.2       2 UNK         0.5000 
     61 O           6.2307  -16.4856  -47.0858 O.2       2 UNK        -0.5000 
     62 CA          5.3558  -14.6809  -48.4216 C.3       2 UNK         0.1400 
     63 CB          5.8445  -15.4710  -49.6498 C.3       2 UNK        -0.1800 
     64 N           3.9530  -14.3173  -48.6340 N.am      2 UNK        -0.5000 
     65 C           3.3623  -13.2138  -48.1618 C.2       1 UNK         0.5000 
     66 O           3.9265  -12.3979  -47.4301 O.2       1 UNK        -0.5000 
     67 C          -0.9871  -20.3580  -47.6413 C.2       11 UNK         0.5000 
     68 O          -0.9455  -20.9462  -48.7206 O.2       11 UNK        -0.5000 
     69 N          -1.9251  -19.4548  -47.3214 N.am      12 UNK        -0.5000 
     70 CA         -3.0406  -19.0734  -48.1862 C.3       12 UNK         0.1400 
     71 CB         -3.7581  -17.8594  -47.5803 C.3       12 UNK        -0.1800 
     72 C          -4.0464  -20.2153  -48.4152 C.2       12 UNK         0.5000 
     73 O          -4.6011  -20.3132  -49.5083 O.2       12 UNK        -0.5000 
     74 N          -4.2701  -21.0482  -47.3880 N.am      13 UNK        -0.5000 
     75 CA         -5.1358  -22.2246  -47.4508 C.3       13 UNK         0.1400 
     76 CB         -5.4890  -22.6886  -46.0288 C.3       13 UNK        -0.1800 
     77 C          -4.4853  -23.3528  -48.2694 C.2       13 UNK         0.5000 
     78 O          -5.0497  -23.7941  -49.2721 O.2       13 UNK        -0.5000 
     79 N          -3.2758  -23.7590  -47.8641 N.am      14 UNK        -0.5000 
     80 CA         -2.4532  -24.7862  -48.5055 C.3       14 UNK         0.1400 
     81 CB         -1.5381  -25.4197  -47.4424 C.3       14 UNK        -0.1800 
     82 C          -1.6669  -24.2301  -49.7130 C.2       14 UNK         0.5000 
     83 O          -0.4716  -24.4977  -49.8517 O.2       14 UNK        -0.5000 
     84 N          -2.3577  -23.4539  -50.5548 N.am      15 UNK        -0.5000 
     85 CA         -1.8334  -22.8047  -51.7506 C.3       15 UNK         0.1400 
     86 CB         -2.5390  -21.4499  -51.9100 C.3       15 UNK        -0.1800 
     87 C          -1.9473  -23.7367  -52.9764 C.2       15 UNK         0.5000 
     88 O          -1.6476  -24.9273  -52.8554 O.2       15 UNK        -0.5000 
     89 N          -2.3579  -23.2073  -54.1398 N.am      16 UNK        -0.5000 
     90 CA         -2.4402  -23.9352  -55.4094 C.3       16 UNK         0.1400 
     91 CB         -2.7919  -22.9614  -56.5459 C.3       16 UNK        -0.1800 
     92 C          -3.4549  -25.0876  -55.3219 C.2       16 UNK         0.5000 
     93 O          -4.6509  -24.8341  -55.1732 O.2       16 UNK        -0.5000 
     94 N          -2.9415  -26.3272  -55.3202 N.am      17 UNK        -0.5000 
     95 CA         -3.6657  -27.5908  -55.1131 C.3       17 UNK         0.1400 
     96 CB         -4.5824  -27.8821  -56.3196 C.3       17 UNK        -0.1800 
     97 C          -4.4293  -27.6677  -53.7683 C.2       17 UNK         0.5000 
     98 O          -5.3613  -28.4637  -53.6432 O.2       17 UNK        -0.5000 
     99 N          -4.0405  -26.8201  -52.8007 N.am      18 UNK        -0.5000 
    100 CA        -4.7239  -26.5426  -51.5330 C.3       18 UNK         0.1400 
    101 CB        -4.5936  -27.7370  -50.5668 C.3       18 UNK        -0.1800 
    102 C         -6.1830  -26.0582  -51.7120 C.2       18 UNK         0.5000 
    103 O         -7.0324  -26.3306  -50.8625 O.2       18 UNK        -0.5000 
    104 N         -6.4534  -25.3416  -52.8143 N.am      19 UNK        -0.5000 
    105 CA        -7.7785  -24.8362  -53.1879 C.3       19 UNK         0.1400 
    106 CB        -7.8440  -24.7133  -54.7197 C.3       19 UNK        -0.1800 
    107 C         -8.1463  -23.4974  -52.5129 C.2       19 UNK         0.5000 
    108 O         -9.1751  -22.9156  -52.8601 O.2       19 UNK        -0.5000 
    109 N         -7.3060  -23.0247  -51.5807 N.am      20 UNK        -0.5000 
    110 CA        -7.4185  -21.7662  -50.8376 C.3       20 UNK         0.1400 
    111 CB        -8.6594  -21.7641  -49.9205 C.3       20 UNK        -0.1800 
    112 C         -7.3064  -20.5098  -51.7278 C.2       20 UNK         0.5000 
    113 O         -7.9338  -19.4879  -51.4417 O.2       20 UNK        -0.5000 
    114 N         -6.4962  -20.6057  -52.7873 N.am      21 UNK        -0.5000 
    115 CA        -6.1571  -19.5243  -53.7024 C.3       21 UNK         0.1400 
    116 CB        -7.2029  -19.4438  -54.8270 C.3       21 UNK        -0.1800 
    117 C         -4.7588  -19.8015  -54.2664 C.2       21 UNK         0.5000 
    118 O         -4.3982  -20.9668  -54.4460 O.2       21 UNK        -0.5000 
    119 N         -3.9996  -18.7358  -54.5356 N.am      22 UNK        -0.5000 
    120 CA        -2.6256  -18.8009  -55.0677 C.3       22 UNK         0.1400 
    121 C         -2.5476  -18.7762  -56.6230 C.2       22 UNK         0.5000 
    122 N         -3.6567  -18.6912  -57.3473 N.am      22 UNK        -0.7600 
    123 O         -1.4594  -18.8511  -57.1867 O.2       22 UNK        -0.5000 
    124 C124       -1.7172  -17.7144  -54.4344 C.3       23 UNK        -0.0398 
    125 S125       -1.5984  -17.8694  -52.6188 S.3       23 UNK        -0.2404 
    126 C126       -0.2031  -16.7528  -52.2857 C.3       23 UNK        -0.0205 
    127 H127        2.9676   -9.4786  -51.1308 H         1 UNK         0.0600 
    128 H128        1.4512   -9.3697  -50.2325 H         1 UNK         0.0600 
    129 H129        1.4540   -9.9897  -51.8858 H         1 UNK         0.0600 
    130 H130        1.2591  -10.9835  -48.7111 H         1 UNK         0.3000 
    131 H131        1.6147  -13.7631  -49.2836 H         1 UNK         0.0600 
    132 H132        1.1315  -12.2852  -46.6438 H         1 UNK         0.0800 
    133 H133        1.1632  -14.0175  -46.7742 H         1 UNK         0.0800 
    134 H134       -2.3180  -14.9208  -48.0371 H         1 UNK         0.0800 
    135 H135       -1.2402  -15.1736  -46.6951 H         1 UNK         0.0800 
    136 H136       -1.5177  -15.2920  -50.4059 H         1 UNK         0.1150 
    137 H137        1.7785  -17.9964  -50.8686 H         1 UNK         0.1150 
    138 H138        0.8690  -16.3622  -47.0138 H         1 UNK         0.1150 
    139 H139        3.4881  -17.9266  -48.9769 H         1 UNK         0.0800 
    140 H140        2.9791  -17.5194  -47.3624 H         1 UNK         0.0800 
    141 H141        0.8234  -18.6712  -46.3931 H         1 UNK         0.0800 
    142 H142        1.8423  -19.8614  -45.6384 H         1 UNK         0.0800 
    143 H143        0.4725  -21.6760  -46.8019 H         1 UNK         0.0600 
    144 H144       -0.2064  -20.2270  -44.4984 H         1 UNK         0.3000 
    145 H145       -3.0243  -22.1491  -43.4454 H         1 UNK         0.0600 
    146 H146       -1.5513  -22.3324  -41.4541 H         1 UNK         0.0600 
    147 H147       -1.0032  -23.4039  -42.7340 H         1 UNK         0.0600 
    148 H148       -0.1437  -21.9021  -42.4236 H         1 UNK         0.0600 
    149 H149       -1.5453  -19.8507  -42.4524 H         1 UNK         0.3000 
    150 H150       -3.8323  -17.4202  -43.7288 H         1 UNK         0.0600 
    151 H151       -4.8478  -18.2770  -41.6053 H         1 UNK         0.0600 
    152 H152       -3.9013  -16.8233  -41.3241 H         1 UNK         0.0600 
    153 H153       -3.2481  -18.3990  -40.8800 H         1 UNK         0.0600 
    154 H154       -1.5002  -17.1468  -42.1254 H         1 UNK         0.3000 
    155 H155        0.9139  -17.0901  -44.7339 H         1 UNK         0.0600 
    156 H156       -0.2258  -14.8168  -43.0344 H         1 UNK         0.0600 
    157 H157       -0.0734  -14.7933  -44.7804 H         1 UNK         0.0600 
    158 H158        1.3696  -14.8401  -43.7863 H         1 UNK         0.0600 
    159 H159        1.3471  -16.5709  -42.0534 H         1 UNK         0.3000 
    160 H160        1.4590  -19.8415  -40.6991 H         1 UNK         0.0600 
    161 H161        3.8130  -19.3090  -40.2877 H         1 UNK         0.0600 
    162 H162        3.7738  -17.9775  -41.4371 H         1 UNK         0.0600 
    163 H163        3.6103  -19.6384  -42.0018 H         1 UNK         0.0600 
    164 H164        2.0706  -17.0142  -40.0397 H         1 UNK         0.3000 
    165 H165       -0.7954  -16.6349  -37.9969 H         1 UNK         0.0600 
    166 H166        0.8568  -16.1471  -36.2150 H         1 UNK         0.0600 
    167 H167        0.7368  -17.8809  -36.4678 H         1 UNK         0.0600 
    168 H168        2.1169  -16.9980  -37.1096 H         1 UNK         0.0600 
    169 H169        1.5255  -15.0038  -38.4458 H         1 UNK         0.3000 
    170 H170        0.2628  -13.3021  -41.3153 H         1 UNK         0.0600 
    171 H171       -0.9174  -12.2938  -39.3489 H         1 UNK         0.0600 
    172 H172        0.5771  -12.3634  -38.4226 H         1 UNK         0.0600 
    173 H173        0.4666  -11.3406  -39.8554 H         1 UNK         0.0600 
    174 H174        2.5363  -12.5383  -40.1440 H         1 UNK         0.3000 
    175 H175        4.4413  -12.8794  -41.4249 H         1 UNK         0.0600 
    176 H176        5.1811  -15.3443  -39.7396 H         1 UNK         0.0600 
    177 H177        6.2653  -14.0090  -40.1299 H         1 UNK         0.0600 
    178 H178        4.8635  -13.7327  -39.1091 H         1 UNK         0.0600 
    179 H179        5.4589  -15.5072  -42.1541 H         1 UNK         0.3000 
    180 H180        6.0597  -15.7920  -44.4303 H         1 UNK         0.0600 
    181 H181        3.1188  -16.5275  -44.9474 H         1 UNK         0.0600 
    182 H182        4.0494  -17.1482  -43.5927 H         1 UNK         0.0600 
    183 H183        4.5116  -17.5666  -45.2305 H         1 UNK         0.0600 
    184 H184        4.4961  -14.0504  -46.0700 H         1 UNK         0.3000 
    185 H185        5.9562  -13.7708  -48.3595 H         1 UNK         0.0600 
    186 H186        6.9062  -15.7075  -49.5682 H         1 UNK         0.0600 
    187 H187        5.3054  -16.4116  -49.7661 H         1 UNK         0.0600 
    188 H188        5.7137  -14.8945  -50.5658 H         1 UNK         0.0600 
    189 H189        3.4181  -14.9438  -49.2179 H         1 UNK         0.3000 
    190 H190       -1.8514  -18.9575  -46.4376 H         1 UNK         0.3000 
    191 H191       -2.6302  -18.7837  -49.1564 H         1 UNK         0.0600 
    192 H192       -4.1913  -18.0927  -46.6067 H         1 UNK         0.0600 
    193 H193       -4.5646  -17.5161  -48.2292 H         1 UNK         0.0600 
    194 H194       -3.0711  -17.0273  -47.4446 H         1 UNK         0.0600 
    195 H195       -3.7805  -20.8864  -46.5184 H         1 UNK         0.3000 
    196 H196       -6.0680  -21.9419  -47.9418 H         1 UNK         0.0600 
    197 H197       -6.1511  -23.5548  -46.0558 H         1 UNK         0.0600 
    198 H198       -6.0042  -21.9021  -45.4770 H         1 UNK         0.0600 
    199 H199       -4.6052  -22.9694  -45.4562 H         1 UNK         0.0600 
    200 H200       -2.8496  -23.2944  -47.0636 H         1 UNK         0.3000 
    201 H201       -3.1081  -25.5732  -48.8832 H         1 UNK         0.0600 
    202 H202       -2.1169  -25.8085  -46.6044 H         1 UNK         0.0600 
    203 H203       -0.8226  -24.6970  -47.0482 H         1 UNK         0.0600 
    204 H204       -0.9707  -26.2530  -47.8585 H         1 UNK         0.0600 
    205 H205       -3.3381  -23.3060  -50.3516 H         1 UNK         0.3000 
    206 H206       -0.7697  -22.6022  -51.6110 H         1 UNK         0.0600 
    207 H207       -2.3563  -20.8141  -51.0443 H         1 UNK         0.0600 
    208 H208       -2.1662  -20.9038  -52.7745 H         1 UNK         0.0600 
    209 H209       -3.6182  -21.5662  -52.0076 H         1 UNK         0.0600 
    210 H210       -2.7245  -22.2624  -54.1507 H         1 UNK         0.3000 
    211 H211       -1.4507  -24.3466  -55.6193 H         1 UNK         0.0600 
    212 H212       -3.7932  -22.5459  -56.4307 H         1 UNK         0.0600 
    213 H213       -2.7612  -23.4672  -57.5115 H         1 UNK         0.0600 
    214 H214       -2.0875  -22.1306  -56.5904 H         1 UNK         0.0600 
    215 H215       -1.9372  -26.4194  -55.3890 H         1 UNK         0.3000 
    216 H216       -2.9084  -28.3749  -55.0742 H         1 UNK         0.0600 
    217 H217       -5.0124  -28.8823  -56.2551 H         1 UNK         0.0600 
    218 H218       -4.0292  -27.8298  -57.2573 H         1 UNK         0.0600 
    219 H219       -5.4099  -27.1741  -56.3782 H         1 UNK         0.0600 
    220 H220       -3.2380  -26.2292  -52.9953 H         1 UNK         0.3000 
    221 H221       -4.1896  -25.7034  -51.0889 H         1 UNK         0.0600 
    222 H222       -5.1489  -28.6059  -50.9207 H         1 UNK         0.0600 
    223 H223       -3.5514  -28.0312  -50.4430 H         1 UNK         0.0600 
    224 H224       -4.9769  -27.4833  -49.5777 H         1 UNK         0.0600 
    225 H225       -5.7139  -25.1744  -53.4907 H         1 UNK         0.3000 
    226 H226       -8.5304  -25.5661  -52.8810 H         1 UNK         0.0600 
    227 H227       -8.8539  -24.4714  -55.0525 H         1 UNK         0.0600 
    228 H228       -7.1821  -23.9280  -55.0870 H         1 UNK         0.0600 
    229 H229       -7.5584  -25.6471  -55.2049 H         1 UNK         0.0600 
    230 H230       -6.5045  -23.5932  -51.3444 H         1 UNK         0.3000 
    231 H231       -6.5463  -21.7421  -50.1911 H         1 UNK         0.0600 
    232 H232       -8.6871  -22.6561  -49.2948 H         1 UNK         0.0600 
    233 H233       -9.5872  -21.7232  -50.4914 H         1 UNK         0.0600 
    234 H234       -8.6485  -20.9018  -49.2529 H         1 UNK         0.0600 
    235 H235       -5.9908  -21.4656  -52.9561 H         1 UNK         0.3000 
    236 H236       -6.1317  -18.5793  -53.1554 H         1 UNK         0.0600 
    237 H237       -8.1972  -19.2427  -54.4279 H         1 UNK         0.0600 
    238 H238       -6.9655  -18.6419  -55.5268 H         1 UNK         0.0600 
    239 H239       -7.2529  -20.3744  -55.3941 H         1 UNK         0.0600 
    240 H240       -4.3634  -17.8098  -54.3645 H         1 UNK         0.3000 
    241 H241       -2.1935  -19.7644  -54.7941 H         1 UNK         0.0600 
    242 H242       -3.5929  -18.6829  -58.3533 H         1 UNK         0.3800 
    243 H243       -4.5583  -18.6430  -56.9016 H         1 UNK         0.3800 
    244 H244       -2.0852  -16.7167  -54.6789 H         1 UNK         0.0800 
    245 H245       -0.7068  -17.7793  -54.8423 H         1 UNK         0.0800 
    246 H246        0.6778  -17.1019  -52.8268 H         1 UNK         0.0800 
    247 H247       -0.4321  -15.7594  -52.6745 H         1 UNK         0.0800 
@<TRIPOS>BOND
     1    1    2 1    
     2    1  127 1    
     3    1  128 1    
     4    1  129 1    
     5    2    3 2    
     6    2    4 am   BACKBONE|DICT|INTERRES
     7    4    5 1    
     8    4  130 1    
     9    5    6 1    
    10    5   65 1    
    11    5  131 1    
    12    6    7 1    
    13    6  132 1    
    14    6  133 1    
    15    7    8 1    
    16    8    9 1    
    17    8  134 1    
    18    8  135 1    
    19    9   10 ar   
    20    9   14 ar   
    21   10   11 ar   
    22   10  136 1    
    23   11   12 ar   
    24   11  126 1    
    25   12   13 ar   
    26   12  137 1    
    27   13   14 ar   
    28   13   15 1    
    29   14  138 1    
    30   15   16 1    
    31   15  139 1    
    32   15  140 1    
    33   16   17 1    
    34   17   18 1    
    35   17  141 1    
    36   17  142 1    
    37   18   19 1    
    38   18   67 1    
    39   18  143 1    
    40   19   20 am   BACKBONE|DICT|INTERRES
    41   19  144 1    
    42   20   21 2    
    43   20   22 1    
    44   22   23 1    
    45   22   24 1    
    46   22  145 1    
    47   23  146 1    
    48   23  147 1    
    49   23  148 1    
    50   24   25 am   BACKBONE|DICT|INTERRES
    51   24  149 1    
    52   25   26 2    
    53   25   27 1    
    54   27   28 1    
    55   27   29 1    
    56   27  150 1    
    57   28  151 1    
    58   28  152 1    
    59   28  153 1    
    60   29   30 am   BACKBONE|DICT|INTERRES
    61   29  154 1    
    62   30   31 2    
    63   30   32 1    
    64   32   33 1    
    65   32   34 1    
    66   32  155 1    
    67   33  156 1    
    68   33  157 1    
    69   33  158 1    
    70   34   35 am   BACKBONE|DICT|INTERRES
    71   34  159 1    
    72   35   36 2    
    73   35   37 1    
    74   37   38 1    
    75   37   39 1    
    76   37  160 1    
    77   38  161 1    
    78   38  162 1    
    79   38  163 1    
    80   39   40 am   BACKBONE|DICT|INTERRES
    81   39  164 1    
    82   40   41 2    
    83   40   42 1    
    84   42   43 1    
    85   42   44 1    
    86   42  165 1    
    87   43  166 1    
    88   43  167 1    
    89   43  168 1    
    90   44   45 am   BACKBONE|DICT|INTERRES
    91   44  169 1    
    92   45   46 2    
    93   45   47 1    
    94   47   48 1    
    95   47   49 1    
    96   47  170 1    
    97   48  171 1    
    98   48  172 1    
    99   48  173 1    
   100   49   50 am   BACKBONE|DICT|INTERRES
   101   49  174 1    
   102   50   51 2    
   103   50   52 1    
   104   52   53 1    
   105   52   54 1    
   106   52  175 1    
   107   53  176 1    
   108   53  177 1    
   109   53  178 1    
   110   54   55 am   BACKBONE|DICT|INTERRES
   111   54  179 1    
   112   55   56 2    
   113   55   57 1    
   114   57   58 1    
   115   57   59 1    
   116   57  180 1    
   117   58  181 1    
   118   58  182 1    
   119   58  183 1    
   120   59   60 am   BACKBONE|DICT|INTERRES
   121   59  184 1    
   122   60   61 2    
   123   60   62 1    
   124   62   63 1    
   125   62   64 1    
   126   62  185 1    
   127   63  186 1    
   128   63  187 1    
   129   63  188 1    
   130   64   65 am   BACKBONE|DICT|INTERRES
   131   64  189 1    
   132   65   66 2    
   133   67   68 2    
   134   67   69 am   BACKBONE|DICT|INTERRES
   135   69   70 1    
   136   69  190 1    
   137   70   71 1    
   138   70   72 1    
   139   70  191 1    
   140   71  192 1    
   141   71  193 1    
   142   71  194 1    
   143   72   73 2    
   144   72   74 am   BACKBONE|DICT|INTERRES
   145   74   75 1    
   146   74  195 1    
   147   75   76 1    
   148   75   77 1    
   149   75  196 1    
   150   76  197 1    
   151   76  198 1    
   152   76  199 1    
   153   77   78 2    
   154   77   79 am   BACKBONE|DICT|INTERRES
   155   79   80 1    
   156   79  200 1    
   157   80   81 1    
   158   80   82 1    
   159   80  201 1    
   160   81  202 1    
   161   81  203 1    
   162   81  204 1    
   163   82   83 2    
   164   82   84 am   BACKBONE|DICT|INTERRES
   165   84   85 1    
   166   84  205 1    
   167   85   86 1    
   168   85   87 1    
   169   85  206 1    
   170   86  207 1    
   171   86  208 1    
   172   86  209 1    
   173   87   88 2    
   174   87   89 am   BACKBONE|DICT|INTERRES
   175   89   90 1    
   176   89  210 1    
   177   90   91 1    
   178   90   92 1    
   179   90  211 1    
   180   91  212 1    
   181   91  213 1    
   182   91  214 1    
   183   92   93 2    
   184   92   94 am   BACKBONE|DICT|INTERRES
   185   94   95 1    
   186   94  215 1    
   187   95   96 1    
   188   95   97 1    
   189   95  216 1    
   190   96  217 1    
   191   96  218 1    
   192   96  219 1    
   193   97   98 2    
   194   97   99 am   BACKBONE|DICT|INTERRES
   195   99  100 1    
   196   99  220 1    
   197  100  101 1    
   198  100  102 1    
   199  100  221 1    
   200  101  222 1    
   201  101  223 1    
   202  101  224 1    
   203  102  103 2    
   204  102  104 am   BACKBONE|DICT|INTERRES
   205  104  105 1    
   206  104  225 1    
   207  105  106 1    
   208  105  107 1    
   209  105  226 1    
   210  106  227 1    
   211  106  228 1    
   212  106  229 1    
   213  107  108 2    
   214  107  109 am   BACKBONE|DICT|INTERRES
   215  109  110 1    
   216  109  230 1    
   217  110  111 1    
   218  110  112 1    
   219  110  231 1    
   220  111  232 1    
   221  111  233 1    
   222  111  234 1    
   223  112  113 2    
   224  112  114 am   BACKBONE|DICT|INTERRES
   225  114  115 1    
   226  114  235 1    
   227  115  116 1    
   228  115  117 1    
   229  115  236 1    
   230  116  237 1    
   231  116  238 1    
   232  116  239 1    
   233  117  118 2    
   234  117  119 am   BACKBONE|DICT|INTERRES
   235  119  120 1    
   236  119  240 1    
   237  120  121 1    
   238  120  124 1    
   239  120  241 1    
   240  121  122 am   BACKBONE|DICT|INTERRES
   241  121  123 2    
   242  122  242 1    
   243  122  243 1    
   244  124  125 1    
   245  124  244 1    
   246  124  245 1    
   247  125  126 1    
   248  126  246 1    
   249  126  247 1    
@<TRIPOS>SUBSTRUCTURE
     1 UNK         1 GROUP             0       ****    0 ROOT    
