@<TRIPOS>MOLECULE
3R540
247   249    1
SMALL
USER_CHARGES


@<TRIPOS>ATOM
      1 CA         -3.9084  -12.6043  -49.9908 C.3       0 UNK        -0.1800 
      2 C          -2.6279  -13.0561  -49.3034 C.2       0 UNK         0.5000 
      3 O          -1.9687  -12.2543  -48.6425 O.2       0 UNK        -0.5000 
      4 N          -2.2797  -14.3406  -49.4493 N.am      1 UNK        -0.5000 
      5 CA         -1.0701  -14.9602  -48.8877 C.3       1 UNK         0.1400 
      6 C6         -0.7171  -16.2851  -49.6048 C.3       23 UNK        -0.0398 
      7 S7         -0.4140  -16.0518  -51.3895 S.3       23 UNK        -0.2404 
      8 C8          1.4019  -16.1636  -51.4811 C.3       23 UNK        -0.0205 
      9 C9          1.9062  -17.5947  -51.3469 C.ar      23 UNK        -0.0193 
     10 C10         1.7456  -18.4951  -52.4045 C.ar      23 UNK        -0.1150 
     11 C11         2.2294  -19.8030  -52.3055 C.ar      23 UNK        -0.0193 
     12 C12         2.8909  -20.2037  -51.1406 C.ar      23 UNK        -0.1150 
     13 C13         3.0500  -19.3176  -50.0693 C.ar      23 UNK        -0.0193 
     14 C14         2.5535  -18.0143  -50.1801 C.ar      23 UNK        -0.1150 
     15 C15         3.7770  -19.7537  -48.7999 C.3       23 UNK        -0.0205 
     16 S16         3.0590  -21.2408  -48.0249 S.3       23 UNK        -0.2404 
     17 C17         1.3643  -20.6724  -47.6840 C.3       23 UNK        -0.0398 
     18 CA          0.4854  -21.7881  -47.0691 C.3       11 UNK         0.1400 
     19 N           0.7368  -21.9846  -45.6392 N.am      11 UNK        -0.5000 
     20 C           0.1726  -22.9407  -44.8868 C.2       10 UNK         0.5000 
     21 O          -0.5672  -23.8173  -45.3347 O.2       10 UNK        -0.5000 
     22 CA          0.4271  -22.8731  -43.3702 C.3       10 UNK         0.1400 
     23 CB          1.8011  -23.4606  -43.0158 C.3       10 UNK        -0.1800 
     24 N           0.3107  -21.5127  -42.8398 N.am      10 UNK        -0.5000 
     25 C          -0.8182  -20.7876  -42.8558 C.2       9 UNK         0.5000 
     26 O          -1.8932  -21.2100  -43.2790 O.2       9 UNK        -0.5000 
     27 CA         -0.7272  -19.3325  -42.3612 C.3       9 UNK         0.1400 
     28 CB         -0.7556  -19.2690  -40.8272 C.3       9 UNK        -0.1800 
     29 N           0.4616  -18.6436  -42.8583 N.am      9 UNK        -0.5000 
     30 C           0.7201  -18.4025  -44.1509 C.2       8 UNK         0.5000 
     31 O          -0.0469  -18.6912  -45.0697 O.2       8 UNK        -0.5000 
     32 CA          2.0994  -17.8008  -44.4716 C.3       8 UNK         0.1400 
     33 CB          2.1310  -16.2941  -44.1913 C.3       8 UNK        -0.1800 
     34 N           3.1721  -18.4479  -43.7183 N.am      8 UNK        -0.5000 
     35 C           3.5456  -19.7252  -43.8685 C.2       7 UNK         0.5000 
     36 O           3.0384  -20.4957  -44.6811 O.2       7 UNK        -0.5000 
     37 CA          4.6408  -20.2340  -42.9152 C.3       7 UNK         0.1400 
     38 CB          6.0338  -19.8411  -43.4293 C.3       7 UNK        -0.1800 
     39 N           4.4643  -19.7344  -41.5503 N.am      7 UNK        -0.5000 
     40 C           3.4481  -20.0818  -40.7480 C.2       6 UNK         0.5000 
     41 O           2.5670  -20.8798  -41.0658 O.2       6 UNK        -0.5000 
     42 CA          3.3820  -19.3834  -39.3779 C.3       6 UNK         0.1400 
     43 CB          4.3118  -20.0756  -38.3700 C.3       6 UNK        -0.1800 
     44 N           3.7030  -17.9538  -39.4393 N.am      6 UNK        -0.5000 
     45 C           2.9867  -17.0487  -40.1179 C.2       5 UNK         0.5000 
     46 O           2.0097  -17.3336  -40.8140 O.2       5 UNK        -0.5000 
     47 CA          3.4493  -15.5899  -40.0261 C.3       5 UNK         0.1400 
     48 CB          4.5138  -15.2771  -41.0916 C.3       5 UNK        -0.1800 
     49 N           2.2893  -14.7252  -40.2121 N.am      5 UNK        -0.5000 
     50 C           2.1232  -13.5130  -39.6770 C.2       4 UNK         0.5000 
     51 O           2.9951  -12.9346  -39.0251 O.2       4 UNK        -0.5000 
     52 CA          0.7544  -12.8391  -39.9181 C.3       4 UNK         0.1400 
     53 CB          0.5844  -11.5376  -39.1129 C.3       4 UNK        -0.1800 
     54 N           0.5225  -12.5444  -41.3332 N.am      4 UNK        -0.5000 
     55 C           0.1502  -13.4350  -42.2596 C.2       3 UNK         0.5000 
     56 O          -0.0207  -14.6333  -42.0193 O.2       3 UNK        -0.5000 
     57 CA         -0.0382  -12.8870  -43.6887 C.3       3 UNK         0.1400 
     58 CB          1.3182  -12.5854  -44.3468 C.3       3 UNK        -0.1800 
     59 N          -0.7765  -13.8222  -44.5361 N.am      3 UNK        -0.5000 
     60 C          -2.0884  -14.0674  -44.4534 C.2       2 UNK         0.5000 
     61 O          -2.8504  -13.4278  -43.7252 O.2       2 UNK        -0.5000 
     62 CA         -2.6329  -15.2103  -45.3408 C.3       2 UNK         0.1400 
     63 CB         -4.1527  -15.4035  -45.1839 C.3       2 UNK        -0.1800 
     64 N          -2.3401  -15.0226  -46.7638 N.am      2 UNK        -0.5000 
     65 C          -1.1527  -15.1916  -47.3624 C.2       1 UNK         0.5000 
     66 O          -0.1351  -15.5239  -46.7566 O.2       1 UNK        -0.5000 
     67 C          -1.0047  -21.5204  -47.3488 C.2       11 UNK         0.5000 
     68 O          -1.5844  -22.2058  -48.1889 O.2       11 UNK        -0.5000 
     69 N          -1.6015  -20.5586  -46.6306 N.am      12 UNK        -0.5000 
     70 CA         -3.0091  -20.1750  -46.7643 C.3       12 UNK         0.1400 
     71 CB         -3.2652  -18.9046  -45.9449 C.3       12 UNK        -0.1800 
     72 C          -4.0060  -21.2858  -46.3814 C.2       12 UNK         0.5000 
     73 O          -5.0998  -21.3357  -46.9438 O.2       12 UNK        -0.5000 
     74 N          -3.6193  -22.1580  -45.4415 N.am      13 UNK        -0.5000 
     75 CA         -4.3764  -23.3520  -45.0709 C.3       13 UNK         0.1400 
     76 CB         -3.8583  -23.8924  -43.7292 C.3       13 UNK        -0.1800 
     77 C          -4.3169  -24.4415  -46.1581 C.2       13 UNK         0.5000 
     78 O          -5.3193  -25.1188  -46.3896 O.2       13 UNK        -0.5000 
     79 N          -3.1493  -24.5961  -46.7972 N.am      14 UNK        -0.5000 
     80 CA         -2.9074  -25.5730  -47.8564 C.3       14 UNK         0.1400 
     81 CB         -1.3940  -25.7950  -48.0118 C.3       14 UNK        -0.1800 
     82 C          -3.5455  -25.1656  -49.1966 C.2       14 UNK         0.5000 
     83 O          -4.2667  -25.9675  -49.7920 O.2       14 UNK        -0.5000 
     84 N          -3.2626  -23.9389  -49.6484 N.am      15 UNK        -0.5000 
     85 CA         -3.6948  -23.3732  -50.9229 C.3       15 UNK         0.1400 
     86 CB         -2.9738  -24.0722  -52.0976 C.3       15 UNK        -0.1800 
     87 C          -3.4665  -21.8530  -50.8616 C.2       15 UNK         0.5000 
     88 O          -4.0742  -21.2028  -50.0127 O.2       15 UNK        -0.5000 
     89 N          -2.5910  -21.3221  -51.7296 N.am      16 UNK        -0.5000 
     90 CA         -2.0000  -19.9766  -51.7438 C.3       16 UNK         0.1400 
     91 CB         -1.0156  -19.8381  -50.5717 C.3       16 UNK        -0.1800 
     92 C          -3.0040  -18.8073  -51.7850 C.2       16 UNK         0.5000 
     93 O          -3.1502  -18.1675  -52.8248 O.2       16 UNK        -0.5000 
     94 N          -3.6689  -18.5486  -50.6530 N.am      17 UNK        -0.5000 
     95 CA         -4.7522  -17.5782  -50.5092 C.3       17 UNK         0.1400 
     96 CB         -4.9138  -17.2417  -49.0178 C.3       17 UNK        -0.1800 
     97 C          -6.0793  -18.0933  -51.1044 C.2       17 UNK         0.5000 
     98 O          -6.9579  -17.2856  -51.4092 O.2       17 UNK        -0.5000 
     99 N          -6.2000  -19.4202  -51.2600 N.am      18 UNK        -0.5000 
    100 CA        -7.3007  -20.1044  -51.9387 C.3       18 UNK         0.1400 
    101 CB        -7.1331  -21.6180  -51.7305 C.3       18 UNK        -0.1800 
    102 C         -7.3633  -19.7811  -53.4462 C.2       18 UNK         0.5000 
    103 O         -6.3729  -19.3329  -54.0309 O.2       18 UNK        -0.5000 
    104 N         -8.5271  -20.0470  -54.0550 N.am      19 UNK        -0.5000 
    105 CA        -8.7993  -19.8564  -55.4819 C.3       19 UNK         0.1400 
    106 CB       -10.2453  -20.2808  -55.7817 C.3       19 UNK        -0.1800 
    107 C         -7.8089  -20.6236  -56.3804 C.2       19 UNK         0.5000 
    108 O         -7.5711  -21.8105  -56.1488 O.2       19 UNK        -0.5000 
    109 N         -7.2438  -19.9104  -57.3644 N.am      20 UNK        -0.5000 
    110 CA        -6.1991  -20.3371  -58.3070 C.3       20 UNK         0.1400 
    111 CB        -6.6486  -21.5591  -59.1360 C.3       20 UNK        -0.1800 
    112 C         -4.8003  -20.5373  -57.6772 C.2       20 UNK         0.5000 
    113 O         -3.8848  -20.9563  -58.3874 O.2       20 UNK        -0.5000 
    114 N         -4.6412  -20.1946  -56.3892 N.am      21 UNK        -0.5000 
    115 CA        -3.4174  -20.2761  -55.5872 C.3       21 UNK         0.1400 
    116 CB        -2.3883  -19.2248  -56.0602 C.3       21 UNK        -0.1800 
    117 C         -2.8477  -21.7085  -55.4821 C.2       21 UNK         0.5000 
    118 O         -3.6130  -22.6745  -55.5076 O.2       21 UNK        -0.5000 
    119 N         -1.5255  -21.8211  -55.3045 N.am      22 UNK        -0.5000 
    120 CA        -0.7864  -23.0893  -55.2130 C.3       22 UNK         0.1400 
    121 C         -0.7938  -23.8790  -56.5513 C.2       22 UNK         0.5000 
    122 N         -0.9967  -25.1888  -56.5086 N.am      22 UNK        -0.7600 
    123 O         -0.5676  -23.3205  -57.6223 O.2       22 UNK        -0.5000 
    124 C124        0.6694  -22.8741  -54.7258 C.3       23 UNK        -0.0398 
    125 S125        0.7622  -22.0106  -53.1191 S.3       23 UNK        -0.2404 
    126 C126        2.0548  -20.7752  -53.4630 C.3       23 UNK        -0.0205 
    127 H127       -4.6103  -12.2108  -49.2556 H         1 UNK         0.0600 
    128 H128       -4.3953  -13.4233  -50.5211 H         1 UNK         0.0600 
    129 H129       -3.6891  -11.8158  -50.7107 H         1 UNK         0.0600 
    130 H130       -2.8423  -14.9403  -50.0346 H         1 UNK         0.3000 
    131 H131       -0.2390  -14.2691  -49.0447 H         1 UNK         0.0600 
    132 H132        0.1610  -16.7499  -49.1538 H         1 UNK         0.0800 
    133 H133       -1.5282  -17.0045  -49.4870 H         1 UNK         0.0800 
    134 H134        1.8458  -15.5192  -50.7207 H         1 UNK         0.0800 
    135 H135        1.7267  -15.7638  -52.4427 H         1 UNK         0.0800 
    136 H136        1.2404  -18.1735  -53.3045 H         1 UNK         0.1150 
    137 H137        3.2731  -21.2120  -51.0634 H         1 UNK         0.1150 
    138 H138        2.6816  -17.3203  -49.3613 H         1 UNK         0.1150 
    139 H139        4.8199  -19.9563  -49.0465 H         1 UNK         0.0800 
    140 H140        3.7872  -18.9497  -48.0622 H         1 UNK         0.0800 
    141 H141        0.9499  -20.3281  -48.6308 H         1 UNK         0.0800 
    142 H142        1.4012  -19.7972  -47.0351 H         1 UNK         0.0800 
    143 H143        0.7262  -22.7287  -47.5696 H         1 UNK         0.0600 
    144 H144        1.3891  -21.3376  -45.2040 H         1 UNK         0.3000 
    145 H145       -0.3351  -23.4834  -42.8814 H         1 UNK         0.0600 
    146 H146        1.9491  -23.4919  -41.9363 H         1 UNK         0.0600 
    147 H147        1.8959  -24.4818  -43.3869 H         1 UNK         0.0600 
    148 H148        2.6141  -22.8776  -43.4479 H         1 UNK         0.0600 
    149 H149        1.1466  -21.1129  -42.4247 H         1 UNK         0.3000 
    150 H150       -1.6010  -18.7977  -42.7389 H         1 UNK         0.0600 
    151 H151       -1.6482  -19.7556  -40.4323 H         1 UNK         0.0600 
    152 H152       -0.7644  -18.2364  -40.4772 H         1 UNK         0.0600 
    153 H153        0.1113  -19.7623  -40.3870 H         1 UNK         0.0600 
    154 H154        1.1263  -18.3231  -42.1586 H         1 UNK         0.3000 
    155 H155        2.2895  -17.9526  -45.5361 H         1 UNK         0.0600 
    156 H156        2.0096  -16.0749  -43.1317 H         1 UNK         0.0600 
    157 H157        1.3249  -15.7869  -44.7153 H         1 UNK         0.0600 
    158 H158        3.0685  -15.8486  -44.5238 H         1 UNK         0.0600 
    159 H159        3.6095  -17.9017  -42.9926 H         1 UNK         0.3000 
    160 H160        4.5816  -21.3241  -42.8901 H         1 UNK         0.0600 
    161 H161        6.1668  -18.7588  -43.4523 H         1 UNK         0.0600 
    162 H162        6.1939  -20.2133  -44.4422 H         1 UNK         0.0600 
    163 H163        6.8188  -20.2629  -42.8014 H         1 UNK         0.0600 
    164 H164        5.1445  -19.0707  -41.2106 H         1 UNK         0.3000 
    165 H165        2.3571  -19.4777  -39.0126 H         1 UNK         0.0600 
    166 H166        4.1994  -19.6495  -37.3729 H         1 UNK         0.0600 
    167 H167        4.0825  -21.1395  -38.2947 H         1 UNK         0.0600 
    168 H168        5.3598  -19.9852  -38.6582 H         1 UNK         0.0600 
    169 H169        4.4982  -17.6469  -38.8976 H         1 UNK         0.3000 
    170 H170        3.8697  -15.4267  -39.0315 H         1 UNK         0.0600 
    171 H171        5.3831  -15.9265  -40.9817 H         1 UNK         0.0600 
    172 H172        4.1269  -15.4115  -42.1016 H         1 UNK         0.0600 
    173 H173        4.8655  -14.2489  -41.0054 H         1 UNK         0.0600 
    174 H174        1.5257  -15.1387  -40.7420 H         1 UNK         0.3000 
    175 H175       -0.0121  -13.5376  -39.5751 H         1 UNK         0.0600 
    176 H176        1.3068  -10.7781  -39.4145 H         1 UNK         0.0600 
    177 H177       -0.4144  -11.1209  -39.2440 H         1 UNK         0.0600 
    178 H178        0.7211  -11.7170  -38.0457 H         1 UNK         0.0600 
    179 H179        0.6804  -11.5877  -41.6150 H         1 UNK         0.3000 
    180 H180       -0.6073  -11.9570  -43.6259 H         1 UNK         0.0600 
    181 H181        1.9536  -13.4690  -44.3942 H         1 UNK         0.0600 
    182 H182        1.8645  -11.8227  -43.7909 H         1 UNK         0.0600 
    183 H183        1.1887  -12.2120  -45.3629 H         1 UNK         0.0600 
    184 H184       -0.2342  -14.3999  -45.1702 H         1 UNK         0.3000 
    185 H185       -2.1427  -16.1271  -45.0063 H         1 UNK         0.0600 
    186 H186       -4.5183  -16.2180  -45.8079 H         1 UNK         0.0600 
    187 H187       -4.4118  -15.6443  -44.1522 H         1 UNK         0.0600 
    188 H188       -4.7029  -14.5033  -45.4610 H         1 UNK         0.0600 
    189 H189       -3.1065  -14.6994  -47.3348 H         1 UNK         0.3000 
    190 H190       -1.0480  -20.0202  -45.9675 H         1 UNK         0.3000 
    191 H191       -3.1868  -19.9349  -47.8131 H         1 UNK         0.0600 
    192 H192       -4.3103  -18.6009  -46.0117 H         1 UNK         0.0600 
    193 H193       -2.6581  -18.0787  -46.3143 H         1 UNK         0.0600 
    194 H194       -3.0303  -19.0516  -44.8903 H         1 UNK         0.0600 
    195 H195       -2.7476  -21.9938  -44.9491 H         1 UNK         0.3000 
    196 H196       -5.4227  -23.0692  -44.9378 H         1 UNK         0.0600 
    197 H197       -2.8061  -24.1725  -43.7857 H         1 UNK         0.0600 
    198 H198       -3.9636  -23.1491  -42.9387 H         1 UNK         0.0600 
    199 H199       -4.4181  -24.7764  -43.4216 H         1 UNK         0.0600 
    200 H200       -2.3646  -24.0134  -46.5290 H         1 UNK         0.3000 
    201 H201       -3.3508  -26.5237  -47.5528 H         1 UNK         0.0600 
    202 H202       -0.9556  -26.1708  -47.0871 H         1 UNK         0.0600 
    203 H203       -0.8731  -24.8739  -48.2751 H         1 UNK         0.0600 
    204 H204       -1.1843  -26.5265  -48.7931 H         1 UNK         0.0600 
    205 H205       -2.6948  -23.3167  -49.0713 H         1 UNK         0.3000 
    206 H206       -4.7694  -23.5331  -51.0249 H         1 UNK         0.0600 
    207 H207       -3.2113  -25.1350  -52.1358 H         1 UNK         0.0600 
    208 H208       -3.2886  -23.6525  -53.0520 H         1 UNK         0.0600 
    209 H209       -1.8892  -23.9823  -52.0216 H         1 UNK         0.0600 
    210 H210       -2.1709  -21.9619  -52.3884 H         1 UNK         0.3000 
    211 H211       -1.4160  -19.9152  -52.6633 H         1 UNK         0.0600 
    212 H212       -0.4529  -18.9116  -50.6417 H         1 UNK         0.0600 
    213 H213       -0.2929  -20.6536  -50.5740 H         1 UNK         0.0600 
    214 H214       -1.5202  -19.8398  -49.6080 H         1 UNK         0.0600 
    215 H215       -3.5706  -19.2280  -49.9081 H         1 UNK         0.3000 
    216 H216       -4.4786  -16.6659  -51.0432 H         1 UNK         0.0600 
    217 H217       -5.2140  -18.1173  -48.4404 H         1 UNK         0.0600 
    218 H218       -5.6753  -16.4749  -48.8707 H         1 UNK         0.0600 
    219 H219       -3.9848  -16.8637  -48.5915 H         1 UNK         0.0600 
    220 H220       -5.4320  -20.0030  -50.9480 H         1 UNK         0.3000 
    221 H221       -8.2346  -19.7822  -51.4737 H         1 UNK         0.0600 
    222 H222       -7.0367  -21.8670  -50.6732 H         1 UNK         0.0600 
    223 H223       -6.2506  -21.9949  -52.2485 H         1 UNK         0.0600 
    224 H224       -7.9941  -22.1657  -52.1154 H         1 UNK         0.0600 
    225 H225       -9.2783  -20.4463  -53.5117 H         1 UNK         0.3000 
    226 H226       -8.7082  -18.7879  -55.6880 H         1 UNK         0.0600 
    227 H227      -10.4099  -21.3350  -55.5548 H         1 UNK         0.0600 
    228 H228      -10.9584  -19.6960  -55.2005 H         1 UNK         0.0600 
    229 H229      -10.4855  -20.1309  -56.8351 H         1 UNK         0.0600 
    230 H230       -7.5094  -18.9386  -57.4488 H         1 UNK         0.3000 
    231 H231       -6.0846  -19.5054  -59.0035 H         1 UNK         0.0600 
    232 H232       -6.6887  -22.4674  -58.5346 H         1 UNK         0.0600 
    233 H233       -5.9571  -21.7479  -59.9578 H         1 UNK         0.0600 
    234 H234       -7.6341  -21.4000  -59.5737 H         1 UNK         0.0600 
    235 H235       -5.4575  -19.8891  -55.8718 H         1 UNK         0.3000 
    236 H236       -3.7219  -20.0116  -54.5755 H         1 UNK         0.0600 
    237 H237       -1.5707  -19.1168  -55.3466 H         1 UNK         0.0600 
    238 H238       -1.9582  -19.4836  -57.0285 H         1 UNK         0.0600 
    239 H239       -2.8513  -18.2423  -56.1534 H         1 UNK         0.0600 
    240 H240       -0.9614  -20.9852  -55.3199 H         1 UNK         0.3000 
    241 H241       -1.2934  -23.7013  -54.4661 H         1 UNK         0.0600 
    242 H242       -0.9866  -25.7130  -57.3700 H         1 UNK         0.3800 
    243 H243       -1.1767  -25.6709  -55.6414 H         1 UNK         0.3800 
    244 H244        1.2386  -22.3200  -55.4743 H         1 UNK         0.0800 
    245 H245        1.1758  -23.8343  -54.6122 H         1 UNK         0.0800 
    246 H246        2.9996  -21.2854  -53.6561 H         1 UNK         0.0800 
    247 H247        1.8040  -20.2317  -54.3752 H         1 UNK         0.0800 
@<TRIPOS>BOND
     1    1    2 1    
     2    1  127 1    
     3    1  128 1    
     4    1  129 1    
     5    2    3 2    
     6    2    4 am   BACKBONE|DICT|INTERRES
     7    4    5 1    
     8    4  130 1    
     9    5    6 1    
    10    5   65 1    
    11    5  131 1    
    12    6    7 1    
    13    6  132 1    
    14    6  133 1    
    15    7    8 1    
    16    8    9 1    
    17    8  134 1    
    18    8  135 1    
    19    9   10 ar   
    20    9   14 ar   
    21   10   11 ar   
    22   10  136 1    
    23   11   12 ar   
    24   11  126 1    
    25   12   13 ar   
    26   12  137 1    
    27   13   14 ar   
    28   13   15 1    
    29   14  138 1    
    30   15   16 1    
    31   15  139 1    
    32   15  140 1    
    33   16   17 1    
    34   17   18 1    
    35   17  141 1    
    36   17  142 1    
    37   18   19 1    
    38   18   67 1    
    39   18  143 1    
    40   19   20 am   BACKBONE|DICT|INTERRES
    41   19  144 1    
    42   20   21 2    
    43   20   22 1    
    44   22   23 1    
    45   22   24 1    
    46   22  145 1    
    47   23  146 1    
    48   23  147 1    
    49   23  148 1    
    50   24   25 am   BACKBONE|DICT|INTERRES
    51   24  149 1    
    52   25   26 2    
    53   25   27 1    
    54   27   28 1    
    55   27   29 1    
    56   27  150 1    
    57   28  151 1    
    58   28  152 1    
    59   28  153 1    
    60   29   30 am   BACKBONE|DICT|INTERRES
    61   29  154 1    
    62   30   31 2    
    63   30   32 1    
    64   32   33 1    
    65   32   34 1    
    66   32  155 1    
    67   33  156 1    
    68   33  157 1    
    69   33  158 1    
    70   34   35 am   BACKBONE|DICT|INTERRES
    71   34  159 1    
    72   35   36 2    
    73   35   37 1    
    74   37   38 1    
    75   37   39 1    
    76   37  160 1    
    77   38  161 1    
    78   38  162 1    
    79   38  163 1    
    80   39   40 am   BACKBONE|DICT|INTERRES
    81   39  164 1    
    82   40   41 2    
    83   40   42 1    
    84   42   43 1    
    85   42   44 1    
    86   42  165 1    
    87   43  166 1    
    88   43  167 1    
    89   43  168 1    
    90   44   45 am   BACKBONE|DICT|INTERRES
    91   44  169 1    
    92   45   46 2    
    93   45   47 1    
    94   47   48 1    
    95   47   49 1    
    96   47  170 1    
    97   48  171 1    
    98   48  172 1    
    99   48  173 1    
   100   49   50 am   BACKBONE|DICT|INTERRES
   101   49  174 1    
   102   50   51 2    
   103   50   52 1    
   104   52   53 1    
   105   52   54 1    
   106   52  175 1    
   107   53  176 1    
   108   53  177 1    
   109   53  178 1    
   110   54   55 am   BACKBONE|DICT|INTERRES
   111   54  179 1    
   112   55   56 2    
   113   55   57 1    
   114   57   58 1    
   115   57   59 1    
   116   57  180 1    
   117   58  181 1    
   118   58  182 1    
   119   58  183 1    
   120   59   60 am   BACKBONE|DICT|INTERRES
   121   59  184 1    
   122   60   61 2    
   123   60   62 1    
   124   62   63 1    
   125   62   64 1    
   126   62  185 1    
   127   63  186 1    
   128   63  187 1    
   129   63  188 1    
   130   64   65 am   BACKBONE|DICT|INTERRES
   131   64  189 1    
   132   65   66 2    
   133   67   68 2    
   134   67   69 am   BACKBONE|DICT|INTERRES
   135   69   70 1    
   136   69  190 1    
   137   70   71 1    
   138   70   72 1    
   139   70  191 1    
   140   71  192 1    
   141   71  193 1    
   142   71  194 1    
   143   72   73 2    
   144   72   74 am   BACKBONE|DICT|INTERRES
   145   74   75 1    
   146   74  195 1    
   147   75   76 1    
   148   75   77 1    
   149   75  196 1    
   150   76  197 1    
   151   76  198 1    
   152   76  199 1    
   153   77   78 2    
   154   77   79 am   BACKBONE|DICT|INTERRES
   155   79   80 1    
   156   79  200 1    
   157   80   81 1    
   158   80   82 1    
   159   80  201 1    
   160   81  202 1    
   161   81  203 1    
   162   81  204 1    
   163   82   83 2    
   164   82   84 am   BACKBONE|DICT|INTERRES
   165   84   85 1    
   166   84  205 1    
   167   85   86 1    
   168   85   87 1    
   169   85  206 1    
   170   86  207 1    
   171   86  208 1    
   172   86  209 1    
   173   87   88 2    
   174   87   89 am   BACKBONE|DICT|INTERRES
   175   89   90 1    
   176   89  210 1    
   177   90   91 1    
   178   90   92 1    
   179   90  211 1    
   180   91  212 1    
   181   91  213 1    
   182   91  214 1    
   183   92   93 2    
   184   92   94 am   BACKBONE|DICT|INTERRES
   185   94   95 1    
   186   94  215 1    
   187   95   96 1    
   188   95   97 1    
   189   95  216 1    
   190   96  217 1    
   191   96  218 1    
   192   96  219 1    
   193   97   98 2    
   194   97   99 am   BACKBONE|DICT|INTERRES
   195   99  100 1    
   196   99  220 1    
   197  100  101 1    
   198  100  102 1    
   199  100  221 1    
   200  101  222 1    
   201  101  223 1    
   202  101  224 1    
   203  102  103 2    
   204  102  104 am   BACKBONE|DICT|INTERRES
   205  104  105 1    
   206  104  225 1    
   207  105  106 1    
   208  105  107 1    
   209  105  226 1    
   210  106  227 1    
   211  106  228 1    
   212  106  229 1    
   213  107  108 2    
   214  107  109 am   BACKBONE|DICT|INTERRES
   215  109  110 1    
   216  109  230 1    
   217  110  111 1    
   218  110  112 1    
   219  110  231 1    
   220  111  232 1    
   221  111  233 1    
   222  111  234 1    
   223  112  113 2    
   224  112  114 am   BACKBONE|DICT|INTERRES
   225  114  115 1    
   226  114  235 1    
   227  115  116 1    
   228  115  117 1    
   229  115  236 1    
   230  116  237 1    
   231  116  238 1    
   232  116  239 1    
   233  117  118 2    
   234  117  119 am   BACKBONE|DICT|INTERRES
   235  119  120 1    
   236  119  240 1    
   237  120  121 1    
   238  120  124 1    
   239  120  241 1    
   240  121  122 am   BACKBONE|DICT|INTERRES
   241  121  123 2    
   242  122  242 1    
   243  122  243 1    
   244  124  125 1    
   245  124  244 1    
   246  124  245 1    
   247  125  126 1    
   248  126  246 1    
   249  126  247 1    
@<TRIPOS>SUBSTRUCTURE
     1 UNK         1 GROUP             0       ****    0 ROOT    
