@<TRIPOS>MOLECULE
3R540
247   249    1
SMALL
USER_CHARGES


@<TRIPOS>ATOM
      1 CA          5.6108  -16.6002  -48.1968 C.3       0 UNK        -0.1800 
      2 C           4.2835  -16.7045  -47.4598 C.2       0 UNK         0.5000 
      3 O           4.0739  -17.6650  -46.7220 O.2       0 UNK        -0.5000 
      4 N           3.4031  -15.7150  -47.6605 N.am      1 UNK        -0.5000 
      5 CA          2.0530  -15.6119  -47.0900 C.3       1 UNK         0.1400 
      6 C6          1.2951  -14.3359  -47.5391 C.3       23 UNK        -0.0398 
      7 S7          1.3180  -14.0599  -49.3421 S.3       23 UNK        -0.2404 
      8 C8         -0.3767  -14.5384  -49.8250 C.3       23 UNK        -0.0205 
      9 C9         -0.6871  -16.0158  -49.6029 C.ar      23 UNK        -0.0193 
     10 C10        -1.9169  -16.3966  -49.0517 C.ar      23 UNK        -0.1150 
     11 C11        -2.2283  -17.7484  -48.8720 C.ar      23 UNK        -0.0193 
     12 C12        -1.2920  -18.7168  -49.2390 C.ar      23 UNK        -0.1150 
     13 C13        -0.0612  -18.3556  -49.7873 C.ar      23 UNK        -0.0193 
     14 C14         0.2300  -17.0044  -49.9801 C.ar      23 UNK        -0.1150 
     15 C15         0.9327  -19.4290  -50.2030 C.3       23 UNK        -0.0205 
     16 S16         2.3325  -19.6034  -49.0532 S.3       23 UNK        -0.2404 
     17 C17         1.5401  -20.0173  -47.4610 C.3       23 UNK        -0.0398 
     18 CA          1.1737  -21.5220  -47.3239 C.3       11 UNK         0.1400 
     19 N           1.5659  -22.0744  -46.0240 N.am      11 UNK        -0.5000 
     20 C           1.5363  -23.3783  -45.7111 C.2       10 UNK         0.5000 
     21 O           1.2204  -24.2663  -46.5040 O.2       10 UNK        -0.5000 
     22 CA          1.8578  -23.7374  -44.2486 C.3       10 UNK         0.1400 
     23 CB          3.3715  -23.9039  -44.0524 C.3       10 UNK        -0.1800 
     24 N           1.3528  -22.7481  -43.2923 N.am      10 UNK        -0.5000 
     25 C           0.0638  -22.4449  -43.0968 C.2       9 UNK         0.5000 
     26 O          -0.8521  -22.9726  -43.7263 O.2       9 UNK        -0.5000 
     27 CA         -0.2655  -21.3471  -42.0655 C.3       9 UNK         0.1400 
     28 CB         -0.2147  -21.8980  -40.6286 C.3       9 UNK        -0.1800 
     29 N           0.5294  -20.1179  -42.2026 N.am      9 UNK        -0.5000 
     30 C           1.8462  -19.9335  -42.0140 C.2       8 UNK         0.5000 
     31 O           2.6203  -20.8324  -41.6823 O.2       8 UNK        -0.5000 
     32 CA          2.4142  -18.5234  -42.2713 C.3       8 UNK         0.1400 
     33 CB          3.2746  -18.5260  -43.5437 C.3       8 UNK        -0.1800 
     34 N           1.3819  -17.4889  -42.3861 N.am      8 UNK        -0.5000 
     35 C           0.7483  -16.9410  -41.3394 C.2       7 UNK         0.5000 
     36 O           1.0117  -17.2159  -40.1681 O.2       7 UNK        -0.5000 
     37 CA         -0.3819  -15.9351  -41.6357 C.3       7 UNK         0.1400 
     38 CB          0.1347  -14.4941  -41.5507 C.3       7 UNK        -0.1800 
     39 N          -1.0493  -16.1214  -42.9257 N.am      7 UNK        -0.5000 
     40 C          -1.7743  -17.1938  -43.2702 C.2       6 UNK         0.5000 
     41 O          -1.8498  -18.2041  -42.5693 O.2       6 UNK        -0.5000 
     42 CA         -2.5218  -17.1692  -44.6212 C.3       6 UNK         0.1400 
     43 CB         -4.0037  -17.5743  -44.4500 C.3       6 UNK        -0.1800 
     44 N          -2.4086  -15.9222  -45.3893 N.am      6 UNK        -0.5000 
     45 C          -2.9240  -14.7216  -45.0892 C.2       5 UNK         0.5000 
     46 O          -3.5598  -14.4680  -44.0645 O.2       5 UNK        -0.5000 
     47 CA         -2.6809  -13.6070  -46.1232 C.3       5 UNK         0.1400 
     48 CB         -3.9805  -13.2556  -46.8626 C.3       5 UNK        -0.1800 
     49 N          -2.1253  -12.3988  -45.5131 N.am      5 UNK        -0.5000 
     50 C          -0.9480  -12.3424  -44.8794 C.2       4 UNK         0.5000 
     51 O          -0.1962  -13.3126  -44.7484 O.2       4 UNK        -0.5000 
     52 CA         -0.5414  -10.9771  -44.3061 C.3       4 UNK         0.1400 
     53 CB         -1.2028  -10.7228  -42.9424 C.3       4 UNK        -0.1800 
     54 N           0.9066  -10.9665  -44.1503 N.am      4 UNK        -0.5000 
     55 C           1.7363   -9.9634  -44.4446 C.2       3 UNK         0.5000 
     56 O           1.3540   -8.8405  -44.7761 O.2       3 UNK        -0.5000 
     57 CA          3.2509  -10.2653  -44.4113 C.3       3 UNK         0.1400 
     58 CB          3.8589   -9.9317  -43.0350 C.3       3 UNK        -0.1800 
     59 N           3.6126  -11.6225  -44.8587 N.am      3 UNK        -0.5000 
     60 C           3.3793  -12.7940  -44.2507 C.2       2 UNK         0.5000 
     61 O           2.8519  -12.9025  -43.1428 O.2       2 UNK        -0.5000 
     62 CA          3.7818  -14.0583  -45.0210 C.3       2 UNK         0.1400 
     63 CB          5.1715  -14.5330  -44.5678 C.3       2 UNK        -0.1800 
     64 N           2.8033  -15.1059  -44.7278 N.am      2 UNK        -0.5000 
     65 C           1.9693  -15.7644  -45.5504 C.2       1 UNK         0.5000 
     66 O           1.1126  -16.5226  -45.0962 O.2       1 UNK        -0.5000 
     67 C          -0.3257  -21.7600  -47.5962 C.2       11 UNK         0.5000 
     68 O          -0.6914  -22.1304  -48.7108 O.2       11 UNK        -0.5000 
     69 N          -1.1606  -21.5684  -46.5635 N.am      12 UNK        -0.5000 
     70 CA         -2.6109  -21.7563  -46.6141 C.3       12 UNK         0.1400 
     71 CB         -3.2570  -21.0726  -45.4039 C.3       12 UNK        -0.1800 
     72 C          -3.0209  -23.2351  -46.6782 C.2       12 UNK         0.5000 
     73 O          -4.0141  -23.5517  -47.3303 O.2       12 UNK        -0.5000 
     74 N          -2.2347  -24.1140  -46.0408 N.am      13 UNK        -0.5000 
     75 CA         -2.3837  -25.5689  -46.1142 C.3       13 UNK         0.1400 
     76 CB         -1.4547  -26.2345  -45.0878 C.3       13 UNK        -0.1800 
     77 C          -2.1216  -26.1107  -47.5329 C.2       13 UNK         0.5000 
     78 O          -2.8419  -27.0002  -47.9872 O.2       13 UNK        -0.5000 
     79 N          -1.1264  -25.5326  -48.2209 N.am      14 UNK        -0.5000 
     80 CA         -0.8587  -25.7667  -49.6421 C.3       14 UNK         0.1400 
     81 CB          0.5853  -25.3403  -49.9493 C.3       14 UNK        -0.1800 
     82 C          -1.8399  -25.0155  -50.5659 C.2       14 UNK         0.5000 
     83 O          -1.9817  -25.3854  -51.7318 O.2       14 UNK        -0.5000 
     84 N          -2.4558  -23.9449  -50.0452 N.am      15 UNK        -0.5000 
     85 CA         -3.3610  -22.9984  -50.7052 C.3       15 UNK         0.1400 
     86 CB         -4.6941  -23.6889  -51.0474 C.3       15 UNK        -0.1800 
     87 C          -2.7116  -22.2827  -51.9090 C.2       15 UNK         0.5000 
     88 O          -3.3941  -21.9750  -52.8890 O.2       15 UNK        -0.5000 
     89 N          -1.3875  -22.0774  -51.8223 N.am      16 UNK        -0.5000 
     90 CA         -0.4844  -21.6233  -52.8883 C.3       16 UNK         0.1400 
     91 CB         -0.7798  -20.1598  -53.2734 C.3       16 UNK        -0.1800 
     92 C          -0.5005  -22.5699  -54.1091 C.2       16 UNK         0.5000 
     93 O          -0.5720  -22.1079  -55.2471 O.2       16 UNK        -0.5000 
     94 N          -0.4893  -23.8853  -53.8431 N.am      17 UNK        -0.5000 
     95 CA         -0.6894  -24.9794  -54.8037 C.3       17 UNK         0.1400 
     96 CB          0.4593  -25.0444  -55.8324 C.3       17 UNK        -0.1800 
     97 C          -2.0914  -24.9167  -55.4479 C.2       17 UNK         0.5000 
     98 O          -2.2341  -25.0821  -56.6601 O.2       17 UNK        -0.5000 
     99 N          -3.0924  -24.6348  -54.6012 N.am      18 UNK        -0.5000 
    100 CA        -4.5133  -24.4192  -54.9002 C.3       18 UNK         0.1400 
    101 CB        -5.1467  -25.6870  -55.5089 C.3       18 UNK        -0.1800 
    102 C         -4.8289  -23.1534  -55.7293 C.2       18 UNK         0.5000 
    103 O         -5.9865  -22.9660  -56.1071 O.2       18 UNK        -0.5000 
    104 N         -3.8329  -22.2944  -55.9893 N.am      19 UNK        -0.5000 
    105 CA        -3.9942  -21.0709  -56.7758 C.3       19 UNK         0.1400 
    106 CB        -2.6312  -20.6337  -57.3321 C.3       19 UNK        -0.1800 
    107 C         -4.6377  -19.9206  -55.9810 C.2       19 UNK         0.5000 
    108 O         -5.3583  -19.1163  -56.5738 O.2       19 UNK        -0.5000 
    109 N         -4.3641  -19.8472  -54.6709 N.am      20 UNK        -0.5000 
    110 CA        -4.8660  -18.7880  -53.7912 C.3       20 UNK         0.1400 
    111 CB        -3.7853  -18.4208  -52.7625 C.3       20 UNK        -0.1800 
    112 C         -6.1698  -19.1850  -53.0811 C.2       20 UNK         0.5000 
    113 O         -6.9159  -18.2978  -52.6639 O.2       20 UNK        -0.5000 
    114 N         -6.4147  -20.4973  -52.9424 N.am      21 UNK        -0.5000 
    115 CA        -7.5408  -21.1608  -52.2668 C.3       21 UNK         0.1400 
    116 CB        -8.8945  -20.7699  -52.8900 C.3       21 UNK        -0.1800 
    117 C         -7.5470  -20.9753  -50.7347 C.2       21 UNK         0.5000 
    118 O         -7.6560  -21.9641  -50.0101 O.2       21 UNK        -0.5000 
    119 N         -7.3993  -19.7264  -50.2774 N.am      22 UNK        -0.5000 
    120 CA        -7.2033  -19.3041  -48.8779 C.3       22 UNK         0.1400 
    121 C         -8.4228  -19.5403  -47.9343 C.2       22 UNK         0.5000 
    122 N         -9.6232  -19.7718  -48.4512 N.am      22 UNK        -0.7600 
    123 O         -8.2919  -19.4789  -46.7148 O.2       22 UNK        -0.5000 
    124 C124       -5.8681  -19.8266  -48.2741 C.3       23 UNK        -0.0398 
    125 S125       -4.4231  -19.3991  -49.3060 S.3       23 UNK        -0.2404 
    126 C126       -3.5621  -18.1728  -48.2697 C.3       23 UNK        -0.0205 
    127 H127        5.7445  -17.4638  -48.8484 H         1 UNK         0.0600 
    128 H128        5.6668  -15.6998  -48.8090 H         1 UNK         0.0600 
    129 H129        6.4346  -16.5786  -47.4833 H         1 UNK         0.0600 
    130 H130        3.6432  -14.9780  -48.3076 H         1 UNK         0.3000 
    131 H131        1.5096  -16.4653  -47.4999 H         1 UNK         0.0600 
    132 H132        0.2594  -14.3862  -47.2058 H         1 UNK         0.0800 
    133 H133        1.7122  -13.4456  -47.0674 H         1 UNK         0.0800 
    134 H134       -0.5097  -14.3175  -50.8847 H         1 UNK         0.0800 
    135 H135       -1.0865  -13.9063  -49.2896 H         1 UNK         0.0800 
    136 H136       -2.6395  -15.6411  -48.7777 H         1 UNK         0.1150 
    137 H137       -1.5397  -19.7588  -49.1157 H         1 UNK         0.1150 
    138 H138        1.1767  -16.7244  -50.4202 H         1 UNK         0.1150 
    139 H139        0.4362  -20.3924  -50.3063 H         1 UNK         0.0800 
    140 H140        1.3263  -19.1869  -51.1910 H         1 UNK         0.0800 
    141 H141        2.2734  -19.7438  -46.7015 H         1 UNK         0.0800 
    142 H142        0.6953  -19.3520  -47.2745 H         1 UNK         0.0800 
    143 H143        1.7272  -22.0895  -48.0755 H         1 UNK         0.0600 
    144 H144        1.8423  -21.4191  -45.3086 H         1 UNK         0.3000 
    145 H145        1.3755  -24.6918  -44.0283 H         1 UNK         0.0600 
    146 H146        3.6024  -24.2401  -43.0414 H         1 UNK         0.0600 
    147 H147        3.7761  -24.6462  -44.7418 H         1 UNK         0.0600 
    148 H148        3.9055  -22.9684  -44.2241 H         1 UNK         0.0600 
    149 H149        2.0372  -22.2484  -42.7292 H         1 UNK         0.3000 
    150 H150       -1.2965  -21.0450  -42.2571 H         1 UNK         0.0600 
    151 H151       -0.8931  -22.7444  -40.5140 H         1 UNK         0.0600 
    152 H152       -0.5169  -21.1394  -39.9065 H         1 UNK         0.0600 
    153 H153        0.7827  -22.2429  -40.3551 H         1 UNK         0.0600 
    154 H154       -0.0171  -19.3019  -42.4544 H         1 UNK         0.3000 
    155 H155        3.0649  -18.2795  -41.4289 H         1 UNK         0.0600 
    156 H156        4.0542  -19.2872  -43.4937 H         1 UNK         0.0600 
    157 H157        3.7748  -17.5683  -43.6850 H         1 UNK         0.0600 
    158 H158        2.6775  -18.7276  -44.4332 H         1 UNK         0.0600 
    159 H159        1.1206  -17.2011  -43.3268 H         1 UNK         0.3000 
    160 H160       -1.1360  -16.0671  -40.8571 H         1 UNK         0.0600 
    161 H161        0.8321  -14.2790  -42.3585 H         1 UNK         0.0600 
    162 H162       -0.6858  -13.7804  -41.6184 H         1 UNK         0.0600 
    163 H163        0.6514  -14.3104  -40.6079 H         1 UNK         0.0600 
    164 H164       -0.9833  -15.3552  -43.5828 H         1 UNK         0.3000 
    165 H165       -2.0327  -17.9266  -45.2339 H         1 UNK         0.0600 
    166 H166       -4.0980  -18.5551  -43.9837 H         1 UNK         0.0600 
    167 H167       -4.5451  -16.8749  -43.8133 H         1 UNK         0.0600 
    168 H168       -4.5207  -17.6187  -45.4078 H         1 UNK         0.0600 
    169 H169       -1.8556  -16.0017  -46.2303 H         1 UNK         0.3000 
    170 H170       -1.9646  -13.9626  -46.8642 H         1 UNK         0.0600 
    171 H171       -4.4091  -14.1380  -47.3398 H         1 UNK         0.0600 
    172 H172       -4.7330  -12.8518  -46.1840 H         1 UNK         0.0600 
    173 H173       -3.8028  -12.5181  -47.6456 H         1 UNK         0.0600 
    174 H174       -2.7024  -11.5714  -45.5520 H         1 UNK         0.3000 
    175 H175       -0.8495  -10.2039  -45.0130 H         1 UNK         0.0600 
    176 H176       -0.9004  -11.4660  -42.2045 H         1 UNK         0.0600 
    177 H177       -0.9340   -9.7403  -42.5542 H         1 UNK         0.0600 
    178 H178       -2.2902  -10.7565  -43.0190 H         1 UNK         0.0600 
    179 H179        1.3104  -11.8628  -43.8930 H         1 UNK         0.3000 
    180 H180        3.7113   -9.5921  -45.1363 H         1 UNK         0.0600 
    181 H181        3.7059   -8.8799  -42.7905 H         1 UNK         0.0600 
    182 H182        3.4074  -10.5167  -42.2335 H         1 UNK         0.0600 
    183 H183        4.9331  -10.1154  -43.0225 H         1 UNK         0.0600 
    184 H184        4.0467  -11.6494  -45.7710 H         1 UNK         0.3000 
    185 H185        3.8174  -13.8083  -46.0787 H         1 UNK         0.0600 
    186 H186        5.9314  -13.7807  -44.7825 H         1 UNK         0.0600 
    187 H187        5.1989  -14.7316  -43.4954 H         1 UNK         0.0600 
    188 H188        5.4666  -15.4484  -45.0792 H         1 UNK         0.0600 
    189 H189        2.6447  -15.2117  -43.7370 H         1 UNK         0.3000 
    190 H190       -0.7722  -21.3313  -45.6633 H         1 UNK         0.3000 
    191 H191       -2.9806  -21.2703  -47.5182 H         1 UNK         0.0600 
    192 H192       -4.3443  -21.0725  -45.4899 H         1 UNK         0.0600 
    193 H193       -2.9329  -20.0389  -45.3306 H         1 UNK         0.0600 
    194 H194       -3.0011  -21.5688  -44.4675 H         1 UNK         0.0600 
    195 H195       -1.4941  -23.7574  -45.4457 H         1 UNK         0.3000 
    196 H196       -3.4143  -25.8129  -45.8482 H         1 UNK         0.0600 
    197 H197       -1.5978  -27.3156  -45.0781 H         1 UNK         0.0600 
    198 H198       -1.6542  -25.8699  -44.0798 H         1 UNK         0.0600 
    199 H199       -0.4046  -26.0460  -45.3099 H         1 UNK         0.0600 
    200 H200       -0.5398  -24.8534  -47.7502 H         1 UNK         0.3000 
    201 H201       -0.9546  -26.8340  -49.8516 H         1 UNK         0.0600 
    202 H202        1.2971  -25.8960  -49.3386 H         1 UNK         0.0600 
    203 H203        0.7424  -24.2780  -49.7584 H         1 UNK         0.0600 
    204 H204        0.8369  -25.5289  -50.9938 H         1 UNK         0.0600 
    205 H205       -2.2027  -23.6944  -49.0992 H         1 UNK         0.3000 
    206 H206       -3.5734  -22.2161  -49.9764 H         1 UNK         0.0600 
    207 H207       -5.1940  -24.0317  -50.1413 H         1 UNK         0.0600 
    208 H208       -5.3761  -23.0061  -51.5494 H         1 UNK         0.0600 
    209 H209       -4.5531  -24.5537  -51.6941 H         1 UNK         0.0600 
    210 H210       -0.9480  -22.3283  -50.9443 H         1 UNK         0.3000 
    211 H211        0.5249  -21.6637  -52.4769 H         1 UNK         0.0600 
    212 H212       -1.6893  -20.0773  -53.8662 H         1 UNK         0.0600 
    213 H213        0.0321  -19.7448  -53.8711 H         1 UNK         0.0600 
    214 H214       -0.8981  -19.5266  -52.3954 H         1 UNK         0.0600 
    215 H215       -0.5039  -24.1707  -52.8732 H         1 UNK         0.3000 
    216 H216       -0.6621  -25.9040  -54.2252 H         1 UNK         0.0600 
    217 H217        1.4296  -25.0822  -55.3373 H         1 UNK         0.0600 
    218 H218        0.4578  -24.1854  -56.5036 H         1 UNK         0.0600 
    219 H219        0.3756  -25.9388  -56.4507 H         1 UNK         0.0600 
    220 H220       -2.8426  -24.5340  -53.6247 H         1 UNK         0.3000 
    221 H221       -4.9949  -24.2523  -53.9376 H         1 UNK         0.0600 
    222 H222       -4.7763  -25.8835  -56.5152 H         1 UNK         0.0600 
    223 H223       -4.9392  -26.5644  -54.8963 H         1 UNK         0.0600 
    224 H224       -6.2309  -25.5905  -55.5758 H         1 UNK         0.0600 
    225 H225       -2.9072  -22.4925  -55.6332 H         1 UNK         0.3000 
    226 H226       -4.6425  -21.2919  -57.6266 H         1 UNK         0.0600 
    227 H227       -2.1408  -21.4463  -57.8685 H         1 UNK         0.0600 
    228 H228       -2.7458  -19.8037  -58.0302 H         1 UNK         0.0600 
    229 H229       -1.9609  -20.2998  -56.5398 H         1 UNK         0.0600 
    230 H230       -3.8069  -20.5769  -54.2362 H         1 UNK         0.3000 
    231 H231       -5.0780  -17.8895  -54.3746 H         1 UNK         0.0600 
    232 H232       -3.4799  -19.2838  -52.1712 H         1 UNK         0.0600 
    233 H233       -2.8994  -18.0150  -53.2503 H         1 UNK         0.0600 
    234 H234       -4.1443  -17.6611  -52.0667 H         1 UNK         0.0600 
    235 H235       -5.7005  -21.1213  -53.2919 H         1 UNK         0.3000 
    236 H236       -7.4055  -22.2269  -52.4539 H         1 UNK         0.0600 
    237 H237       -8.8986  -20.9507  -53.9649 H         1 UNK         0.0600 
    238 H238       -9.7034  -21.3604  -52.4581 H         1 UNK         0.0600 
    239 H239       -9.1377  -19.7201  -52.7257 H         1 UNK         0.0600 
    240 H240       -7.3110  -18.9939  -50.9769 H         1 UNK         0.3000 
    241 H241       -7.1174  -18.2182  -48.9266 H         1 UNK         0.0600 
    242 H242      -10.4106  -19.9129  -47.8379 H         1 UNK         0.3800 
    243 H243       -9.7480  -19.8189  -49.4498 H         1 UNK         0.3800 
    244 H244       -5.8986  -20.9117  -48.1627 H         1 UNK         0.0800 
    245 H245       -5.7163  -19.4264  -47.2705 H         1 UNK         0.0800 
    246 H246       -3.3726  -18.6067  -47.2891 H         1 UNK         0.0800 
    247 H247       -4.2145  -17.3114  -48.1186 H         1 UNK         0.0800 
@<TRIPOS>BOND
     1    1    2 1    
     2    1  127 1    
     3    1  128 1    
     4    1  129 1    
     5    2    3 2    
     6    2    4 am   BACKBONE|DICT|INTERRES
     7    4    5 1    
     8    4  130 1    
     9    5    6 1    
    10    5   65 1    
    11    5  131 1    
    12    6    7 1    
    13    6  132 1    
    14    6  133 1    
    15    7    8 1    
    16    8    9 1    
    17    8  134 1    
    18    8  135 1    
    19    9   10 ar   
    20    9   14 ar   
    21   10   11 ar   
    22   10  136 1    
    23   11   12 ar   
    24   11  126 1    
    25   12   13 ar   
    26   12  137 1    
    27   13   14 ar   
    28   13   15 1    
    29   14  138 1    
    30   15   16 1    
    31   15  139 1    
    32   15  140 1    
    33   16   17 1    
    34   17   18 1    
    35   17  141 1    
    36   17  142 1    
    37   18   19 1    
    38   18   67 1    
    39   18  143 1    
    40   19   20 am   BACKBONE|DICT|INTERRES
    41   19  144 1    
    42   20   21 2    
    43   20   22 1    
    44   22   23 1    
    45   22   24 1    
    46   22  145 1    
    47   23  146 1    
    48   23  147 1    
    49   23  148 1    
    50   24   25 am   BACKBONE|DICT|INTERRES
    51   24  149 1    
    52   25   26 2    
    53   25   27 1    
    54   27   28 1    
    55   27   29 1    
    56   27  150 1    
    57   28  151 1    
    58   28  152 1    
    59   28  153 1    
    60   29   30 am   BACKBONE|DICT|INTERRES
    61   29  154 1    
    62   30   31 2    
    63   30   32 1    
    64   32   33 1    
    65   32   34 1    
    66   32  155 1    
    67   33  156 1    
    68   33  157 1    
    69   33  158 1    
    70   34   35 am   BACKBONE|DICT|INTERRES
    71   34  159 1    
    72   35   36 2    
    73   35   37 1    
    74   37   38 1    
    75   37   39 1    
    76   37  160 1    
    77   38  161 1    
    78   38  162 1    
    79   38  163 1    
    80   39   40 am   BACKBONE|DICT|INTERRES
    81   39  164 1    
    82   40   41 2    
    83   40   42 1    
    84   42   43 1    
    85   42   44 1    
    86   42  165 1    
    87   43  166 1    
    88   43  167 1    
    89   43  168 1    
    90   44   45 am   BACKBONE|DICT|INTERRES
    91   44  169 1    
    92   45   46 2    
    93   45   47 1    
    94   47   48 1    
    95   47   49 1    
    96   47  170 1    
    97   48  171 1    
    98   48  172 1    
    99   48  173 1    
   100   49   50 am   BACKBONE|DICT|INTERRES
   101   49  174 1    
   102   50   51 2    
   103   50   52 1    
   104   52   53 1    
   105   52   54 1    
   106   52  175 1    
   107   53  176 1    
   108   53  177 1    
   109   53  178 1    
   110   54   55 am   BACKBONE|DICT|INTERRES
   111   54  179 1    
   112   55   56 2    
   113   55   57 1    
   114   57   58 1    
   115   57   59 1    
   116   57  180 1    
   117   58  181 1    
   118   58  182 1    
   119   58  183 1    
   120   59   60 am   BACKBONE|DICT|INTERRES
   121   59  184 1    
   122   60   61 2    
   123   60   62 1    
   124   62   63 1    
   125   62   64 1    
   126   62  185 1    
   127   63  186 1    
   128   63  187 1    
   129   63  188 1    
   130   64   65 am   BACKBONE|DICT|INTERRES
   131   64  189 1    
   132   65   66 2    
   133   67   68 2    
   134   67   69 am   BACKBONE|DICT|INTERRES
   135   69   70 1    
   136   69  190 1    
   137   70   71 1    
   138   70   72 1    
   139   70  191 1    
   140   71  192 1    
   141   71  193 1    
   142   71  194 1    
   143   72   73 2    
   144   72   74 am   BACKBONE|DICT|INTERRES
   145   74   75 1    
   146   74  195 1    
   147   75   76 1    
   148   75   77 1    
   149   75  196 1    
   150   76  197 1    
   151   76  198 1    
   152   76  199 1    
   153   77   78 2    
   154   77   79 am   BACKBONE|DICT|INTERRES
   155   79   80 1    
   156   79  200 1    
   157   80   81 1    
   158   80   82 1    
   159   80  201 1    
   160   81  202 1    
   161   81  203 1    
   162   81  204 1    
   163   82   83 2    
   164   82   84 am   BACKBONE|DICT|INTERRES
   165   84   85 1    
   166   84  205 1    
   167   85   86 1    
   168   85   87 1    
   169   85  206 1    
   170   86  207 1    
   171   86  208 1    
   172   86  209 1    
   173   87   88 2    
   174   87   89 am   BACKBONE|DICT|INTERRES
   175   89   90 1    
   176   89  210 1    
   177   90   91 1    
   178   90   92 1    
   179   90  211 1    
   180   91  212 1    
   181   91  213 1    
   182   91  214 1    
   183   92   93 2    
   184   92   94 am   BACKBONE|DICT|INTERRES
   185   94   95 1    
   186   94  215 1    
   187   95   96 1    
   188   95   97 1    
   189   95  216 1    
   190   96  217 1    
   191   96  218 1    
   192   96  219 1    
   193   97   98 2    
   194   97   99 am   BACKBONE|DICT|INTERRES
   195   99  100 1    
   196   99  220 1    
   197  100  101 1    
   198  100  102 1    
   199  100  221 1    
   200  101  222 1    
   201  101  223 1    
   202  101  224 1    
   203  102  103 2    
   204  102  104 am   BACKBONE|DICT|INTERRES
   205  104  105 1    
   206  104  225 1    
   207  105  106 1    
   208  105  107 1    
   209  105  226 1    
   210  106  227 1    
   211  106  228 1    
   212  106  229 1    
   213  107  108 2    
   214  107  109 am   BACKBONE|DICT|INTERRES
   215  109  110 1    
   216  109  230 1    
   217  110  111 1    
   218  110  112 1    
   219  110  231 1    
   220  111  232 1    
   221  111  233 1    
   222  111  234 1    
   223  112  113 2    
   224  112  114 am   BACKBONE|DICT|INTERRES
   225  114  115 1    
   226  114  235 1    
   227  115  116 1    
   228  115  117 1    
   229  115  236 1    
   230  116  237 1    
   231  116  238 1    
   232  116  239 1    
   233  117  118 2    
   234  117  119 am   BACKBONE|DICT|INTERRES
   235  119  120 1    
   236  119  240 1    
   237  120  121 1    
   238  120  124 1    
   239  120  241 1    
   240  121  122 am   BACKBONE|DICT|INTERRES
   241  121  123 2    
   242  122  242 1    
   243  122  243 1    
   244  124  125 1    
   245  124  244 1    
   246  124  245 1    
   247  125  126 1    
   248  126  246 1    
   249  126  247 1    
@<TRIPOS>SUBSTRUCTURE
     1 UNK         1 GROUP             0       ****    0 ROOT    
