@<TRIPOS>MOLECULE
3R540
247   249    1
SMALL
USER_CHARGES


@<TRIPOS>ATOM
      1 CA         -2.4639  -19.6969  -47.4997 C.3       0 UNK        -0.1800 
      2 C          -3.3448  -18.4942  -47.8051 C.2       0 UNK         0.5000 
      3 O          -4.5619  -18.6320  -47.9121 O.2       0 UNK        -0.5000 
      4 N          -2.7251  -17.3174  -47.9387 N.am      1 UNK        -0.5000 
      5 CA         -3.3774  -16.0267  -48.1958 C.3       1 UNK         0.1400 
      6 C6         -2.4661  -15.0808  -49.0221 C.3       23 UNK        -0.0398 
      7 S7         -0.7396  -14.9935  -48.4138 S.3       23 UNK        -0.2404 
      8 C8          0.2072  -15.5652  -49.8644 C.3       23 UNK        -0.0205 
      9 C9          0.2381  -17.0832  -50.0121 C.ar      23 UNK        -0.0193 
     10 C10        -0.8249  -17.7610  -50.6208 C.ar      23 UNK        -0.1150 
     11 C11        -0.7739  -19.1441  -50.8048 C.ar      23 UNK        -0.0193 
     12 C12         0.3638  -19.8467  -50.4118 C.ar      23 UNK        -0.1150 
     13 C13         1.4290  -19.1920  -49.7895 C.ar      23 UNK        -0.0193 
     14 C14         1.3570  -17.8096  -49.5845 C.ar      23 UNK        -0.1150 
     15 C15         2.6607  -19.9857  -49.3696 C.3       23 UNK        -0.0205 
     16 S16         2.6187  -20.4873  -47.6173 S.3       23 UNK        -0.2404 
     17 C17         1.0688  -21.4440  -47.5153 C.3       23 UNK        -0.0398 
     18 CA          1.1571  -22.7578  -46.7075 C.3       11 UNK         0.1400 
     19 N           1.6645  -22.5766  -45.3410 N.am      11 UNK        -0.5000 
     20 C           1.9047  -23.5752  -44.4757 C.2       10 UNK         0.5000 
     21 O           1.7265  -24.7649  -44.7380 O.2       10 UNK        -0.5000 
     22 CA          2.3970  -23.1845  -43.0726 C.3       10 UNK         0.1400 
     23 CB          3.9160  -22.9530  -43.0653 C.3       10 UNK        -0.1800 
     24 N           1.7087  -21.9898  -42.5881 N.am      10 UNK        -0.5000 
     25 C           0.5062  -22.0059  -41.9952 C.2       9 UNK         0.5000 
     26 O          -0.0991  -23.0391  -41.7079 O.2       9 UNK        -0.5000 
     27 CA         -0.1465  -20.6429  -41.6867 C.3       9 UNK         0.1400 
     28 CB          0.2135  -20.1852  -40.2656 C.3       9 UNK        -0.1800 
     29 N           0.2136  -19.5909  -42.6397 N.am      9 UNK        -0.5000 
     30 C          -0.0848  -19.6219  -43.9463 C.2       8 UNK         0.5000 
     31 O          -0.7397  -20.5173  -44.4776 O.2       8 UNK        -0.5000 
     32 CA          0.4828  -18.4974  -44.8270 C.3       8 UNK         0.1400 
     33 CB         -0.5058  -17.3286  -44.9121 C.3       8 UNK        -0.1800 
     34 N           1.7956  -18.0041  -44.4162 N.am      8 UNK        -0.5000 
     35 C           2.9062  -18.7438  -44.2880 C.2       7 UNK         0.5000 
     36 O           2.9242  -19.9723  -44.3599 O.2       7 UNK        -0.5000 
     37 CA          4.2069  -17.9785  -44.0112 C.3       7 UNK         0.1400 
     38 CB          4.6759  -17.2337  -45.2718 C.3       7 UNK        -0.1800 
     39 N           4.0069  -17.0230  -42.9258 N.am      7 UNK        -0.5000 
     40 C           4.2762  -17.2735  -41.6385 C.2       6 UNK         0.5000 
     41 O           4.8270  -18.3004  -41.2397 O.2       6 UNK        -0.5000 
     42 CA          3.8473  -16.2039  -40.6144 C.3       6 UNK         0.1400 
     43 CB          5.0027  -15.2296  -40.3388 C.3       6 UNK        -0.1800 
     44 N           2.6628  -15.4387  -41.0116 N.am      6 UNK        -0.5000 
     45 C           1.4404  -15.9559  -41.1956 C.2       5 UNK         0.5000 
     46 O           1.1729  -17.1525  -41.0820 O.2       5 UNK        -0.5000 
     47 CA          0.3334  -14.9715  -41.6127 C.3       5 UNK         0.1400 
     48 CB         -0.2036  -14.2284  -40.3797 C.3       5 UNK        -0.1800 
     49 N           0.6965  -13.9890  -42.6424 N.am      5 UNK        -0.5000 
     50 C           1.3614  -14.2057  -43.7872 C.2       4 UNK         0.5000 
     51 O           1.9429  -15.2564  -44.0576 O.2       4 UNK        -0.5000 
     52 CA          1.3118  -13.0701  -44.8262 C.3       4 UNK         0.1400 
     53 CB          2.0390  -13.4354  -46.1335 C.3       4 UNK        -0.1800 
     54 N          -0.0828  -12.7532  -45.1348 N.am      4 UNK        -0.5000 
     55 C          -0.8198  -11.8274  -44.5079 C.2       3 UNK         0.5000 
     56 O          -0.3796  -11.0820  -43.6322 O.2       3 UNK        -0.5000 
     57 CA         -2.3112  -11.7680  -44.8843 C.3       3 UNK         0.1400 
     58 CB         -2.5099  -10.9975  -46.1985 C.3       3 UNK        -0.1800 
     59 N          -2.9196  -13.0938  -45.0088 N.am      3 UNK        -0.5000 
     60 C          -3.0610  -13.9889  -44.0224 C.2       2 UNK         0.5000 
     61 O          -2.6972  -13.7831  -42.8653 O.2       2 UNK        -0.5000 
     62 CA         -3.6961  -15.3524  -44.3707 C.3       2 UNK         0.1400 
     63 CB         -5.2016  -15.3605  -44.0459 C.3       2 UNK        -0.1800 
     64 N          -3.4418  -15.8312  -45.7383 N.am      2 UNK        -0.5000 
     65 C          -3.8652  -15.3313  -46.9082 C.2       1 UNK         0.5000 
     66 O          -4.5778  -14.3316  -47.0025 O.2       1 UNK        -0.5000 
     67 C          -0.2246  -23.4427  -46.7365 C.2       11 UNK         0.5000 
     68 O          -0.4370  -24.3376  -47.5548 O.2       11 UNK        -0.5000 
     69 N          -1.1214  -23.0265  -45.8283 N.am      12 UNK        -0.5000 
     70 CA         -2.5116  -23.4784  -45.7120 C.3       12 UNK         0.1400 
     71 CB         -3.1855  -22.7267  -44.5536 C.3       12 UNK        -0.1800 
     72 C          -2.6940  -24.9987  -45.5367 C.2       12 UNK         0.5000 
     73 O          -3.7579  -25.5184  -45.8748 O.2       12 UNK        -0.5000 
     74 N          -1.6582  -25.6875  -45.0371 N.am      13 UNK        -0.5000 
     75 CA         -1.6014  -27.1457  -44.9393 C.3       13 UNK         0.1400 
     76 CB         -0.4128  -27.5422  -44.0507 C.3       13 UNK        -0.1800 
     77 C          -1.5065  -27.8407  -46.3135 C.2       13 UNK         0.5000 
     78 O          -1.9404  -28.9872  -46.4343 O.2       13 UNK        -0.5000 
     79 N          -0.9527  -27.1457  -47.3173 N.am      14 UNK        -0.5000 
     80 CA         -0.8758  -27.6031  -48.7013 C.3       14 UNK         0.1400 
     81 CB          0.4462  -27.1351  -49.3328 C.3       14 UNK        -0.1800 
     82 C          -2.0874  -27.0979  -49.4998 C.2       14 UNK         0.5000 
     83 O          -2.8000  -27.9119  -50.0889 O.2       14 UNK        -0.5000 
     84 N          -2.3139  -25.7771  -49.4942 N.am      15 UNK        -0.5000 
     85 CA         -3.4086  -25.1117  -50.1992 C.3       15 UNK         0.1400 
     86 CB         -3.1651  -25.1340  -51.7213 C.3       15 UNK        -0.1800 
     87 C          -3.5461  -23.6672  -49.7012 C.2       15 UNK         0.5000 
     88 O          -2.5515  -23.0603  -49.3018 O.2       15 UNK        -0.5000 
     89 N          -4.7691  -23.1329  -49.7652 N.am      16 UNK        -0.5000 
     90 CA         -5.1079  -21.7665  -49.3793 C.3       16 UNK         0.1400 
     91 CB         -5.9149  -21.7983  -48.0713 C.3       16 UNK        -0.1800 
     92 C          -5.9070  -21.1036  -50.5092 C.2       16 UNK         0.5000 
     93 O          -6.7251  -21.7702  -51.1472 O.2       16 UNK        -0.5000 
     94 N          -5.6548  -19.8093  -50.7214 N.am      17 UNK        -0.5000 
     95 CA         -6.2365  -18.9277  -51.7328 C.3       17 UNK         0.1400 
     96 CB         -5.9595  -19.4352  -53.1640 C.3       17 UNK        -0.1800 
     97 C          -5.5860  -17.5483  -51.5594 C.2       17 UNK         0.5000 
     98 O          -4.5210  -17.4500  -50.9457 O.2       17 UNK        -0.5000 
     99 N          -6.1754  -16.5086  -52.1600 N.am      18 UNK        -0.5000 
    100 CA        -5.6490  -15.1371  -52.1859 C.3       18 UNK         0.1400 
    101 CB        -6.8081  -14.1727  -52.4973 C.3       18 UNK        -0.1800 
    102 C         -4.4501  -14.9660  -53.1531 C.2       18 UNK         0.5000 
    103 O         -4.4447  -14.0440  -53.9709 O.2       18 UNK        -0.5000 
    104 N         -3.4671  -15.8699  -53.0293 N.am      19 UNK        -0.5000 
    105 CA        -2.2667  -16.0683  -53.8481 C.3       19 UNK         0.1400 
    106 CB        -1.3888  -14.8009  -53.8612 C.3       19 UNK        -0.1800 
    107 C         -2.5679  -16.5644  -55.2781 C.2       19 UNK         0.5000 
    108 O         -3.7026  -16.4820  -55.7542 O.2       19 UNK        -0.5000 
    109 N         -1.5213  -17.0871  -55.9336 N.am      20 UNK        -0.5000 
    110 CA        -1.4435  -17.5888  -57.3139 C.3       20 UNK         0.1400 
    111 CB        -1.7346  -16.4707  -58.3333 C.3       20 UNK        -0.1800 
    112 C         -2.2938  -18.8418  -57.6030 C.2       20 UNK         0.5000 
    113 O         -1.7532  -19.8465  -58.0672 O.2       20 UNK        -0.5000 
    114 N         -3.5979  -18.7772  -57.3094 N.am      21 UNK        -0.5000 
    115 CA        -4.5882  -19.8332  -57.5433 C.3       21 UNK         0.1400 
    116 CB        -5.9891  -19.2728  -57.2570 C.3       21 UNK        -0.1800 
    117 C         -4.3364  -21.1185  -56.7303 C.2       21 UNK         0.5000 
    118 O         -4.7779  -22.1927  -57.1399 O.2       21 UNK        -0.5000 
    119 N         -3.6113  -20.9874  -55.6141 N.am      22 UNK        -0.5000 
    120 CA        -3.0847  -22.0961  -54.8081 C.3       22 UNK         0.1400 
    121 C         -1.8508  -22.8238  -55.4244 C.2       22 UNK         0.5000 
    122 N         -1.2580  -22.3486  -56.5146 N.am      22 UNK        -0.7600 
    123 O         -1.4319  -23.8568  -54.9100 O.2       22 UNK        -0.5000 
    124 C124       -2.8305  -21.6575  -53.3440 C.3       23 UNK        -0.0398 
    125 S125       -1.7530  -20.1917  -53.1728 S.3       23 UNK        -0.2404 
    126 C126       -1.9509  -19.9008  -51.3928 C.3       23 UNK        -0.0205 
    127 H127       -1.5340  -19.3892  -47.0258 H         1 UNK         0.0600 
    128 H128       -2.2157  -20.2358  -48.4127 H         1 UNK         0.0600 
    129 H129       -2.9743  -20.3836  -46.8250 H         1 UNK         0.0600 
    130 H130       -1.7156  -17.2766  -47.9050 H         1 UNK         0.3000 
    131 H131       -4.2819  -16.2006  -48.7790 H         1 UNK         0.0600 
    132 H132       -2.4730  -15.3996  -50.0625 H         1 UNK         0.0800 
    133 H133       -2.8700  -14.0670  -49.0522 H         1 UNK         0.0800 
    134 H134       -0.1938  -15.1106  -50.7706 H         1 UNK         0.0800 
    135 H135        1.2262  -15.1866  -49.7726 H         1 UNK         0.0800 
    136 H136       -1.6989  -17.2220  -50.9500 H         1 UNK         0.1150 
    137 H137        0.4099  -20.9121  -50.5868 H         1 UNK         0.1150 
    138 H138        2.1836  -17.2973  -49.1123 H         1 UNK         0.1150 
    139 H139        2.7699  -20.8745  -49.9930 H         1 UNK         0.0800 
    140 H140        3.5558  -19.3861  -49.5408 H         1 UNK         0.0800 
    141 H141        0.3012  -20.7901  -47.1054 H         1 UNK         0.0800 
    142 H142        0.7453  -21.6924  -48.5245 H         1 UNK         0.0800 
    143 H143        1.8581  -23.4194  -47.2207 H         1 UNK         0.0600 
    144 H144        1.8928  -21.6281  -45.0638 H         1 UNK         0.3000 
    145 H145        2.1870  -24.0178  -42.3983 H         1 UNK         0.0600 
    146 H146        4.2681  -22.6781  -42.0709 H         1 UNK         0.0600 
    147 H147        4.4463  -23.8596  -43.3593 H         1 UNK         0.0600 
    148 H148        4.2141  -22.1644  -43.7561 H         1 UNK         0.0600 
    149 H149        2.1147  -21.1000  -42.8553 H         1 UNK         0.3000 
    150 H150       -1.2286  -20.7804  -41.7373 H         1 UNK         0.0600 
    151 H151       -0.0440  -20.9482  -39.5298 H         1 UNK         0.0600 
    152 H152       -0.3279  -19.2785  -39.9955 H         1 UNK         0.0600 
    153 H153        1.2804  -19.9793  -40.1689 H         1 UNK         0.0600 
    154 H154        0.7371  -18.8032  -42.2714 H         1 UNK         0.3000 
    155 H155        0.6038  -18.9013  -45.8320 H         1 UNK         0.0600 
    156 H156       -0.1874  -16.5923  -45.6506 H         1 UNK         0.0600 
    157 H157       -0.6097  -16.8224  -43.9536 H         1 UNK         0.0600 
    158 H158       -1.4926  -17.6863  -45.2022 H         1 UNK         0.0600 
    159 H159        1.8766  -16.9942  -44.3113 H         1 UNK         0.3000 
    160 H160        4.9775  -18.7045  -43.7434 H         1 UNK         0.0600 
    161 H161        3.9570  -16.4778  -45.5908 H         1 UNK         0.0600 
    162 H162        4.8142  -17.9260  -46.1035 H         1 UNK         0.0600 
    163 H163        5.6298  -16.7351  -45.1002 H         1 UNK         0.0600 
    164 H164        3.4901  -16.1818  -43.1584 H         1 UNK         0.3000 
    165 H165        3.6083  -16.7224  -39.6836 H         1 UNK         0.0600 
    166 H166        5.2674  -14.6581  -41.2293 H         1 UNK         0.0600 
    167 H167        4.7444  -14.5234  -39.5495 H         1 UNK         0.0600 
    168 H168        5.8963  -15.7647  -40.0144 H         1 UNK         0.0600 
    169 H169        2.7883  -14.4473  -41.1539 H         1 UNK         0.3000 
    170 H170       -0.4862  -15.5645  -42.0200 H         1 UNK         0.0600 
    171 H171       -0.5086  -14.9290  -39.6012 H         1 UNK         0.0600 
    172 H172        0.5482  -13.5653  -39.9501 H         1 UNK         0.0600 
    173 H173       -1.0767  -13.6257  -40.6302 H         1 UNK         0.0600 
    174 H174        0.2556  -13.0840  -42.5434 H         1 UNK         0.3000 
    175 H175        1.8122  -12.2011  -44.3944 H         1 UNK         0.0600 
    176 H176        1.6175  -14.3288  -46.5956 H         1 UNK         0.0600 
    177 H177        1.9790  -12.6239  -46.8588 H         1 UNK         0.0600 
    178 H178        3.0964  -13.6304  -45.9503 H         1 UNK         0.0600 
    179 H179       -0.5365  -13.3477  -45.8134 H         1 UNK         0.3000 
    180 H180       -2.8348  -11.2327  -44.0896 H         1 UNK         0.0600 
    181 H181       -3.5688  -10.8790  -46.4289 H         1 UNK         0.0600 
    182 H182       -2.0776   -9.9980  -46.1350 H         1 UNK         0.0600 
    183 H183       -2.0394  -11.5072  -47.0405 H         1 UNK         0.0600 
    184 H184       -3.3256  -13.3329  -45.9073 H         1 UNK         0.3000 
    185 H185       -3.2206  -16.0833  -43.7147 H         1 UNK         0.0600 
    186 H186       -5.3727  -15.1257  -42.9946 H         1 UNK         0.0600 
    187 H187       -5.7513  -14.6260  -44.6348 H         1 UNK         0.0600 
    188 H188       -5.6405  -16.3401  -44.2355 H         1 UNK         0.0600 
    189 H189       -2.8497  -16.6454  -45.7989 H         1 UNK         0.3000 
    190 H190       -0.8612  -22.2533  -45.2203 H         1 UNK         0.3000 
    191 H191       -3.0191  -23.2003  -46.6367 H         1 UNK         0.0600 
    192 H192       -4.2217  -23.0432  -44.4277 H         1 UNK         0.0600 
    193 H193       -3.1984  -21.6519  -44.7329 H         1 UNK         0.0600 
    194 H194       -2.6685  -22.9019  -43.6092 H         1 UNK         0.0600 
    195 H195       -0.8142  -25.1835  -44.8010 H         1 UNK         0.3000 
    196 H196       -2.5183  -27.4898  -44.4562 H         1 UNK         0.0600 
    197 H197       -0.3752  -28.6230  -43.9094 H         1 UNK         0.0600 
    198 H198       -0.4876  -27.0872  -43.0628 H         1 UNK         0.0600 
    199 H199        0.5371  -27.2361  -44.4906 H         1 UNK         0.0600 
    200 H200       -0.6731  -26.1825  -47.1544 H         1 UNK         0.3000 
    201 H201       -0.8833  -28.6948  -48.7314 H         1 UNK         0.0600 
    202 H202        1.3027  -27.5279  -48.7847 H         1 UNK         0.0600 
    203 H203        0.5327  -26.0485  -49.3507 H         1 UNK         0.0600 
    204 H204        0.5297  -27.4861  -50.3620 H         1 UNK         0.0600 
    205 H205       -1.7063  -25.1567  -48.9637 H         1 UNK         0.3000 
    206 H206       -4.3377  -25.6391  -49.9730 H         1 UNK         0.0600 
    207 H207       -3.2046  -26.1478  -52.1188 H         1 UNK         0.0600 
    208 H208       -3.9214  -24.5548  -52.2527 H         1 UNK         0.0600 
    209 H209       -2.1896  -24.7174  -51.9746 H         1 UNK         0.0600 
    210 H210       -5.5278  -23.6589  -50.1784 H         1 UNK         0.3000 
    211 H211       -4.2025  -21.1811  -49.2199 H         1 UNK         0.0600 
    212 H212       -6.8234  -22.3930  -48.1731 H         1 UNK         0.0600 
    213 H213       -6.2123  -20.7938  -47.7689 H         1 UNK         0.0600 
    214 H214       -5.3261  -22.2212  -47.2572 H         1 UNK         0.0600 
    215 H215       -5.0105  -19.3199  -50.1073 H         1 UNK         0.3000 
    216 H216       -7.3107  -18.8488  -51.5572 H         1 UNK         0.0600 
    217 H217       -6.4417  -18.7897  -53.8979 H         1 UNK         0.0600 
    218 H218       -6.3420  -20.4407  -53.3338 H         1 UNK         0.0600 
    219 H219       -4.8932  -19.4364  -53.3895 H         1 UNK         0.0600 
    220 H220       -7.0207  -16.6668  -52.6892 H         1 UNK         0.3000 
    221 H221       -5.2813  -14.8921  -51.1870 H         1 UNK         0.0600 
    222 H222       -7.2233  -14.3511  -53.4899 H         1 UNK         0.0600 
    223 H223       -7.6147  -14.2780  -51.7715 H         1 UNK         0.0600 
    224 H224       -6.4763  -13.1343  -52.4601 H         1 UNK         0.0600 
    225 H225       -3.6232  -16.5775  -52.3165 H         1 UNK         0.3000 
    226 H226       -1.7043  -16.8609  -53.3529 H         1 UNK         0.0600 
    227 H227       -0.4084  -15.0064  -54.2918 H         1 UNK         0.0600 
    228 H228       -1.8384  -14.0010  -54.4501 H         1 UNK         0.0600 
    229 H229       -1.2258  -14.4215  -52.8530 H         1 UNK         0.0600 
    230 H230       -0.6471  -17.1434  -55.4295 H         1 UNK         0.3000 
    231 H231       -0.4030  -17.8860  -57.4552 H         1 UNK         0.0600 
    232 H232       -1.5896  -16.8276  -59.3537 H         1 UNK         0.0600 
    233 H233       -1.0655  -15.6226  -58.1881 H         1 UNK         0.0600 
    234 H234       -2.7590  -16.1044  -58.2602 H         1 UNK         0.0600 
    235 H235       -3.9286  -17.9192  -56.8723 H         1 UNK         0.3000 
    236 H236       -4.5387  -20.1057  -58.5994 H         1 UNK         0.0600 
    237 H237       -6.2193  -18.4350  -57.9153 H         1 UNK         0.0600 
    238 H238       -6.7569  -20.0312  -57.4156 H         1 UNK         0.0600 
    239 H239       -6.0773  -18.9231  -56.2289 H         1 UNK         0.0600 
    240 H240       -3.2754  -20.0688  -55.3663 H         1 UNK         0.3000 
    241 H241       -3.8644  -22.8591  -54.7676 H         1 UNK         0.0600 
    242 H242       -1.5763  -21.4992  -56.9681 H         1 UNK         0.3800 
    243 H243       -0.4674  -22.8434  -56.8955 H         1 UNK         0.3800 
    244 H244       -3.7852  -21.4430  -52.8637 H         1 UNK         0.0800 
    245 H245       -2.3944  -22.4728  -52.7660 H         1 UNK         0.0800 
    246 H246       -2.0526  -20.8549  -50.8734 H         1 UNK         0.0800 
    247 H247       -2.8785  -19.3606  -51.2179 H         1 UNK         0.0800 
@<TRIPOS>BOND
     1    1    2 1    
     2    1  127 1    
     3    1  128 1    
     4    1  129 1    
     5    2    3 2    
     6    2    4 am   BACKBONE|DICT|INTERRES
     7    4    5 1    
     8    4  130 1    
     9    5    6 1    
    10    5   65 1    
    11    5  131 1    
    12    6    7 1    
    13    6  132 1    
    14    6  133 1    
    15    7    8 1    
    16    8    9 1    
    17    8  134 1    
    18    8  135 1    
    19    9   10 ar   
    20    9   14 ar   
    21   10   11 ar   
    22   10  136 1    
    23   11   12 ar   
    24   11  126 1    
    25   12   13 ar   
    26   12  137 1    
    27   13   14 ar   
    28   13   15 1    
    29   14  138 1    
    30   15   16 1    
    31   15  139 1    
    32   15  140 1    
    33   16   17 1    
    34   17   18 1    
    35   17  141 1    
    36   17  142 1    
    37   18   19 1    
    38   18   67 1    
    39   18  143 1    
    40   19   20 am   BACKBONE|DICT|INTERRES
    41   19  144 1    
    42   20   21 2    
    43   20   22 1    
    44   22   23 1    
    45   22   24 1    
    46   22  145 1    
    47   23  146 1    
    48   23  147 1    
    49   23  148 1    
    50   24   25 am   BACKBONE|DICT|INTERRES
    51   24  149 1    
    52   25   26 2    
    53   25   27 1    
    54   27   28 1    
    55   27   29 1    
    56   27  150 1    
    57   28  151 1    
    58   28  152 1    
    59   28  153 1    
    60   29   30 am   BACKBONE|DICT|INTERRES
    61   29  154 1    
    62   30   31 2    
    63   30   32 1    
    64   32   33 1    
    65   32   34 1    
    66   32  155 1    
    67   33  156 1    
    68   33  157 1    
    69   33  158 1    
    70   34   35 am   BACKBONE|DICT|INTERRES
    71   34  159 1    
    72   35   36 2    
    73   35   37 1    
    74   37   38 1    
    75   37   39 1    
    76   37  160 1    
    77   38  161 1    
    78   38  162 1    
    79   38  163 1    
    80   39   40 am   BACKBONE|DICT|INTERRES
    81   39  164 1    
    82   40   41 2    
    83   40   42 1    
    84   42   43 1    
    85   42   44 1    
    86   42  165 1    
    87   43  166 1    
    88   43  167 1    
    89   43  168 1    
    90   44   45 am   BACKBONE|DICT|INTERRES
    91   44  169 1    
    92   45   46 2    
    93   45   47 1    
    94   47   48 1    
    95   47   49 1    
    96   47  170 1    
    97   48  171 1    
    98   48  172 1    
    99   48  173 1    
   100   49   50 am   BACKBONE|DICT|INTERRES
   101   49  174 1    
   102   50   51 2    
   103   50   52 1    
   104   52   53 1    
   105   52   54 1    
   106   52  175 1    
   107   53  176 1    
   108   53  177 1    
   109   53  178 1    
   110   54   55 am   BACKBONE|DICT|INTERRES
   111   54  179 1    
   112   55   56 2    
   113   55   57 1    
   114   57   58 1    
   115   57   59 1    
   116   57  180 1    
   117   58  181 1    
   118   58  182 1    
   119   58  183 1    
   120   59   60 am   BACKBONE|DICT|INTERRES
   121   59  184 1    
   122   60   61 2    
   123   60   62 1    
   124   62   63 1    
   125   62   64 1    
   126   62  185 1    
   127   63  186 1    
   128   63  187 1    
   129   63  188 1    
   130   64   65 am   BACKBONE|DICT|INTERRES
   131   64  189 1    
   132   65   66 2    
   133   67   68 2    
   134   67   69 am   BACKBONE|DICT|INTERRES
   135   69   70 1    
   136   69  190 1    
   137   70   71 1    
   138   70   72 1    
   139   70  191 1    
   140   71  192 1    
   141   71  193 1    
   142   71  194 1    
   143   72   73 2    
   144   72   74 am   BACKBONE|DICT|INTERRES
   145   74   75 1    
   146   74  195 1    
   147   75   76 1    
   148   75   77 1    
   149   75  196 1    
   150   76  197 1    
   151   76  198 1    
   152   76  199 1    
   153   77   78 2    
   154   77   79 am   BACKBONE|DICT|INTERRES
   155   79   80 1    
   156   79  200 1    
   157   80   81 1    
   158   80   82 1    
   159   80  201 1    
   160   81  202 1    
   161   81  203 1    
   162   81  204 1    
   163   82   83 2    
   164   82   84 am   BACKBONE|DICT|INTERRES
   165   84   85 1    
   166   84  205 1    
   167   85   86 1    
   168   85   87 1    
   169   85  206 1    
   170   86  207 1    
   171   86  208 1    
   172   86  209 1    
   173   87   88 2    
   174   87   89 am   BACKBONE|DICT|INTERRES
   175   89   90 1    
   176   89  210 1    
   177   90   91 1    
   178   90   92 1    
   179   90  211 1    
   180   91  212 1    
   181   91  213 1    
   182   91  214 1    
   183   92   93 2    
   184   92   94 am   BACKBONE|DICT|INTERRES
   185   94   95 1    
   186   94  215 1    
   187   95   96 1    
   188   95   97 1    
   189   95  216 1    
   190   96  217 1    
   191   96  218 1    
   192   96  219 1    
   193   97   98 2    
   194   97   99 am   BACKBONE|DICT|INTERRES
   195   99  100 1    
   196   99  220 1    
   197  100  101 1    
   198  100  102 1    
   199  100  221 1    
   200  101  222 1    
   201  101  223 1    
   202  101  224 1    
   203  102  103 2    
   204  102  104 am   BACKBONE|DICT|INTERRES
   205  104  105 1    
   206  104  225 1    
   207  105  106 1    
   208  105  107 1    
   209  105  226 1    
   210  106  227 1    
   211  106  228 1    
   212  106  229 1    
   213  107  108 2    
   214  107  109 am   BACKBONE|DICT|INTERRES
   215  109  110 1    
   216  109  230 1    
   217  110  111 1    
   218  110  112 1    
   219  110  231 1    
   220  111  232 1    
   221  111  233 1    
   222  111  234 1    
   223  112  113 2    
   224  112  114 am   BACKBONE|DICT|INTERRES
   225  114  115 1    
   226  114  235 1    
   227  115  116 1    
   228  115  117 1    
   229  115  236 1    
   230  116  237 1    
   231  116  238 1    
   232  116  239 1    
   233  117  118 2    
   234  117  119 am   BACKBONE|DICT|INTERRES
   235  119  120 1    
   236  119  240 1    
   237  120  121 1    
   238  120  124 1    
   239  120  241 1    
   240  121  122 am   BACKBONE|DICT|INTERRES
   241  121  123 2    
   242  122  242 1    
   243  122  243 1    
   244  124  125 1    
   245  124  244 1    
   246  124  245 1    
   247  125  126 1    
   248  126  246 1    
   249  126  247 1    
@<TRIPOS>SUBSTRUCTURE
     1 UNK         1 GROUP             0       ****    0 ROOT    
