@<TRIPOS>MOLECULE
3R540
247   249    1
SMALL
USER_CHARGES


@<TRIPOS>ATOM
      1 CA         -4.2415   -9.3033  -43.4224 C.3       0 UNK        -0.1800 
      2 C          -2.9217   -9.7517  -44.0329 C.2       0 UNK         0.5000 
      3 O          -2.1644   -8.9227  -44.5390 O.2       0 UNK        -0.5000 
      4 N          -2.6296  -11.0566  -43.9745 N.am      1 UNK        -0.5000 
      5 CA         -1.4341  -11.7051  -44.5317 C.3       1 UNK         0.1400 
      6 C6         -1.6765  -13.2124  -44.8005 C.3       23 UNK        -0.0398 
      7 S7         -3.0559  -13.5501  -45.9471 S.3       23 UNK        -0.2404 
      8 C8         -2.3218  -14.8788  -46.9487 C.3       23 UNK        -0.0205 
      9 C9         -3.3781  -15.7121  -47.6565 C.ar      23 UNK        -0.0193 
     10 C10        -3.5915  -15.5748  -49.0309 C.ar      23 UNK        -0.1150 
     11 C11        -4.5310  -16.3776  -49.6875 C.ar      23 UNK        -0.0193 
     12 C12        -5.2798  -17.3007  -48.9517 C.ar      23 UNK        -0.1150 
     13 C13        -5.0804  -17.4414  -47.5754 C.ar      23 UNK        -0.0193 
     14 C14        -4.1229  -16.6494  -46.9353 C.ar      23 UNK        -0.1150 
     15 C15        -5.8976  -18.4496  -46.7803 C.3       23 UNK        -0.0205 
     16 S16        -5.4054  -20.1661  -47.1311 S.3       23 UNK        -0.2404 
     17 C17        -3.6636  -20.1522  -46.5907 C.3       23 UNK        -0.0398 
     18 CA         -3.0451  -21.5705  -46.5715 C.3       11 UNK         0.1400 
     19 N          -1.6159  -21.5482  -46.8962 N.am      11 UNK        -0.5000 
     20 C          -0.8783  -22.6226  -47.2103 C.2       10 UNK         0.5000 
     21 O          -1.3159  -23.7728  -47.2267 O.2       10 UNK        -0.5000 
     22 CA          0.6129  -22.3717  -47.5004 C.3       10 UNK         0.1400 
     23 CB          0.8136  -21.7389  -48.8871 C.3       10 UNK        -0.1800 
     24 N           1.2354  -21.5278  -46.4797 N.am      10 UNK        -0.5000 
     25 C           1.3874  -21.8809  -45.1952 C.2       9 UNK         0.5000 
     26 O           1.0949  -22.9924  -44.7542 O.2       9 UNK        -0.5000 
     27 CA          1.9141  -20.8011  -44.2311 C.3       9 UNK         0.1400 
     28 CB          3.4480  -20.7344  -44.2694 C.3       9 UNK        -0.1800 
     29 N           1.3584  -19.4744  -44.5032 N.am      9 UNK        -0.5000 
     30 C           0.0605  -19.1539  -44.3978 C.2       8 UNK         0.5000 
     31 O          -0.8091  -19.9350  -44.0148 O.2       8 UNK        -0.5000 
     32 CA         -0.3436  -17.7398  -44.8518 C.3       8 UNK         0.1400 
     33 CB         -0.0284  -16.7023  -43.7647 C.3       8 UNK        -0.1800 
     34 N           0.2977  -17.3566  -46.1109 N.am      8 UNK        -0.5000 
     35 C           0.0991  -17.9888  -47.2768 C.2       7 UNK         0.5000 
     36 O          -0.6845  -18.9244  -47.4173 O.2       7 UNK        -0.5000 
     37 CA          0.9531  -17.5401  -48.4726 C.3       7 UNK         0.1400 
     38 CB          0.3260  -16.3247  -49.1657 C.3       7 UNK        -0.1800 
     39 N           2.3258  -17.2329  -48.0753 N.am      7 UNK        -0.5000 
     40 C           3.2154  -18.1514  -47.6730 C.2       6 UNK         0.5000 
     41 O           2.9879  -19.3609  -47.6503 O.2       6 UNK        -0.5000 
     42 CA          4.5675  -17.6193  -47.1640 C.3       6 UNK         0.1400 
     43 CB          5.5188  -17.3393  -48.3368 C.3       6 UNK        -0.1800 
     44 N           4.4202  -16.4072  -46.3551 N.am      6 UNK        -0.5000 
     45 C           3.8217  -16.3693  -45.1560 C.2       5 UNK         0.5000 
     46 O           3.3700  -17.3642  -44.5900 O.2       5 UNK        -0.5000 
     47 CA          3.6622  -14.9855  -44.4990 C.3       5 UNK         0.1400 
     48 CB          4.8898  -14.6458  -43.6418 C.3       5 UNK        -0.1800 
     49 N           3.4329  -13.9051  -45.4600 N.am      5 UNK        -0.5000 
     50 C           2.3659  -13.7982  -46.2614 C.2       4 UNK         0.5000 
     51 O           1.4752  -14.6484  -46.3148 O.2       4 UNK        -0.5000 
     52 CA          2.2936  -12.5342  -47.1456 C.3       4 UNK         0.1400 
     53 CB          0.9493  -12.3959  -47.8828 C.3       4 UNK        -0.1800 
     54 N           2.5301  -11.3081  -46.3816 N.am      4 UNK        -0.5000 
     55 C           3.7265  -10.8091  -46.0426 C.2       3 UNK         0.5000 
     56 O           4.7934  -11.3693  -46.2959 O.2       3 UNK        -0.5000 
     57 CA          3.7226   -9.4774  -45.2718 C.3       3 UNK         0.1400 
     58 CB          3.6977   -8.2910  -46.2475 C.3       3 UNK        -0.1800 
     59 N           2.5767   -9.3814  -44.3660 N.am      3 UNK        -0.5000 
     60 C           2.5364   -9.9331  -43.1455 C.2       2 UNK         0.5000 
     61 O           3.4841  -10.5219  -42.6240 O.2       2 UNK        -0.5000 
     62 CA          1.1950   -9.8303  -42.3996 C.3       2 UNK         0.1400 
     63 CB          0.9614   -8.4067  -41.8701 C.3       2 UNK        -0.1800 
     64 N           0.0669  -10.2289  -43.2430 N.am      2 UNK        -0.5000 
     65 C          -0.1813  -11.4818  -43.6464 C.2       1 UNK         0.5000 
     66 O           0.5291  -12.4374  -43.3308 O.2       1 UNK        -0.5000 
     67 C          -3.3731  -22.3312  -45.2635 C.2       11 UNK         0.5000 
     68 O          -4.4909  -22.8233  -45.1066 O.2       11 UNK        -0.5000 
     69 N          -2.3992  -22.4323  -44.3486 N.am      12 UNK        -0.5000 
     70 CA         -2.5118  -23.1876  -43.1011 C.3       12 UNK         0.1400 
     71 CB         -1.3849  -22.7648  -42.1464 C.3       12 UNK        -0.1800 
     72 C          -2.5056  -24.7162  -43.3053 C.2       12 UNK         0.5000 
     73 O          -3.0590  -25.4294  -42.4672 O.2       12 UNK        -0.5000 
     74 N          -1.8869  -25.2002  -44.3933 N.am      13 UNK        -0.5000 
     75 CA         -1.8311  -26.6248  -44.7351 C.3       13 UNK         0.1400 
     76 CB         -0.6744  -26.8696  -45.7171 C.3       13 UNK        -0.1800 
     77 C          -3.1623  -27.1292  -45.3227 C.2       13 UNK         0.5000 
     78 O          -3.6248  -28.2129  -44.9651 O.2       13 UNK        -0.5000 
     79 N          -3.7512  -26.3130  -46.1985 N.am      14 UNK        -0.5000 
     80 CA         -5.0245  -26.4801  -46.8919 C.3       14 UNK         0.1400 
     81 CB         -4.9487  -27.6382  -47.9055 C.3       14 UNK        -0.1800 
     82 C          -5.2960  -25.1486  -47.6049 C.2       14 UNK         0.5000 
     83 O          -4.3571  -24.3687  -47.7648 O.2       14 UNK        -0.5000 
     84 N          -6.5409  -24.9037  -48.0361 N.am      15 UNK        -0.5000 
     85 CA         -6.9793  -23.6743  -48.7134 C.3       15 UNK         0.1400 
     86 CB         -8.4604  -23.8167  -49.0989 C.3       15 UNK        -0.1800 
     87 C          -6.1123  -23.3322  -49.9440 C.2       15 UNK         0.5000 
     88 O          -6.2280  -23.9982  -50.9740 O.2       15 UNK        -0.5000 
     89 N          -5.2006  -22.3621  -49.7733 N.am      16 UNK        -0.5000 
     90 CA         -4.1250  -21.9760  -50.6969 C.3       16 UNK         0.1400 
     91 CB         -4.7106  -21.2056  -51.8934 C.3       16 UNK        -0.1800 
     92 C          -3.2380  -23.1711  -51.1221 C.2       16 UNK         0.5000 
     93 O          -2.9100  -23.3172  -52.3027 O.2       16 UNK        -0.5000 
     94 N          -2.9411  -24.0520  -50.1546 N.am      17 UNK        -0.5000 
     95 CA         -2.2530  -25.3447  -50.2692 C.3       17 UNK         0.1400 
     96 CB         -0.7797  -25.1492  -50.6759 C.3       17 UNK        -0.1800 
     97 C          -2.9708  -26.3682  -51.1774 C.2       17 UNK         0.5000 
     98 O          -2.3554  -27.3592  -51.5717 O.2       17 UNK        -0.5000 
     99 N          -4.2438  -26.1029  -51.5162 N.am      18 UNK        -0.5000 
    100 CA        -5.0632  -26.7897  -52.5208 C.3       18 UNK         0.1400 
    101 CB        -5.3724  -28.2371  -52.0856 C.3       18 UNK        -0.1800 
    102 C         -4.4733  -26.6978  -53.9481 C.2       18 UNK         0.5000 
    103 O         -4.7785  -27.5436  -54.7909 O.2       18 UNK        -0.5000 
    104 N         -3.6344  -25.6803  -54.1914 N.am      19 UNK        -0.5000 
    105 CA        -2.8478  -25.5080  -55.4138 C.3       19 UNK         0.1400 
    106 CB        -1.4071  -25.9696  -55.1280 C.3       19 UNK        -0.1800 
    107 C         -2.8729  -24.0587  -55.9338 C.2       19 UNK         0.5000 
    108 O         -2.1562  -23.7572  -56.8892 O.2       19 UNK        -0.5000 
    109 N         -3.6723  -23.1869  -55.2976 N.am      20 UNK        -0.5000 
    110 CA        -3.7505  -21.7371  -55.5210 C.3       20 UNK         0.1400 
    111 CB        -4.3153  -21.4173  -56.9212 C.3       20 UNK        -0.1800 
    112 C         -2.4105  -21.0261  -55.2262 C.2       20 UNK         0.5000 
    113 O         -2.0209  -20.1029  -55.9433 O.2       20 UNK        -0.5000 
    114 N         -1.7205  -21.4793  -54.1710 N.am      21 UNK        -0.5000 
    115 CA        -0.4012  -21.0182  -53.7394 C.3       21 UNK         0.1400 
    116 CB         0.2757  -22.1539  -52.9513 C.3       21 UNK        -0.1800 
    117 C         -0.4644  -19.6989  -52.9398 C.2       21 UNK         0.5000 
    118 O          0.0523  -19.6247  -51.8235 O.2       21 UNK        -0.5000 
    119 N         -1.0903  -18.6747  -53.5245 N.am      22 UNK        -0.5000 
    120 CA        -1.1950  -17.3171  -52.9813 C.3       22 UNK         0.1400 
    121 C         -1.5113  -16.2754  -54.0895 C.2       22 UNK         0.5000 
    122 N         -1.3947  -14.9878  -53.7921 N.am      22 UNK        -0.7600 
    123 O         -1.8579  -16.6153  -55.2191 O.2       22 UNK        -0.5000 
    124 C124       -2.1445  -17.2238  -51.7558 C.3       23 UNK        -0.0398 
    125 S125       -3.8991  -17.5999  -52.0992 S.3       23 UNK        -0.2404 
    126 C126       -4.7353  -16.2577  -51.1920 C.3       23 UNK        -0.0205 
    127 H127       -4.0598   -8.5890  -42.6194 H         1 UNK         0.0600 
    128 H128       -4.8586   -8.8185  -44.1788 H         1 UNK         0.0600 
    129 H129       -4.8037  -10.1422  -43.0114 H         1 UNK         0.0600 
    130 H130       -3.2872  -11.6824  -43.5315 H         1 UNK         0.3000 
    131 H131       -1.2158  -11.2349  -45.4926 H         1 UNK         0.0600 
    132 H132       -0.7715  -13.6581  -45.2155 H         1 UNK         0.0800 
    133 H133       -1.8757  -13.7413  -43.8669 H         1 UNK         0.0800 
    134 H134       -1.7355  -15.5347  -46.3068 H         1 UNK         0.0800 
    135 H135       -1.6247  -14.4410  -47.6640 H         1 UNK         0.0800 
    136 H136       -3.0146  -14.8530  -49.5914 H         1 UNK         0.1150 
    137 H137       -6.0079  -17.9227  -49.4535 H         1 UNK         0.1150 
    138 H138       -3.9559  -16.7584  -45.8730 H         1 UNK         0.1150 
    139 H139       -5.8096  -18.2625  -45.7089 H         1 UNK         0.0800 
    140 H140       -6.9536  -18.3281  -47.0252 H         1 UNK         0.0800 
    141 H141       -3.5644  -19.6542  -45.6243 H         1 UNK         0.0800 
    142 H142       -3.1378  -19.5243  -47.3094 H         1 UNK         0.0800 
    143 H143       -3.5016  -22.1265  -47.3868 H         1 UNK         0.0600 
    144 H144       -1.1791  -20.6292  -46.9360 H         1 UNK         0.3000 
    145 H145        1.1195  -23.3390  -47.4939 H         1 UNK         0.0600 
    146 H146        1.8726  -21.6379  -49.1247 H         1 UNK         0.0600 
    147 H147        0.3623  -22.3459  -49.6697 H         1 UNK         0.0600 
    148 H148        0.3637  -20.7497  -48.9554 H         1 UNK         0.0600 
    149 H149        1.5557  -20.6126  -46.7765 H         1 UNK         0.3000 
    150 H150        1.6120  -21.0856  -43.2210 H         1 UNK         0.0600 
    151 H151        3.8872  -21.7075  -44.0462 H         1 UNK         0.0600 
    152 H152        3.8297  -20.0279  -43.5322 H         1 UNK         0.0600 
    153 H153        3.8140  -20.4249  -45.2486 H         1 UNK         0.0600 
    154 H154        2.0191  -18.7513  -44.7731 H         1 UNK         0.3000 
    155 H155       -1.4229  -17.7389  -45.0183 H         1 UNK         0.0600 
    156 H156        1.0279  -16.7005  -43.4990 H         1 UNK         0.0600 
    157 H157       -0.5923  -16.9114  -42.8549 H         1 UNK         0.0600 
    158 H158       -0.2907  -15.6964  -44.0869 H         1 UNK         0.0600 
    159 H159        0.9224  -16.5569  -46.0889 H         1 UNK         0.3000 
    160 H160        0.9764  -18.3622  -49.1914 H         1 UNK         0.0600 
    161 H161        0.8249  -16.1041  -50.1093 H         1 UNK         0.0600 
    162 H162        0.3779  -15.4380  -48.5391 H         1 UNK         0.0600 
    163 H163       -0.7265  -16.5026  -49.3794 H         1 UNK         0.0600 
    164 H164        2.5734  -16.2569  -48.0131 H         1 UNK         0.3000 
    165 H165        5.0158  -18.3941  -46.5382 H         1 UNK         0.0600 
    166 H166        6.5031  -17.0341  -47.9813 H         1 UNK         0.0600 
    167 H167        5.6576  -18.2325  -48.9474 H         1 UNK         0.0600 
    168 H168        5.1376  -16.5521  -48.9884 H         1 UNK         0.0600 
    169 H169        4.7683  -15.5451  -46.7480 H         1 UNK         0.3000 
    170 H170        2.7913  -15.0305  -43.8420 H         1 UNK         0.0600 
    171 H171        5.0730  -15.4214  -42.8969 H         1 UNK         0.0600 
    172 H172        5.7914  -14.5515  -44.2484 H         1 UNK         0.0600 
    173 H173        4.7466  -13.7075  -43.1049 H         1 UNK         0.0600 
    174 H174        4.1220  -13.1625  -45.4936 H         1 UNK         0.3000 
    175 H175        3.0747  -12.6300  -47.9026 H         1 UNK         0.0600 
    176 H176        0.1049  -12.3953  -47.1943 H         1 UNK         0.0600 
    177 H177        0.9094  -11.4731  -48.4619 H         1 UNK         0.0600 
    178 H178        0.8025  -13.2149  -48.5852 H         1 UNK         0.0600 
    179 H179        1.7100  -10.7977  -46.0942 H         1 UNK         0.3000 
    180 H180        4.6472   -9.4202  -44.6931 H         1 UNK         0.0600 
    181 H181        2.7934   -8.2861  -46.8575 H         1 UNK         0.0600 
    182 H182        4.5512   -8.3265  -46.9260 H         1 UNK         0.0600 
    183 H183        3.7476   -7.3417  -45.7138 H         1 UNK         0.0600 
    184 H184        1.7586   -8.8987  -44.7077 H         1 UNK         0.3000 
    185 H185        1.2367  -10.5063  -41.5427 H         1 UNK         0.0600 
    186 H186        1.7882   -8.0859  -41.2352 H         1 UNK         0.0600 
    187 H187        0.8677   -7.6821  -42.6799 H         1 UNK         0.0600 
    188 H188        0.0528   -8.3555  -41.2699 H         1 UNK         0.0600 
    189 H189       -0.5710   -9.5009  -43.5502 H         1 UNK         0.3000 
    190 H190       -1.5320  -21.9330  -44.5053 H         1 UNK         0.3000 
    191 H191       -3.4624  -22.9251  -42.6320 H         1 UNK         0.0600 
    192 H192       -0.4015  -22.9961  -42.5550 H         1 UNK         0.0600 
    193 H193       -1.4706  -23.2804  -41.1891 H         1 UNK         0.0600 
    194 H194       -1.4205  -21.6946  -41.9420 H         1 UNK         0.0600 
    195 H195       -1.4741  -24.5529  -45.0535 H         1 UNK         0.3000 
    196 H196       -1.6257  -27.1948  -43.8264 H         1 UNK         0.0600 
    197 H197       -0.5743  -27.9320  -45.9423 H         1 UNK         0.0600 
    198 H198        0.2751  -26.5336  -45.2999 H         1 UNK         0.0600 
    199 H199       -0.8270  -26.3486  -46.6628 H         1 UNK         0.0600 
    200 H200       -3.3059  -25.4279  -46.4216 H         1 UNK         0.3000 
    201 H201       -5.8133  -26.6627  -46.1602 H         1 UNK         0.0600 
    202 H202       -4.7966  -28.5956  -47.4076 H         1 UNK         0.0600 
    203 H203       -4.1324  -27.4989  -48.6141 H         1 UNK         0.0600 
    204 H204       -5.8719  -27.7199  -48.4801 H         1 UNK         0.0600 
    205 H205       -7.2514  -25.6060  -47.8913 H         1 UNK         0.3000 
    206 H206       -6.8977  -22.8568  -47.9942 H         1 UNK         0.0600 
    207 H207       -9.0859  -23.9609  -48.2179 H         1 UNK         0.0600 
    208 H208       -8.8186  -22.9207  -49.6076 H         1 UNK         0.0600 
    209 H209       -8.6235  -24.6619  -49.7690 H         1 UNK         0.0600 
    210 H210       -5.1833  -21.8941  -48.8769 H         1 UNK         0.3000 
    211 H211       -3.4755  -21.2925  -50.1476 H         1 UNK         0.0600 
    212 H212       -5.3072  -21.8518  -52.5377 H         1 UNK         0.0600 
    213 H213       -3.9165  -20.7655  -52.4955 H         1 UNK         0.0600 
    214 H214       -5.3477  -20.3868  -51.5588 H         1 UNK         0.0600 
    215 H215       -3.3333  -23.8861  -49.2292 H         1 UNK         0.3000 
    216 H216       -2.2618  -25.7757  -49.2670 H         1 UNK         0.0600 
    217 H217       -0.6868  -24.7432  -51.6828 H         1 UNK         0.0600 
    218 H218       -0.2362  -26.0943  -50.6553 H         1 UNK         0.0600 
    219 H219       -0.2707  -24.4801  -49.9856 H         1 UNK         0.0600 
    220 H220       -4.6716  -25.2616  -51.1432 H         1 UNK         0.3000 
    221 H221       -6.0105  -26.2504  -52.5555 H         1 UNK         0.0600 
    222 H222       -4.4831  -28.8673  -52.1066 H         1 UNK         0.0600 
    223 H223       -5.7807  -28.2657  -51.0755 H         1 UNK         0.0600 
    224 H224       -6.1106  -28.6942  -52.7453 H         1 UNK         0.0600 
    225 H225       -3.4255  -25.0356  -53.4366 H         1 UNK         0.3000 
    226 H226       -3.2562  -26.1247  -56.2167 H         1 UNK         0.0600 
    227 H227       -1.3852  -27.0069  -54.7931 H         1 UNK         0.0600 
    228 H228       -0.7844  -25.9051  -56.0210 H         1 UNK         0.0600 
    229 H229       -0.9397  -25.3596  -54.3537 H         1 UNK         0.0600 
    230 H230       -4.2150  -23.5366  -54.5211 H         1 UNK         0.3000 
    231 H231       -4.4654  -21.3519  -54.7945 H         1 UNK         0.0600 
    232 H232       -5.2584  -21.9358  -57.0937 H         1 UNK         0.0600 
    233 H233       -3.6250  -21.7021  -57.7154 H         1 UNK         0.0600 
    234 H234       -4.5091  -20.3493  -57.0273 H         1 UNK         0.0600 
    235 H235       -2.1352  -22.2167  -53.6064 H         1 UNK         0.3000 
    236 H236        0.2066  -20.8255  -54.6259 H         1 UNK         0.0600 
    237 H237        1.2958  -21.8865  -52.6731 H         1 UNK         0.0600 
    238 H238       -0.2671  -22.3779  -52.0331 H         1 UNK         0.0600 
    239 H239        0.3289  -23.0689  -53.5416 H         1 UNK         0.0600 
    240 H240       -1.4815  -18.7982  -54.4543 H         1 UNK         0.3000 
    241 H241       -0.1929  -17.0571  -52.6343 H         1 UNK         0.0600 
    242 H242       -1.5981  -14.3056  -54.5063 H         1 UNK         0.3800 
    243 H243       -1.0953  -14.6724  -52.8833 H         1 UNK         0.3800 
    244 H244       -1.8128  -17.9038  -50.9706 H         1 UNK         0.0800 
    245 H245       -2.0689  -16.2259  -51.3263 H         1 UNK         0.0800 
    246 H246       -4.3794  -15.2929  -51.5568 H         1 UNK         0.0800 
    247 H247       -5.8024  -16.2925  -51.4162 H         1 UNK         0.0800 
@<TRIPOS>BOND
     1    1    2 1    
     2    1  127 1    
     3    1  128 1    
     4    1  129 1    
     5    2    3 2    
     6    2    4 am   BACKBONE|DICT|INTERRES
     7    4    5 1    
     8    4  130 1    
     9    5    6 1    
    10    5   65 1    
    11    5  131 1    
    12    6    7 1    
    13    6  132 1    
    14    6  133 1    
    15    7    8 1    
    16    8    9 1    
    17    8  134 1    
    18    8  135 1    
    19    9   10 ar   
    20    9   14 ar   
    21   10   11 ar   
    22   10  136 1    
    23   11   12 ar   
    24   11  126 1    
    25   12   13 ar   
    26   12  137 1    
    27   13   14 ar   
    28   13   15 1    
    29   14  138 1    
    30   15   16 1    
    31   15  139 1    
    32   15  140 1    
    33   16   17 1    
    34   17   18 1    
    35   17  141 1    
    36   17  142 1    
    37   18   19 1    
    38   18   67 1    
    39   18  143 1    
    40   19   20 am   BACKBONE|DICT|INTERRES
    41   19  144 1    
    42   20   21 2    
    43   20   22 1    
    44   22   23 1    
    45   22   24 1    
    46   22  145 1    
    47   23  146 1    
    48   23  147 1    
    49   23  148 1    
    50   24   25 am   BACKBONE|DICT|INTERRES
    51   24  149 1    
    52   25   26 2    
    53   25   27 1    
    54   27   28 1    
    55   27   29 1    
    56   27  150 1    
    57   28  151 1    
    58   28  152 1    
    59   28  153 1    
    60   29   30 am   BACKBONE|DICT|INTERRES
    61   29  154 1    
    62   30   31 2    
    63   30   32 1    
    64   32   33 1    
    65   32   34 1    
    66   32  155 1    
    67   33  156 1    
    68   33  157 1    
    69   33  158 1    
    70   34   35 am   BACKBONE|DICT|INTERRES
    71   34  159 1    
    72   35   36 2    
    73   35   37 1    
    74   37   38 1    
    75   37   39 1    
    76   37  160 1    
    77   38  161 1    
    78   38  162 1    
    79   38  163 1    
    80   39   40 am   BACKBONE|DICT|INTERRES
    81   39  164 1    
    82   40   41 2    
    83   40   42 1    
    84   42   43 1    
    85   42   44 1    
    86   42  165 1    
    87   43  166 1    
    88   43  167 1    
    89   43  168 1    
    90   44   45 am   BACKBONE|DICT|INTERRES
    91   44  169 1    
    92   45   46 2    
    93   45   47 1    
    94   47   48 1    
    95   47   49 1    
    96   47  170 1    
    97   48  171 1    
    98   48  172 1    
    99   48  173 1    
   100   49   50 am   BACKBONE|DICT|INTERRES
   101   49  174 1    
   102   50   51 2    
   103   50   52 1    
   104   52   53 1    
   105   52   54 1    
   106   52  175 1    
   107   53  176 1    
   108   53  177 1    
   109   53  178 1    
   110   54   55 am   BACKBONE|DICT|INTERRES
   111   54  179 1    
   112   55   56 2    
   113   55   57 1    
   114   57   58 1    
   115   57   59 1    
   116   57  180 1    
   117   58  181 1    
   118   58  182 1    
   119   58  183 1    
   120   59   60 am   BACKBONE|DICT|INTERRES
   121   59  184 1    
   122   60   61 2    
   123   60   62 1    
   124   62   63 1    
   125   62   64 1    
   126   62  185 1    
   127   63  186 1    
   128   63  187 1    
   129   63  188 1    
   130   64   65 am   BACKBONE|DICT|INTERRES
   131   64  189 1    
   132   65   66 2    
   133   67   68 2    
   134   67   69 am   BACKBONE|DICT|INTERRES
   135   69   70 1    
   136   69  190 1    
   137   70   71 1    
   138   70   72 1    
   139   70  191 1    
   140   71  192 1    
   141   71  193 1    
   142   71  194 1    
   143   72   73 2    
   144   72   74 am   BACKBONE|DICT|INTERRES
   145   74   75 1    
   146   74  195 1    
   147   75   76 1    
   148   75   77 1    
   149   75  196 1    
   150   76  197 1    
   151   76  198 1    
   152   76  199 1    
   153   77   78 2    
   154   77   79 am   BACKBONE|DICT|INTERRES
   155   79   80 1    
   156   79  200 1    
   157   80   81 1    
   158   80   82 1    
   159   80  201 1    
   160   81  202 1    
   161   81  203 1    
   162   81  204 1    
   163   82   83 2    
   164   82   84 am   BACKBONE|DICT|INTERRES
   165   84   85 1    
   166   84  205 1    
   167   85   86 1    
   168   85   87 1    
   169   85  206 1    
   170   86  207 1    
   171   86  208 1    
   172   86  209 1    
   173   87   88 2    
   174   87   89 am   BACKBONE|DICT|INTERRES
   175   89   90 1    
   176   89  210 1    
   177   90   91 1    
   178   90   92 1    
   179   90  211 1    
   180   91  212 1    
   181   91  213 1    
   182   91  214 1    
   183   92   93 2    
   184   92   94 am   BACKBONE|DICT|INTERRES
   185   94   95 1    
   186   94  215 1    
   187   95   96 1    
   188   95   97 1    
   189   95  216 1    
   190   96  217 1    
   191   96  218 1    
   192   96  219 1    
   193   97   98 2    
   194   97   99 am   BACKBONE|DICT|INTERRES
   195   99  100 1    
   196   99  220 1    
   197  100  101 1    
   198  100  102 1    
   199  100  221 1    
   200  101  222 1    
   201  101  223 1    
   202  101  224 1    
   203  102  103 2    
   204  102  104 am   BACKBONE|DICT|INTERRES
   205  104  105 1    
   206  104  225 1    
   207  105  106 1    
   208  105  107 1    
   209  105  226 1    
   210  106  227 1    
   211  106  228 1    
   212  106  229 1    
   213  107  108 2    
   214  107  109 am   BACKBONE|DICT|INTERRES
   215  109  110 1    
   216  109  230 1    
   217  110  111 1    
   218  110  112 1    
   219  110  231 1    
   220  111  232 1    
   221  111  233 1    
   222  111  234 1    
   223  112  113 2    
   224  112  114 am   BACKBONE|DICT|INTERRES
   225  114  115 1    
   226  114  235 1    
   227  115  116 1    
   228  115  117 1    
   229  115  236 1    
   230  116  237 1    
   231  116  238 1    
   232  116  239 1    
   233  117  118 2    
   234  117  119 am   BACKBONE|DICT|INTERRES
   235  119  120 1    
   236  119  240 1    
   237  120  121 1    
   238  120  124 1    
   239  120  241 1    
   240  121  122 am   BACKBONE|DICT|INTERRES
   241  121  123 2    
   242  122  242 1    
   243  122  243 1    
   244  124  125 1    
   245  124  244 1    
   246  124  245 1    
   247  125  126 1    
   248  126  246 1    
   249  126  247 1    
@<TRIPOS>SUBSTRUCTURE
     1 UNK         1 GROUP             0       ****    0 ROOT    
