@<TRIPOS>MOLECULE
3R540
247   249    1
SMALL
USER_CHARGES


@<TRIPOS>ATOM
      1 CA          2.2684  -13.4843  -45.8157 C.3       0 UNK        -0.1800 
      2 C           1.6393  -14.7269  -46.4250 C.2       0 UNK         0.5000 
      3 O           1.1721  -15.6089  -45.6996 O.2       0 UNK        -0.5000 
      4 N           1.6273  -14.8005  -47.7608 N.am      1 UNK        -0.5000 
      5 CA          1.0646  -15.9086  -48.5381 C.3       1 UNK         0.1400 
      6 C6          1.9230  -16.2491  -49.7826 C.3       23 UNK        -0.0398 
      7 S7          1.7497  -18.0085  -50.2374 S.3       23 UNK        -0.2404 
      8 C8          3.4479  -18.4318  -50.7198 C.3       23 UNK        -0.0205 
      9 C9          3.5180  -19.8678  -51.2101 C.ar      23 UNK        -0.0193 
     10 C10         3.0406  -20.1915  -52.4832 C.ar      23 UNK        -0.1150 
     11 C11         3.0736  -21.5108  -52.9414 C.ar      23 UNK        -0.0193 
     12 C12         3.6114  -22.5071  -52.1225 C.ar      23 UNK        -0.1150 
     13 C13         4.1025  -22.1942  -50.8510 C.ar      23 UNK        -0.0193 
     14 C14         4.0483  -20.8731  -50.3960 C.ar      23 UNK        -0.1150 
     15 C15         4.6973  -23.2895  -49.9808 C.3       23 UNK        -0.0205 
     16 S16         3.3994  -24.2285  -49.1211 S.3       23 UNK        -0.2404 
     17 C17         3.0330  -23.1641  -47.6820 C.3       23 UNK        -0.0398 
     18 CA          3.1752  -23.9219  -46.3357 C.3       11 UNK         0.1400 
     19 N           3.4252  -22.9909  -45.2297 N.am      11 UNK        -0.5000 
     20 C           3.9740  -23.3333  -44.0557 C.2       10 UNK         0.5000 
     21 O           4.3849  -24.4646  -43.7960 O.2       10 UNK        -0.5000 
     22 CA          4.0443  -22.2336  -42.9792 C.3       10 UNK         0.1400 
     23 CB          5.2409  -21.3035  -43.2274 C.3       10 UNK        -0.1800 
     24 N           2.8170  -21.4389  -42.8946 N.am      10 UNK        -0.5000 
     25 C           1.6181  -21.9168  -42.5293 C.2       9 UNK         0.5000 
     26 O           1.4095  -23.0893  -42.2207 O.2       9 UNK        -0.5000 
     27 CA          0.4450  -20.9249  -42.5492 C.3       9 UNK         0.1400 
     28 CB          0.4053  -20.1030  -41.2527 C.3       9 UNK        -0.1800 
     29 N           0.5240  -20.0334  -43.7057 N.am      9 UNK        -0.5000 
     30 C           0.1621  -20.3899  -44.9456 C.2       8 UNK         0.5000 
     31 O          -0.3367  -21.4805  -45.2242 O.2       8 UNK        -0.5000 
     32 CA          0.4129  -19.3703  -46.0703 C.3       8 UNK         0.1400 
     33 CB         -0.7948  -18.4405  -46.2178 C.3       8 UNK        -0.1800 
     34 N           1.6210  -18.5714  -45.8760 N.am      8 UNK        -0.5000 
     35 C           2.8634  -19.0736  -45.8814 C.2       7 UNK         0.5000 
     36 O           3.1207  -20.2596  -46.0871 O.2       7 UNK        -0.5000 
     37 CA          4.0041  -18.0997  -45.5343 C.3       7 UNK         0.1400 
     38 CB          4.5284  -17.4146  -46.8040 C.3       7 UNK        -0.1800 
     39 N           3.6327  -17.0810  -44.5468 N.am      7 UNK        -0.5000 
     40 C           3.1625  -17.3256  -43.3157 C.2       6 UNK         0.5000 
     41 O           2.9462  -18.4574  -42.8813 O.2       6 UNK        -0.5000 
     42 CA          2.8445  -16.1071  -42.4418 C.3       6 UNK         0.1400 
     43 CB          3.8747  -14.9677  -42.5897 C.3       6 UNK        -0.1800 
     44 N           1.4942  -15.6353  -42.7428 N.am      6 UNK        -0.5000 
     45 C           0.7351  -14.9345  -41.8909 C.2       5 UNK         0.5000 
     46 O           1.1128  -14.5798  -40.7730 O.2       5 UNK        -0.5000 
     47 CA         -0.6937  -14.5803  -42.3462 C.3       5 UNK         0.1400 
     48 CB         -0.6919  -13.3989  -43.3273 C.3       5 UNK        -0.1800 
     49 N          -1.4296  -15.7076  -42.9248 N.am      5 UNK        -0.5000 
     50 C          -1.8065  -16.7947  -42.2325 C.2       4 UNK         0.5000 
     51 O          -1.5134  -16.9729  -41.0492 O.2       4 UNK        -0.5000 
     52 CA         -2.6619  -17.8523  -42.9705 C.3       4 UNK         0.1400 
     53 CB         -3.4930  -18.7310  -42.0127 C.3       4 UNK        -0.1800 
     54 N          -3.5239  -17.3042  -44.0222 N.am      4 UNK        -0.5000 
     55 C          -4.4699  -16.3624  -43.9008 C.2       3 UNK         0.5000 
     56 O          -4.7566  -15.8107  -42.8365 O.2       3 UNK        -0.5000 
     57 CA         -5.2053  -15.9672  -45.2042 C.3       3 UNK         0.1400 
     58 CB         -6.0153  -14.6643  -45.0515 C.3       3 UNK        -0.1800 
     59 N          -4.3527  -15.8646  -46.3995 N.am      3 UNK        -0.5000 
     60 C          -3.1901  -15.2078  -46.5127 C.2       2 UNK         0.5000 
     61 O          -2.5621  -14.7240  -45.5686 O.2       2 UNK        -0.5000 
     62 CA         -2.6368  -15.0394  -47.9295 C.3       2 UNK         0.1400 
     63 CB         -2.9912  -13.6542  -48.4949 C.3       2 UNK        -0.1800 
     64 N          -1.1912  -15.2030  -47.8695 N.am      2 UNK        -0.5000 
     65 C          -0.4282  -15.6683  -48.8621 C.2       1 UNK         0.5000 
     66 O          -0.8728  -15.9206  -49.9816 O.2       1 UNK        -0.5000 
     67 C           1.9476  -24.8281  -46.0737 C.2       11 UNK         0.5000 
     68 O           1.8292  -25.8821  -46.6991 O.2       11 UNK        -0.5000 
     69 N           1.0511  -24.3932  -45.1736 N.am      12 UNK        -0.5000 
     70 CA         -0.2812  -24.9493  -44.9070 C.3       12 UNK         0.1400 
     71 CB         -0.1993  -26.3826  -44.3422 C.3       12 UNK        -0.1800 
     72 C          -1.2131  -24.8181  -46.1323 C.2       12 UNK         0.5000 
     73 O          -2.0274  -25.7016  -46.4039 O.2       12 UNK        -0.5000 
     74 N          -1.0697  -23.6910  -46.8406 N.am      13 UNK        -0.5000 
     75 CA         -1.8826  -23.2828  -47.9844 C.3       13 UNK         0.1400 
     76 CB         -1.0330  -22.3678  -48.8797 C.3       13 UNK        -0.1800 
     77 C          -3.1856  -22.5806  -47.5502 C.2       13 UNK         0.5000 
     78 O          -4.0879  -22.4273  -48.3750 O.2       13 UNK        -0.5000 
     79 N          -3.2631  -22.1828  -46.2686 N.am      14 UNK        -0.5000 
     80 CA         -4.4056  -21.5797  -45.5782 C.3       14 UNK         0.1400 
     81 CB         -5.5618  -22.5944  -45.4432 C.3       14 UNK        -0.1800 
     82 C          -4.8218  -20.2469  -46.2233 C.2       14 UNK         0.5000 
     83 O          -4.1834  -19.2305  -45.9572 O.2       14 UNK        -0.5000 
     84 N          -5.8602  -20.2641  -47.0684 N.am      15 UNK        -0.5000 
     85 CA         -6.3070  -19.1119  -47.8511 C.3       15 UNK         0.1400 
     86 CB         -7.5890  -19.4806  -48.6080 C.3       15 UNK        -0.1800 
     87 C          -5.2273  -18.5970  -48.8205 C.2       15 UNK         0.5000 
     88 O          -5.0678  -17.3816  -48.9499 O.2       15 UNK        -0.5000 
     89 N          -4.4844  -19.5295  -49.4370 N.am      16 UNK        -0.5000 
     90 CA         -3.3555  -19.3024  -50.3415 C.3       16 UNK         0.1400 
     91 CB         -2.1300  -18.8515  -49.5294 C.3       16 UNK        -0.1800 
     92 C          -3.7328  -18.3668  -51.5093 C.2       16 UNK         0.5000 
     93 O          -4.6206  -18.7202  -52.2879 O.2       16 UNK        -0.5000 
     94 N          -3.1174  -17.1777  -51.6036 N.am      17 UNK        -0.5000 
     95 CA         -3.4174  -16.1750  -52.6313 C.3       17 UNK         0.1400 
     96 CB         -2.3938  -15.0335  -52.5632 C.3       17 UNK        -0.1800 
     97 C          -4.8543  -15.6133  -52.5836 C.2       17 UNK         0.5000 
     98 O          -5.3159  -15.0947  -53.6001 O.2       17 UNK        -0.5000 
     99 N          -5.5542  -15.7501  -51.4452 N.am      18 UNK        -0.5000 
    100 CA        -6.9707  -15.3927  -51.3181 C.3       18 UNK         0.1400 
    101 CB        -7.3510  -15.2739  -49.8338 C.3       18 UNK        -0.1800 
    102 C         -7.8969  -16.3896  -52.0457 C.2       18 UNK         0.5000 
    103 O         -8.9548  -15.9848  -52.5286 O.2       18 UNK        -0.5000 
    104 N         -7.4765  -17.6604  -52.1349 N.am      19 UNK        -0.5000 
    105 CA        -8.1339  -18.6994  -52.9344 C.3       19 UNK         0.1400 
    106 CB        -7.9853  -20.0525  -52.2215 C.3       19 UNK        -0.1800 
    107 C         -7.5577  -18.7853  -54.3609 C.2       19 UNK         0.5000 
    108 O         -8.2107  -19.3455  -55.2417 O.2       19 UNK        -0.5000 
    109 N         -6.3464  -18.2420  -54.5489 N.am      20 UNK        -0.5000 
    110 CA        -5.5130  -18.2774  -55.7520 C.3       20 UNK         0.1400 
    111 CB        -6.2020  -17.5718  -56.9388 C.3       20 UNK        -0.1800 
    112 C         -5.0204  -19.7023  -56.0790 C.2       20 UNK         0.5000 
    113 O         -4.9205  -20.0684  -57.2517 O.2       20 UNK        -0.5000 
    114 N         -4.7101  -20.4794  -55.0336 N.am      21 UNK        -0.5000 
    115 CA        -4.1885  -21.8384  -55.1248 C.3       21 UNK         0.1400 
    116 CB        -5.3499  -22.8389  -55.2563 C.3       21 UNK        -0.1800 
    117 C         -3.3485  -22.1287  -53.8759 C.2       21 UNK         0.5000 
    118 O         -3.7503  -21.7510  -52.7751 O.2       21 UNK        -0.5000 
    119 N         -2.2101  -22.8031  -54.0648 N.am      22 UNK        -0.5000 
    120 CA        -1.2507  -23.1471  -52.9980 C.3       22 UNK         0.1400 
    121 C         -1.6260  -24.4219  -52.1829 C.2       22 UNK         0.5000 
    122 N         -2.7108  -25.1214  -52.4933 N.am      22 UNK        -0.7600 
    123 O         -0.9202  -24.7862  -51.2481 O.2       22 UNK        -0.5000 
    124 C124        0.2010  -23.2398  -53.5402 C.3       23 UNK        -0.0398 
    125 S125        0.7274  -21.7259  -54.4173 S.3       23 UNK        -0.2404 
    126 C126        2.5421  -21.8502  -54.3263 C.3       23 UNK        -0.0205 
    127 H127        1.9221  -12.5854  -46.3258 H         1 UNK         0.0600 
    128 H128        3.3540  -13.5328  -45.8975 H         1 UNK         0.0600 
    129 H129        2.0098  -13.3940  -44.7613 H         1 UNK         0.0600 
    130 H130        1.9937  -14.0285  -48.3002 H         1 UNK         0.3000 
    131 H131        1.0890  -16.7918  -47.9008 H         1 UNK         0.0600 
    132 H132        2.9753  -16.0581  -49.5686 H         1 UNK         0.0800 
    133 H133        1.6733  -15.6190  -50.6380 H         1 UNK         0.0800 
    134 H134        4.1184  -18.2809  -49.8730 H         1 UNK         0.0800 
    135 H135        3.7825  -17.7577  -51.5099 H         1 UNK         0.0800 
    136 H136        2.6242  -19.4168  -53.1121 H         1 UNK         0.1150 
    137 H137        3.6467  -23.5298  -52.4712 H         1 UNK         0.1150 
    138 H138        4.4174  -20.6274  -49.4101 H         1 UNK         0.1150 
    139 H139        5.2676  -23.9770  -50.6072 H         1 UNK         0.0800 
    140 H140        5.4082  -22.8784  -49.2623 H         1 UNK         0.0800 
    141 H141        3.7231  -22.3204  -47.7003 H         1 UNK         0.0800 
    142 H142        2.0384  -22.7289  -47.7962 H         1 UNK         0.0800 
    143 H143        4.0470  -24.5763  -46.4073 H         1 UNK         0.0600 
    144 H144        3.1770  -22.0177  -45.3923 H         1 UNK         0.3000 
    145 H145        4.1888  -22.7212  -42.0128 H         1 UNK         0.0600 
    146 H146        5.3019  -20.5237  -42.4678 H         1 UNK         0.0600 
    147 H147        5.1782  -20.8200  -44.2017 H         1 UNK         0.0600 
    148 H148        6.1780  -21.8606  -43.1996 H         1 UNK         0.0600 
    149 H149        2.9004  -20.4457  -43.0859 H         1 UNK         0.3000 
    150 H150       -0.4821  -21.4997  -42.6087 H         1 UNK         0.0600 
    151 H151        0.3170  -20.7547  -40.3826 H         1 UNK         0.0600 
    152 H152       -0.4502  -19.4311  -41.2393 H         1 UNK         0.0600 
    153 H153        1.3042  -19.5014  -41.1190 H         1 UNK         0.0600 
    154 H154        1.0145  -19.1595  -43.5677 H         1 UNK         0.3000 
    155 H155        0.5273  -19.9322  -46.9991 H         1 UNK         0.0600 
    156 H156       -1.7215  -19.0099  -46.2142 H         1 UNK         0.0600 
    157 H157       -0.7610  -17.9097  -47.1631 H         1 UNK         0.0600 
    158 H158       -0.8459  -17.7008  -45.4191 H         1 UNK         0.0600 
    159 H159        1.4986  -17.5785  -45.7045 H         1 UNK         0.3000 
    160 H160        4.8186  -18.6849  -45.1053 H         1 UNK         0.0600 
    161 H161        3.7599  -16.8079  -47.2818 H         1 UNK         0.0600 
    162 H162        4.8641  -18.1537  -47.5323 H         1 UNK         0.0600 
    163 H163        5.3786  -16.7690  -46.5837 H         1 UNK         0.0600 
    164 H164        3.7569  -16.1202  -44.8267 H         1 UNK         0.3000 
    165 H165        2.8732  -16.4568  -41.4074 H         1 UNK         0.0600 
    166 H166        3.7038  -14.1858  -41.8498 H         1 UNK         0.0600 
    167 H167        4.8896  -15.3367  -42.4360 H         1 UNK         0.0600 
    168 H168        3.8379  -14.5013  -43.5731 H         1 UNK         0.0600 
    169 H169        1.1323  -15.8555  -43.6650 H         1 UNK         0.3000 
    170 H170       -1.2394  -14.2596  -41.4562 H         1 UNK         0.0600 
    171 H171       -0.0816  -12.5747  -42.9560 H         1 UNK         0.0600 
    172 H172       -0.3048  -13.6871  -44.3032 H         1 UNK         0.0600 
    173 H173       -1.7014  -13.0150  -43.4754 H         1 UNK         0.0600 
    174 H174       -1.7591  -15.5887  -43.8774 H         1 UNK         0.3000 
    175 H175       -1.9541  -18.5117  -43.4713 H         1 UNK         0.0600 
    176 H176       -4.1984  -18.1369  -41.4310 H         1 UNK         0.0600 
    177 H177       -4.0607  -19.4820  -42.5623 H         1 UNK         0.0600 
    178 H178       -2.8551  -19.2637  -41.3073 H         1 UNK         0.0600 
    179 H179       -3.4520  -17.7603  -44.9275 H         1 UNK         0.3000 
    180 H180       -5.9126  -16.7736  -45.3999 H         1 UNK         0.0600 
    181 H181       -6.5676  -14.4345  -45.9628 H         1 UNK         0.0600 
    182 H182       -5.3677  -13.8152  -44.8291 H         1 UNK         0.0600 
    183 H183       -6.7448  -14.7437  -44.2446 H         1 UNK         0.0600 
    184 H184       -4.7354  -16.2829  -47.2411 H         1 UNK         0.3000 
    185 H185       -3.0675  -15.8046  -48.5747 H         1 UNK         0.0600 
    186 H186       -2.6141  -12.8532  -47.8578 H         1 UNK         0.0600 
    187 H187       -2.5724  -13.5112  -49.4900 H         1 UNK         0.0600 
    188 H188       -4.0721  -13.5324  -48.5752 H         1 UNK         0.0600 
    189 H189       -0.7823  -15.0440  -46.9559 H         1 UNK         0.3000 
    190 H190        1.2619  -23.5342  -44.6854 H         1 UNK         0.3000 
    191 H191       -0.7162  -24.3192  -44.1297 H         1 UNK         0.0600 
    192 H192       -1.1773  -26.7198  -43.9972 H         1 UNK         0.0600 
    193 H193        0.4794  -26.4311  -43.4906 H         1 UNK         0.0600 
    194 H194        0.1450  -27.0984  -45.0887 H         1 UNK         0.0600 
    195 H195       -0.4390  -22.9880  -46.4705 H         1 UNK         0.3000 
    196 H196       -2.1608  -24.1658  -48.5636 H         1 UNK         0.0600 
    197 H197       -0.6647  -21.5006  -48.3338 H         1 UNK         0.0600 
    198 H198       -1.6081  -22.0089  -49.7336 H         1 UNK         0.0600 
    199 H199       -0.1681  -22.9013  -49.2750 H         1 UNK         0.0600 
    200 H200       -2.4255  -22.2828  -45.7100 H         1 UNK         0.3000 
    201 H201       -4.0643  -21.3366  -44.5708 H         1 UNK         0.0600 
    202 H202       -5.9182  -22.9548  -46.4085 H         1 UNK         0.0600 
    203 H203       -6.4110  -22.1533  -44.9194 H         1 UNK         0.0600 
    204 H204       -5.2463  -23.4644  -44.8670 H         1 UNK         0.0600 
    205 H205       -6.3066  -21.1491  -47.2600 H         1 UNK         0.3000 
    206 H206       -6.5422  -18.3022  -47.1586 H         1 UNK         0.0600 
    207 H207       -8.3993  -19.7154  -47.9177 H         1 UNK         0.0600 
    208 H208       -7.9279  -18.6574  -49.2380 H         1 UNK         0.0600 
    209 H209       -7.4343  -20.3490  -49.2488 H         1 UNK         0.0600 
    210 H210       -4.6819  -20.5027  -49.2341 H         1 UNK         0.3000 
    211 H211       -3.1133  -20.2672  -50.7846 H         1 UNK         0.0600 
    212 H212       -2.3220  -17.9217  -49.0003 H         1 UNK         0.0600 
    213 H213       -1.2556  -18.7138  -50.1660 H         1 UNK         0.0600 
    214 H214       -1.8719  -19.5942  -48.7778 H         1 UNK         0.0600 
    215 H215       -2.3962  -16.9272  -50.9338 H         1 UNK         0.3000 
    216 H216       -3.3004  -16.6642  -53.6002 H         1 UNK         0.0600 
    217 H217       -1.3751  -15.4089  -52.6619 H         1 UNK         0.0600 
    218 H218       -2.4637  -14.4899  -51.6219 H         1 UNK         0.0600 
    219 H219       -2.5535  -14.3150  -53.3681 H         1 UNK         0.0600 
    220 H220       -5.1261  -16.2066  -50.6466 H         1 UNK         0.3000 
    221 H221       -7.1143  -14.4115  -51.7757 H         1 UNK         0.0600 
    222 H222       -8.3502  -14.8506  -49.7257 H         1 UNK         0.0600 
    223 H223       -7.3580  -16.2424  -49.3355 H         1 UNK         0.0600 
    224 H224       -6.6615  -14.6226  -49.2963 H         1 UNK         0.0600 
    225 H225       -6.5772  -17.9047  -51.7401 H         1 UNK         0.3000 
    226 H226       -9.2002  -18.4828  -53.0263 H         1 UNK         0.0600 
    227 H227       -8.5518  -20.0631  -51.2918 H         1 UNK         0.0600 
    228 H228       -8.3705  -20.8671  -52.8365 H         1 UNK         0.0600 
    229 H229       -6.9433  -20.2799  -51.9918 H         1 UNK         0.0600 
    230 H230       -5.8799  -17.8948  -53.7213 H         1 UNK         0.3000 
    231 H231       -4.6185  -17.7019  -55.5113 H         1 UNK         0.0600 
    232 H232       -5.5142  -17.4605  -57.7777 H         1 UNK         0.0600 
    233 H233       -6.5374  -16.5725  -56.6608 H         1 UNK         0.0600 
    234 H234       -7.0665  -18.1291  -57.2999 H         1 UNK         0.0600 
    235 H235       -4.7776  -20.1085  -54.0907 H         1 UNK         0.3000 
    236 H236       -3.5436  -21.9194  -56.0027 H         1 UNK         0.0600 
    237 H237       -6.0281  -22.7784  -54.4039 H         1 UNK         0.0600 
    238 H238       -5.9318  -22.6531  -56.1592 H         1 UNK         0.0600 
    239 H239       -4.9803  -23.8633  -55.3132 H         1 UNK         0.0600 
    240 H240       -1.9501  -23.0869  -54.9981 H         1 UNK         0.3000 
    241 H241       -1.2607  -22.3321  -52.2714 H         1 UNK         0.0600 
    242 H242       -2.9394  -25.9433  -51.9569 H         1 UNK         0.3800 
    243 H243       -3.3066  -24.8350  -53.2524 H         1 UNK         0.3800 
    244 H244        0.3031  -24.0863  -54.2210 H         1 UNK         0.0800 
    245 H245        0.8948  -23.4210  -52.7175 H         1 UNK         0.0800 
    246 H246        2.9770  -21.1600  -55.0506 H         1 UNK         0.0800 
    247 H247        2.8546  -22.8497  -54.6329 H         1 UNK         0.0800 
@<TRIPOS>BOND
     1    1    2 1    
     2    1  127 1    
     3    1  128 1    
     4    1  129 1    
     5    2    3 2    
     6    2    4 am   BACKBONE|DICT|INTERRES
     7    4    5 1    
     8    4  130 1    
     9    5    6 1    
    10    5   65 1    
    11    5  131 1    
    12    6    7 1    
    13    6  132 1    
    14    6  133 1    
    15    7    8 1    
    16    8    9 1    
    17    8  134 1    
    18    8  135 1    
    19    9   10 ar   
    20    9   14 ar   
    21   10   11 ar   
    22   10  136 1    
    23   11   12 ar   
    24   11  126 1    
    25   12   13 ar   
    26   12  137 1    
    27   13   14 ar   
    28   13   15 1    
    29   14  138 1    
    30   15   16 1    
    31   15  139 1    
    32   15  140 1    
    33   16   17 1    
    34   17   18 1    
    35   17  141 1    
    36   17  142 1    
    37   18   19 1    
    38   18   67 1    
    39   18  143 1    
    40   19   20 am   BACKBONE|DICT|INTERRES
    41   19  144 1    
    42   20   21 2    
    43   20   22 1    
    44   22   23 1    
    45   22   24 1    
    46   22  145 1    
    47   23  146 1    
    48   23  147 1    
    49   23  148 1    
    50   24   25 am   BACKBONE|DICT|INTERRES
    51   24  149 1    
    52   25   26 2    
    53   25   27 1    
    54   27   28 1    
    55   27   29 1    
    56   27  150 1    
    57   28  151 1    
    58   28  152 1    
    59   28  153 1    
    60   29   30 am   BACKBONE|DICT|INTERRES
    61   29  154 1    
    62   30   31 2    
    63   30   32 1    
    64   32   33 1    
    65   32   34 1    
    66   32  155 1    
    67   33  156 1    
    68   33  157 1    
    69   33  158 1    
    70   34   35 am   BACKBONE|DICT|INTERRES
    71   34  159 1    
    72   35   36 2    
    73   35   37 1    
    74   37   38 1    
    75   37   39 1    
    76   37  160 1    
    77   38  161 1    
    78   38  162 1    
    79   38  163 1    
    80   39   40 am   BACKBONE|DICT|INTERRES
    81   39  164 1    
    82   40   41 2    
    83   40   42 1    
    84   42   43 1    
    85   42   44 1    
    86   42  165 1    
    87   43  166 1    
    88   43  167 1    
    89   43  168 1    
    90   44   45 am   BACKBONE|DICT|INTERRES
    91   44  169 1    
    92   45   46 2    
    93   45   47 1    
    94   47   48 1    
    95   47   49 1    
    96   47  170 1    
    97   48  171 1    
    98   48  172 1    
    99   48  173 1    
   100   49   50 am   BACKBONE|DICT|INTERRES
   101   49  174 1    
   102   50   51 2    
   103   50   52 1    
   104   52   53 1    
   105   52   54 1    
   106   52  175 1    
   107   53  176 1    
   108   53  177 1    
   109   53  178 1    
   110   54   55 am   BACKBONE|DICT|INTERRES
   111   54  179 1    
   112   55   56 2    
   113   55   57 1    
   114   57   58 1    
   115   57   59 1    
   116   57  180 1    
   117   58  181 1    
   118   58  182 1    
   119   58  183 1    
   120   59   60 am   BACKBONE|DICT|INTERRES
   121   59  184 1    
   122   60   61 2    
   123   60   62 1    
   124   62   63 1    
   125   62   64 1    
   126   62  185 1    
   127   63  186 1    
   128   63  187 1    
   129   63  188 1    
   130   64   65 am   BACKBONE|DICT|INTERRES
   131   64  189 1    
   132   65   66 2    
   133   67   68 2    
   134   67   69 am   BACKBONE|DICT|INTERRES
   135   69   70 1    
   136   69  190 1    
   137   70   71 1    
   138   70   72 1    
   139   70  191 1    
   140   71  192 1    
   141   71  193 1    
   142   71  194 1    
   143   72   73 2    
   144   72   74 am   BACKBONE|DICT|INTERRES
   145   74   75 1    
   146   74  195 1    
   147   75   76 1    
   148   75   77 1    
   149   75  196 1    
   150   76  197 1    
   151   76  198 1    
   152   76  199 1    
   153   77   78 2    
   154   77   79 am   BACKBONE|DICT|INTERRES
   155   79   80 1    
   156   79  200 1    
   157   80   81 1    
   158   80   82 1    
   159   80  201 1    
   160   81  202 1    
   161   81  203 1    
   162   81  204 1    
   163   82   83 2    
   164   82   84 am   BACKBONE|DICT|INTERRES
   165   84   85 1    
   166   84  205 1    
   167   85   86 1    
   168   85   87 1    
   169   85  206 1    
   170   86  207 1    
   171   86  208 1    
   172   86  209 1    
   173   87   88 2    
   174   87   89 am   BACKBONE|DICT|INTERRES
   175   89   90 1    
   176   89  210 1    
   177   90   91 1    
   178   90   92 1    
   179   90  211 1    
   180   91  212 1    
   181   91  213 1    
   182   91  214 1    
   183   92   93 2    
   184   92   94 am   BACKBONE|DICT|INTERRES
   185   94   95 1    
   186   94  215 1    
   187   95   96 1    
   188   95   97 1    
   189   95  216 1    
   190   96  217 1    
   191   96  218 1    
   192   96  219 1    
   193   97   98 2    
   194   97   99 am   BACKBONE|DICT|INTERRES
   195   99  100 1    
   196   99  220 1    
   197  100  101 1    
   198  100  102 1    
   199  100  221 1    
   200  101  222 1    
   201  101  223 1    
   202  101  224 1    
   203  102  103 2    
   204  102  104 am   BACKBONE|DICT|INTERRES
   205  104  105 1    
   206  104  225 1    
   207  105  106 1    
   208  105  107 1    
   209  105  226 1    
   210  106  227 1    
   211  106  228 1    
   212  106  229 1    
   213  107  108 2    
   214  107  109 am   BACKBONE|DICT|INTERRES
   215  109  110 1    
   216  109  230 1    
   217  110  111 1    
   218  110  112 1    
   219  110  231 1    
   220  111  232 1    
   221  111  233 1    
   222  111  234 1    
   223  112  113 2    
   224  112  114 am   BACKBONE|DICT|INTERRES
   225  114  115 1    
   226  114  235 1    
   227  115  116 1    
   228  115  117 1    
   229  115  236 1    
   230  116  237 1    
   231  116  238 1    
   232  116  239 1    
   233  117  118 2    
   234  117  119 am   BACKBONE|DICT|INTERRES
   235  119  120 1    
   236  119  240 1    
   237  120  121 1    
   238  120  124 1    
   239  120  241 1    
   240  121  122 am   BACKBONE|DICT|INTERRES
   241  121  123 2    
   242  122  242 1    
   243  122  243 1    
   244  124  125 1    
   245  124  244 1    
   246  124  245 1    
   247  125  126 1    
   248  126  246 1    
   249  126  247 1    
@<TRIPOS>SUBSTRUCTURE
     1 UNK         1 GROUP             0       ****    0 ROOT    
