@<TRIPOS>MOLECULE
3R540
247   249    1
SMALL
USER_CHARGES


@<TRIPOS>ATOM
      1 CA          6.0945  -13.5003  -46.8445 C.3       0 UNK        -0.1800 
      2 C           5.0833  -14.2431  -47.7066 C.2       0 UNK         0.5000 
      3 O           4.0926  -14.7544  -47.1852 O.2       0 UNK        -0.5000 
      4 N           5.3333  -14.3123  -49.0194 N.am      1 UNK        -0.5000 
      5 CA          4.4410  -14.9338  -50.0025 C.3       1 UNK         0.1400 
      6 C6          5.1884  -15.3045  -51.3079 C.3       23 UNK        -0.0398 
      7 S7          6.2037  -16.8007  -51.0552 S.3       23 UNK        -0.2404 
      8 C8          5.2065  -18.0988  -51.8683 C.3       23 UNK        -0.0205 
      9 C9          3.7391  -18.0848  -51.4528 C.ar      23 UNK        -0.0193 
     10 C10         2.7489  -17.7915  -52.3964 C.ar      23 UNK        -0.1150 
     11 C11         1.4015  -17.7593  -52.0278 C.ar      23 UNK        -0.0193 
     12 C12         1.0527  -17.9986  -50.6966 C.ar      23 UNK        -0.1150 
     13 C13         2.0267  -18.2990  -49.7404 C.ar      23 UNK        -0.0193 
     14 C14         3.3697  -18.3522  -50.1299 C.ar      23 UNK        -0.1150 
     15 C15         1.6121  -18.4955  -48.2856 C.3       23 UNK        -0.0205 
     16 S16         2.3791  -19.9313  -47.4642 S.3       23 UNK        -0.2404 
     17 C17         1.6628  -21.3509  -48.3658 C.3       23 UNK        -0.0398 
     18 CA          1.2241  -22.5669  -47.4921 C.3       11 UNK         0.1400 
     19 N           1.9320  -22.6936  -46.2124 N.am      11 UNK        -0.5000 
     20 C           2.0432  -23.8414  -45.5291 C.2       10 UNK         0.5000 
     21 O           1.6041  -24.9184  -45.9330 O.2       10 UNK        -0.5000 
     22 CA          2.6940  -23.7553  -44.1382 C.3       10 UNK         0.1400 
     23 CB          4.2170  -23.5927  -44.2527 C.3       10 UNK        -0.1800 
     24 N           2.1447  -22.6615  -43.3350 N.am      10 UNK        -0.5000 
     25 C           0.8840  -22.5897  -42.8900 C.2       9 UNK         0.5000 
     26 O           0.0417  -23.4569  -43.1171 O.2       9 UNK        -0.5000 
     27 CA          0.4852  -21.3400  -42.0763 C.3       9 UNK         0.1400 
     28 CB          1.4854  -21.0350  -40.9429 C.3       9 UNK        -0.1800 
     29 N           0.2446  -20.1470  -42.8972 N.am      9 UNK        -0.5000 
     30 C           1.1063  -19.5284  -43.7197 C.2       8 UNK         0.5000 
     31 O           2.2608  -19.9018  -43.9274 O.2       8 UNK        -0.5000 
     32 CA          0.5910  -18.2607  -44.4194 C.3       8 UNK         0.1400 
     33 CB         -0.4443  -18.6141  -45.4981 C.3       8 UNK        -0.1800 
     34 N          -0.0049  -17.2950  -43.4996 N.am      8 UNK        -0.5000 
     35 C           0.6099  -16.6808  -42.4798 C.2       7 UNK         0.5000 
     36 O           1.7939  -16.8478  -42.1870 O.2       7 UNK        -0.5000 
     37 CA         -0.2462  -15.7142  -41.6421 C.3       7 UNK         0.1400 
     38 CB         -0.2307  -14.3014  -42.2463 C.3       7 UNK        -0.1800 
     39 N          -1.6330  -16.1687  -41.5425 N.am      7 UNK        -0.5000 
     40 C          -2.1321  -16.8740  -40.5201 C.2       6 UNK         0.5000 
     41 O          -1.4822  -17.1858  -39.5213 O.2       6 UNK        -0.5000 
     42 CA         -3.6104  -17.3029  -40.6190 C.3       6 UNK         0.1400 
     43 CB         -4.5127  -16.2766  -39.9167 C.3       6 UNK        -0.1800 
     44 N          -4.0892  -17.4945  -41.9903 N.am      6 UNK        -0.5000 
     45 C          -3.6631  -18.4581  -42.8169 C.2       5 UNK         0.5000 
     46 O          -2.7836  -19.2714  -42.5281 O.2       5 UNK        -0.5000 
     47 CA         -4.2978  -18.4878  -44.2234 C.3       5 UNK         0.1400 
     48 CB         -5.6655  -19.1852  -44.1827 C.3       5 UNK        -0.1800 
     49 N          -4.4348  -17.1907  -44.9014 N.am      5 UNK        -0.5000 
     50 C          -3.4921  -16.2435  -45.0065 C.2       4 UNK         0.5000 
     51 O          -2.4385  -16.2481  -44.3677 O.2       4 UNK        -0.5000 
     52 CA         -3.7786  -15.0851  -45.9793 C.3       4 UNK         0.1400 
     53 CB         -4.6953  -14.0441  -45.3208 C.3       4 UNK        -0.1800 
     54 N          -2.5340  -14.4308  -46.3868 N.am      4 UNK        -0.5000 
     55 C          -1.6236  -14.9679  -47.2084 C.2       3 UNK         0.5000 
     56 O          -1.8010  -16.0092  -47.8498 O.2       3 UNK        -0.5000 
     57 CA         -0.2724  -14.2379  -47.2824 C.3       3 UNK         0.1400 
     58 CB          0.6754  -14.7693  -46.1976 C.3       3 UNK        -0.1800 
     59 N           0.3588  -14.4303  -48.5834 N.am      3 UNK        -0.5000 
     60 C           0.0953  -13.7072  -49.6781 C.2       2 UNK         0.5000 
     61 O          -0.6592  -12.7332  -49.6874 O.2       2 UNK        -0.5000 
     62 CA          0.7855  -14.1743  -50.9774 C.3       2 UNK         0.1400 
     63 CB          0.7949  -13.1062  -52.0903 C.3       2 UNK        -0.1800 
     64 N           2.1284  -14.7192  -50.7413 N.am      2 UNK        -0.5000 
     65 C           3.2021  -14.0596  -50.2804 C.2       1 UNK         0.5000 
     66 O           3.2393  -12.8433  -50.0778 O.2       1 UNK        -0.5000 
     67 C          -0.3061  -22.6918  -47.3223 C.2       11 UNK         0.5000 
     68 O          -0.9717  -23.1269  -48.2595 O.2       11 UNK        -0.5000 
     69 N          -0.8421  -22.3949  -46.1282 N.am      12 UNK        -0.5000 
     70 CA         -2.2474  -22.6395  -45.7893 C.3       12 UNK         0.1400 
     71 CB         -2.6249  -21.8856  -44.5097 C.3       12 UNK        -0.1800 
     72 C          -2.5525  -24.1393  -45.6496 C.2       12 UNK         0.5000 
     73 O          -3.5488  -24.6049  -46.2008 O.2       12 UNK        -0.5000 
     74 N          -1.6629  -24.8789  -44.9718 N.am      13 UNK        -0.5000 
     75 CA         -1.7189  -26.3374  -44.8344 C.3       13 UNK         0.1400 
     76 CB         -0.6416  -26.7976  -43.8411 C.3       13 UNK        -0.1800 
     77 C          -1.5765  -27.0744  -46.1814 C.2       13 UNK         0.5000 
     78 O          -2.1882  -28.1264  -46.3680 O.2       13 UNK        -0.5000 
     79 N          -0.8130  -26.4823  -47.1098 N.am      14 UNK        -0.5000 
     80 CA         -0.6778  -26.9243  -48.4995 C.3       14 UNK         0.1400 
     81 CB          0.6150  -26.3296  -49.0807 C.3       14 UNK        -0.1800 
     82 C          -1.8859  -26.5544  -49.3902 C.2       14 UNK         0.5000 
     83 O          -1.9201  -26.9815  -50.5448 O.2       14 UNK        -0.5000 
     84 N          -2.8356  -25.7662  -48.8595 N.am      15 UNK        -0.5000 
     85 CA         -4.0206  -25.2144  -49.5267 C.3       15 UNK         0.1400 
     86 CB         -5.0014  -26.3343  -49.9324 C.3       15 UNK        -0.1800 
     87 C          -3.6583  -24.2654  -50.6882 C.2       15 UNK         0.5000 
     88 O          -4.2976  -24.2969  -51.7409 O.2       15 UNK        -0.5000 
     89 N          -2.6274  -23.4419  -50.4687 N.am      16 UNK        -0.5000 
     90 CA         -2.0446  -22.5230  -51.4402 C.3       16 UNK         0.1400 
     91 CB         -0.7825  -23.1658  -52.0438 C.3       16 UNK        -0.1800 
     92 C          -1.7615  -21.1487  -50.8061 C.2       16 UNK         0.5000 
     93 O          -0.8377  -20.4610  -51.2340 O.2       16 UNK        -0.5000 
     94 N          -2.5613  -20.7531  -49.8061 N.am      17 UNK        -0.5000 
     95 CA         -2.5894  -19.3886  -49.2734 C.3       17 UNK         0.1400 
     96 CB         -3.2461  -19.4052  -47.8838 C.3       17 UNK        -0.1800 
     97 C          -3.3540  -18.4502  -50.2262 C.2       17 UNK         0.5000 
     98 O          -4.0710  -18.9253  -51.1111 O.2       17 UNK        -0.5000 
     99 N          -3.2641  -17.1321  -50.0013 N.am      18 UNK        -0.5000 
    100 CA        -4.0309  -16.1247  -50.7500 C.3       18 UNK         0.1400 
    101 CB        -3.5647  -14.7171  -50.3624 C.3       18 UNK        -0.1800 
    102 C         -5.5562  -16.2565  -50.5641 C.2       18 UNK         0.5000 
    103 O         -6.3117  -15.9159  -51.4737 O.2       18 UNK        -0.5000 
    104 N         -5.9753  -16.8256  -49.4244 N.am      19 UNK        -0.5000 
    105 CA        -7.3540  -17.2276  -49.1312 C.3       19 UNK         0.1400 
    106 CB        -7.4377  -17.6468  -47.6552 C.3       19 UNK        -0.1800 
    107 C         -7.8738  -18.3603  -50.0454 C.2       19 UNK         0.5000 
    108 O         -9.0857  -18.4875  -50.2194 O.2       19 UNK        -0.5000 
    109 N         -6.9519  -19.1402  -50.6265 N.am      20 UNK        -0.5000 
    110 CA        -7.2035  -20.1852  -51.6187 C.3       20 UNK         0.1400 
    111 CB        -6.4596  -21.4602  -51.1786 C.3       20 UNK        -0.1800 
    112 C         -6.7591  -19.7332  -53.0273 C.2       20 UNK         0.5000 
    113 O         -6.5683  -20.5791  -53.9026 O.2       20 UNK        -0.5000 
    114 N         -6.5571  -18.4178  -53.2183 N.am      21 UNK        -0.5000 
    115 CA        -6.0907  -17.7489  -54.4408 C.3       21 UNK         0.1400 
    116 CB        -7.1688  -17.8292  -55.5412 C.3       21 UNK        -0.1800 
    117 C         -4.7062  -18.2343  -54.9272 C.2       21 UNK         0.5000 
    118 O         -4.4202  -18.1802  -56.1244 O.2       21 UNK        -0.5000 
    119 N         -3.8769  -18.7128  -53.9903 N.am      22 UNK        -0.5000 
    120 CA        -2.5975  -19.3936  -54.2330 C.3       22 UNK         0.1400 
    121 C         -2.7307  -20.8051  -54.8901 C.2       22 UNK         0.5000 
    122 N         -3.9051  -21.4269  -54.9020 N.am      22 UNK        -0.7600 
    123 O         -1.7546  -21.3678  -55.3767 O.2       22 UNK        -0.5000 
    124 C124       -1.5376  -18.4755  -54.9101 C.3       23 UNK        -0.0398 
    125 S125        0.1470  -18.7852  -54.2752 S.3       23 UNK        -0.2404 
    126 C126        0.3225  -17.4455  -53.0558 C.3       23 UNK        -0.0205 
    127 H127        5.6130  -12.6622  -46.3407 H         1 UNK         0.0600 
    128 H128        6.9237  -13.1110  -47.4358 H         1 UNK         0.0600 
    129 H129        6.5020  -14.1677  -46.0852 H         1 UNK         0.0600 
    130 H130        6.1532  -13.8576  -49.3937 H         1 UNK         0.3000 
    131 H131        4.0629  -15.8501  -49.5487 H         1 UNK         0.0600 
    132 H132        5.8329  -14.4858  -51.6317 H         1 UNK         0.0800 
    133 H133        4.5021  -15.4818  -52.1374 H         1 UNK         0.0800 
    134 H134        5.3006  -17.9835  -52.9492 H         1 UNK         0.0800 
    135 H135        5.6339  -19.0734  -51.6289 H         1 UNK         0.0800 
    136 H136        3.0221  -17.5925  -53.4234 H         1 UNK         0.1150 
    137 H137        0.0136  -17.9515  -50.4079 H         1 UNK         0.1150 
    138 H138        4.1341  -18.5688  -49.3967 H         1 UNK         0.1150 
    139 H139        1.8875  -17.5990  -47.7298 H         1 UNK         0.0800 
    140 H140        0.5294  -18.5853  -48.2083 H         1 UNK         0.0800 
    141 H141        2.4349  -21.6817  -49.0616 H         1 UNK         0.0800 
    142 H142        0.8482  -21.0040  -49.0047 H         1 UNK         0.0800 
    143 H143        1.5013  -23.4472  -48.0751 H         1 UNK         0.0600 
    144 H144        2.3161  -21.8412  -45.8255 H         1 UNK         0.3000 
    145 H145        2.4890  -24.6927  -43.6169 H         1 UNK         0.0600 
    146 H146        4.6897  -23.6189  -43.2707 H         1 UNK         0.0600 
    147 H147        4.4889  -22.6504  -44.7300 H         1 UNK         0.0600 
    148 H148        4.6525  -24.3993  -44.8440 H         1 UNK         0.0600 
    149 H149        2.7321  -21.8470  -43.2026 H         1 UNK         0.3000 
    150 H150       -0.4715  -21.5731  -41.6060 H         1 UNK         0.0600 
    151 H151        1.6456  -21.9136  -40.3168 H         1 UNK         0.0600 
    152 H152        1.1096  -20.2411  -40.2972 H         1 UNK         0.0600 
    153 H153        2.4583  -20.7192  -41.3199 H         1 UNK         0.0600 
    154 H154       -0.6851  -19.7498  -42.8071 H         1 UNK         0.3000 
    155 H155        1.4457  -17.7854  -44.9046 H         1 UNK         0.0600 
    156 H156       -0.1436  -19.4806  -46.0854 H         1 UNK         0.0600 
    157 H157       -0.5949  -17.7824  -46.1844 H         1 UNK         0.0600 
    158 H158       -1.4093  -18.8458  -45.0572 H         1 UNK         0.0600 
    159 H159       -0.9659  -17.0296  -43.7010 H         1 UNK         0.3000 
    160 H160        0.2038  -15.6556  -40.6488 H         1 UNK         0.0600 
    161 H161       -0.7770  -14.2594  -43.1883 H         1 UNK         0.0600 
    162 H162        0.7887  -13.9626  -42.4357 H         1 UNK         0.0600 
    163 H163       -0.6910  -13.5836  -41.5672 H         1 UNK         0.0600 
    164 H164       -2.2162  -16.0128  -42.3567 H         1 UNK         0.3000 
    165 H165       -3.7079  -18.2563  -40.0954 H         1 UNK         0.0600 
    166 H166       -5.5506  -16.6095  -39.8991 H         1 UNK         0.0600 
    167 H167       -4.2033  -16.1275  -38.8813 H         1 UNK         0.0600 
    168 H168       -4.4785  -15.3056  -40.4125 H         1 UNK         0.0600 
    169 H169       -4.7942  -16.8527  -42.3215 H         1 UNK         0.3000 
    170 H170       -3.6505  -19.0924  -44.8560 H         1 UNK         0.0600 
    171 H171       -6.4057  -18.5892  -43.6477 H         1 UNK         0.0600 
    172 H172       -5.5988  -20.1522  -43.6821 H         1 UNK         0.0600 
    173 H173       -6.0450  -19.3701  -45.1876 H         1 UNK         0.0600 
    174 H174       -5.2942  -17.0632  -45.4138 H         1 UNK         0.3000 
    175 H175       -4.2726  -15.4851  -46.8671 H         1 UNK         0.0600 
    176 H176       -4.2457  -13.6235  -44.4201 H         1 UNK         0.0600 
    177 H177       -4.9104  -13.2217  -46.0034 H         1 UNK         0.0600 
    178 H178       -5.6514  -14.4847  -45.0354 H         1 UNK         0.0600 
    179 H179       -2.2897  -13.5963  -45.8748 H         1 UNK         0.3000 
    180 H180       -0.4353  -13.1716  -47.1113 H         1 UNK         0.0600 
    181 H181        1.6026  -14.1973  -46.1717 H         1 UNK         0.0600 
    182 H182        0.9324  -15.8152  -46.3622 H         1 UNK         0.0600 
    183 H183        0.2239  -14.6981  -45.2094 H         1 UNK         0.0600 
    184 H184        0.9752  -15.2234  -48.6661 H         1 UNK         0.3000 
    185 H185        0.1825  -15.0069  -51.3406 H         1 UNK         0.0600 
    186 H186        1.2845  -13.4791  -52.9899 H         1 UNK         0.0600 
    187 H187       -0.2215  -12.8251  -52.3683 H         1 UNK         0.0600 
    188 H188        1.3092  -12.1967  -51.7793 H         1 UNK         0.0600 
    189 H189        2.2136  -15.7163  -50.8906 H         1 UNK         0.3000 
    190 H190       -0.2319  -22.1035  -45.3804 H         1 UNK         0.3000 
    191 H191       -2.8631  -22.2506  -46.6025 H         1 UNK         0.0600 
    192 H192       -2.2487  -20.8680  -44.5369 H         1 UNK         0.0600 
    193 H193       -2.2278  -22.3579  -43.6124 H         1 UNK         0.0600 
    194 H194       -3.7080  -21.8367  -44.3945 H         1 UNK         0.0600 
    195 H195       -0.9010  -24.4084  -44.4908 H         1 UNK         0.3000 
    196 H196       -2.6959  -26.5945  -44.4202 H         1 UNK         0.0600 
    197 H197       -0.7766  -26.3263  -42.8673 H         1 UNK         0.0600 
    198 H198        0.3615  -26.5552  -44.1923 H         1 UNK         0.0600 
    199 H199       -0.6851  -27.8768  -43.6898 H         1 UNK         0.0600 
    200 H200       -0.2910  -25.6571  -46.8419 H         1 UNK         0.3000 
    201 H201       -0.5850  -28.0122  -48.5077 H         1 UNK         0.0600 
    202 H202        1.4739  -26.5401  -48.4430 H         1 UNK         0.0600 
    203 H203        0.5387  -25.2496  -49.2013 H         1 UNK         0.0600 
    204 H204        0.8291  -26.7501  -50.0639 H         1 UNK         0.0600 
    205 H205       -2.7224  -25.4727  -47.8965 H         1 UNK         0.3000 
    206 H206       -4.5257  -24.5961  -48.7837 H         1 UNK         0.0600 
    207 H207       -4.5955  -26.9647  -50.7240 H         1 UNK         0.0600 
    208 H208       -5.2411  -26.9740  -49.0830 H         1 UNK         0.0600 
    209 H209       -5.9400  -25.9163  -50.2981 H         1 UNK         0.0600 
    210 H210       -2.1397  -23.4749  -49.5734 H         1 UNK         0.3000 
    211 H211       -2.7556  -22.3388  -52.2473 H         1 UNK         0.0600 
    212 H212       -0.0156  -23.3252  -51.2846 H         1 UNK         0.0600 
    213 H213       -0.3535  -22.5347  -52.8234 H         1 UNK         0.0600 
    214 H214       -1.0107  -24.1301  -52.4979 H         1 UNK         0.0600 
    215 H215       -3.3117  -21.3667  -49.5286 H         1 UNK         0.3000 
    216 H216       -1.5701  -19.0185  -49.1679 H         1 UNK         0.0600 
    217 H217       -3.2982  -18.4026  -47.4584 H         1 UNK         0.0600 
    218 H218       -2.6644  -20.0091  -47.1894 H         1 UNK         0.0600 
    219 H219       -4.2603  -19.8054  -47.9158 H         1 UNK         0.0600 
    220 H220       -2.6784  -16.7856  -49.2417 H         1 UNK         0.3000 
    221 H221       -3.8196  -16.2691  -51.8118 H         1 UNK         0.0600 
    222 H222       -3.7383  -14.5082  -49.3068 H         1 UNK         0.0600 
    223 H223       -2.5028  -14.5933  -50.5647 H         1 UNK         0.0600 
    224 H224       -4.0934  -13.9564  -50.9381 H         1 UNK         0.0600 
    225 H225       -5.2775  -17.0771  -48.7422 H         1 UNK         0.3000 
    226 H226       -7.9997  -16.3600  -49.2825 H         1 UNK         0.0600 
    227 H227       -7.1520  -16.8277  -46.9952 H         1 UNK         0.0600 
    228 H228       -8.4552  -17.9359  -47.3882 H         1 UNK         0.0600 
    229 H229       -6.7891  -18.4973  -47.4421 H         1 UNK         0.0600 
    230 H230       -5.9710  -18.9404  -50.4680 H         1 UNK         0.3000 
    231 H231       -8.2698  -20.4117  -51.6737 H         1 UNK         0.0600 
    232 H232       -6.6825  -22.2963  -51.8427 H         1 UNK         0.0600 
    233 H233       -6.7523  -21.7613  -50.1728 H         1 UNK         0.0600 
    234 H234       -5.3782  -21.3197  -51.1852 H         1 UNK         0.0600 
    235 H235       -6.7196  -17.7966  -52.4352 H         1 UNK         0.3000 
    236 H236       -5.9637  -16.6972  -54.1812 H         1 UNK         0.0600 
    237 H237       -7.3061  -18.8500  -55.8990 H         1 UNK         0.0600 
    238 H238       -8.1309  -17.4689  -55.1769 H         1 UNK         0.0600 
    239 H239       -6.8995  -17.2147  -56.4010 H         1 UNK         0.0600 
    240 H240       -4.1913  -18.7345  -53.0245 H         1 UNK         0.3000 
    241 H241       -2.2447  -19.6025  -53.2260 H         1 UNK         0.0600 
    242 H242       -3.9690  -22.3400  -55.3223 H         1 UNK         0.3800 
    243 H243       -4.7433  -20.9979  -54.5227 H         1 UNK         0.3800 
    244 H244       -1.5429  -18.6047  -55.9936 H         1 UNK         0.0800 
    245 H245       -1.7758  -17.4243  -54.7425 H         1 UNK         0.0800 
    246 H246        0.5633  -16.5148  -53.5715 H         1 UNK         0.0800 
    247 H247       -0.6357  -17.2886  -52.5572 H         1 UNK         0.0800 
@<TRIPOS>BOND
     1    1    2 1    
     2    1  127 1    
     3    1  128 1    
     4    1  129 1    
     5    2    3 2    
     6    2    4 am   BACKBONE|DICT|INTERRES
     7    4    5 1    
     8    4  130 1    
     9    5    6 1    
    10    5   65 1    
    11    5  131 1    
    12    6    7 1    
    13    6  132 1    
    14    6  133 1    
    15    7    8 1    
    16    8    9 1    
    17    8  134 1    
    18    8  135 1    
    19    9   10 ar   
    20    9   14 ar   
    21   10   11 ar   
    22   10  136 1    
    23   11   12 ar   
    24   11  126 1    
    25   12   13 ar   
    26   12  137 1    
    27   13   14 ar   
    28   13   15 1    
    29   14  138 1    
    30   15   16 1    
    31   15  139 1    
    32   15  140 1    
    33   16   17 1    
    34   17   18 1    
    35   17  141 1    
    36   17  142 1    
    37   18   19 1    
    38   18   67 1    
    39   18  143 1    
    40   19   20 am   BACKBONE|DICT|INTERRES
    41   19  144 1    
    42   20   21 2    
    43   20   22 1    
    44   22   23 1    
    45   22   24 1    
    46   22  145 1    
    47   23  146 1    
    48   23  147 1    
    49   23  148 1    
    50   24   25 am   BACKBONE|DICT|INTERRES
    51   24  149 1    
    52   25   26 2    
    53   25   27 1    
    54   27   28 1    
    55   27   29 1    
    56   27  150 1    
    57   28  151 1    
    58   28  152 1    
    59   28  153 1    
    60   29   30 am   BACKBONE|DICT|INTERRES
    61   29  154 1    
    62   30   31 2    
    63   30   32 1    
    64   32   33 1    
    65   32   34 1    
    66   32  155 1    
    67   33  156 1    
    68   33  157 1    
    69   33  158 1    
    70   34   35 am   BACKBONE|DICT|INTERRES
    71   34  159 1    
    72   35   36 2    
    73   35   37 1    
    74   37   38 1    
    75   37   39 1    
    76   37  160 1    
    77   38  161 1    
    78   38  162 1    
    79   38  163 1    
    80   39   40 am   BACKBONE|DICT|INTERRES
    81   39  164 1    
    82   40   41 2    
    83   40   42 1    
    84   42   43 1    
    85   42   44 1    
    86   42  165 1    
    87   43  166 1    
    88   43  167 1    
    89   43  168 1    
    90   44   45 am   BACKBONE|DICT|INTERRES
    91   44  169 1    
    92   45   46 2    
    93   45   47 1    
    94   47   48 1    
    95   47   49 1    
    96   47  170 1    
    97   48  171 1    
    98   48  172 1    
    99   48  173 1    
   100   49   50 am   BACKBONE|DICT|INTERRES
   101   49  174 1    
   102   50   51 2    
   103   50   52 1    
   104   52   53 1    
   105   52   54 1    
   106   52  175 1    
   107   53  176 1    
   108   53  177 1    
   109   53  178 1    
   110   54   55 am   BACKBONE|DICT|INTERRES
   111   54  179 1    
   112   55   56 2    
   113   55   57 1    
   114   57   58 1    
   115   57   59 1    
   116   57  180 1    
   117   58  181 1    
   118   58  182 1    
   119   58  183 1    
   120   59   60 am   BACKBONE|DICT|INTERRES
   121   59  184 1    
   122   60   61 2    
   123   60   62 1    
   124   62   63 1    
   125   62   64 1    
   126   62  185 1    
   127   63  186 1    
   128   63  187 1    
   129   63  188 1    
   130   64   65 am   BACKBONE|DICT|INTERRES
   131   64  189 1    
   132   65   66 2    
   133   67   68 2    
   134   67   69 am   BACKBONE|DICT|INTERRES
   135   69   70 1    
   136   69  190 1    
   137   70   71 1    
   138   70   72 1    
   139   70  191 1    
   140   71  192 1    
   141   71  193 1    
   142   71  194 1    
   143   72   73 2    
   144   72   74 am   BACKBONE|DICT|INTERRES
   145   74   75 1    
   146   74  195 1    
   147   75   76 1    
   148   75   77 1    
   149   75  196 1    
   150   76  197 1    
   151   76  198 1    
   152   76  199 1    
   153   77   78 2    
   154   77   79 am   BACKBONE|DICT|INTERRES
   155   79   80 1    
   156   79  200 1    
   157   80   81 1    
   158   80   82 1    
   159   80  201 1    
   160   81  202 1    
   161   81  203 1    
   162   81  204 1    
   163   82   83 2    
   164   82   84 am   BACKBONE|DICT|INTERRES
   165   84   85 1    
   166   84  205 1    
   167   85   86 1    
   168   85   87 1    
   169   85  206 1    
   170   86  207 1    
   171   86  208 1    
   172   86  209 1    
   173   87   88 2    
   174   87   89 am   BACKBONE|DICT|INTERRES
   175   89   90 1    
   176   89  210 1    
   177   90   91 1    
   178   90   92 1    
   179   90  211 1    
   180   91  212 1    
   181   91  213 1    
   182   91  214 1    
   183   92   93 2    
   184   92   94 am   BACKBONE|DICT|INTERRES
   185   94   95 1    
   186   94  215 1    
   187   95   96 1    
   188   95   97 1    
   189   95  216 1    
   190   96  217 1    
   191   96  218 1    
   192   96  219 1    
   193   97   98 2    
   194   97   99 am   BACKBONE|DICT|INTERRES
   195   99  100 1    
   196   99  220 1    
   197  100  101 1    
   198  100  102 1    
   199  100  221 1    
   200  101  222 1    
   201  101  223 1    
   202  101  224 1    
   203  102  103 2    
   204  102  104 am   BACKBONE|DICT|INTERRES
   205  104  105 1    
   206  104  225 1    
   207  105  106 1    
   208  105  107 1    
   209  105  226 1    
   210  106  227 1    
   211  106  228 1    
   212  106  229 1    
   213  107  108 2    
   214  107  109 am   BACKBONE|DICT|INTERRES
   215  109  110 1    
   216  109  230 1    
   217  110  111 1    
   218  110  112 1    
   219  110  231 1    
   220  111  232 1    
   221  111  233 1    
   222  111  234 1    
   223  112  113 2    
   224  112  114 am   BACKBONE|DICT|INTERRES
   225  114  115 1    
   226  114  235 1    
   227  115  116 1    
   228  115  117 1    
   229  115  236 1    
   230  116  237 1    
   231  116  238 1    
   232  116  239 1    
   233  117  118 2    
   234  117  119 am   BACKBONE|DICT|INTERRES
   235  119  120 1    
   236  119  240 1    
   237  120  121 1    
   238  120  124 1    
   239  120  241 1    
   240  121  122 am   BACKBONE|DICT|INTERRES
   241  121  123 2    
   242  122  242 1    
   243  122  243 1    
   244  124  125 1    
   245  124  244 1    
   246  124  245 1    
   247  125  126 1    
   248  126  246 1    
   249  126  247 1    
@<TRIPOS>SUBSTRUCTURE
     1 UNK         1 GROUP             0       ****    0 ROOT    
