@<TRIPOS>MOLECULE
3R540
247   249    1
SMALL
USER_CHARGES


@<TRIPOS>ATOM
      1 CA          2.4571  -10.6375  -48.7002 C.3       0 UNK        -0.1800 
      2 C           1.9829  -12.0533  -48.4063 C.2       0 UNK         0.5000 
      3 O           1.8873  -12.4396  -47.2412 O.2       0 UNK        -0.5000 
      4 N           1.6705  -12.8255  -49.4540 N.am      1 UNK        -0.5000 
      5 CA          1.2191  -14.2232  -49.3969 C.3       1 UNK         0.1400 
      6 C6          1.5440  -14.9782  -50.7116 C.3       23 UNK        -0.0398 
      7 S7          3.3447  -15.1567  -50.9586 S.3       23 UNK        -0.2404 
      8 C8          3.4273  -16.3660  -52.3272 C.3       23 UNK        -0.0205 
      9 C9          2.7150  -17.6922  -52.0617 C.ar      23 UNK        -0.0193 
     10 C10         2.0776  -18.3478  -53.1188 C.ar      23 UNK        -0.1150 
     11 C11         1.3947  -19.5498  -52.9109 C.ar      23 UNK        -0.0193 
     12 C12         1.3459  -20.0989  -51.6259 C.ar      23 UNK        -0.1150 
     13 C13         1.9896  -19.4620  -50.5610 C.ar      23 UNK        -0.0193 
     14 C14         2.6868  -18.2728  -50.7885 C.ar      23 UNK        -0.1150 
     15 C15         1.9036  -20.0258  -49.1536 C.3       23 UNK        -0.0205 
     16 S16         3.1727  -21.2837  -48.8294 S.3       23 UNK        -0.2404 
     17 C17         2.9991  -21.4349  -47.0189 C.3       23 UNK        -0.0398 
     18 CA          2.4688  -22.7966  -46.5109 C.3       11 UNK         0.1400 
     19 N           2.5754  -22.8273  -45.0546 N.am      11 UNK        -0.5000 
     20 C           3.0916  -23.8053  -44.3050 C.2       10 UNK         0.5000 
     21 O           3.5441  -24.8562  -44.7629 O.2       10 UNK        -0.5000 
     22 CA          3.1169  -23.5262  -42.7850 C.3       10 UNK         0.1400 
     23 CB          3.9143  -24.5714  -41.9772 C.3       10 UNK        -0.1800 
     24 N           3.5673  -22.1594  -42.4899 N.am      10 UNK        -0.5000 
     25 C           4.7674  -21.6172  -42.7471 C.2       9 UNK         0.5000 
     26 O           5.7388  -22.2562  -43.1529 O.2       9 UNK        -0.5000 
     27 CA          4.9075  -20.0917  -42.5571 C.3       9 UNK         0.1400 
     28 CB          4.9234  -19.3907  -43.9248 C.3       9 UNK        -0.1800 
     29 N           3.8507  -19.4910  -41.7396 N.am      9 UNK        -0.5000 
     30 C           3.7733  -19.5713  -40.4042 C.2       8 UNK         0.5000 
     31 O           4.6004  -20.1572  -39.7050 O.2       8 UNK        -0.5000 
     32 CA          2.5543  -18.9000  -39.7415 C.3       8 UNK         0.1400 
     33 CB          2.8160  -17.4076  -39.4869 C.3       8 UNK        -0.1800 
     34 N           1.3369  -19.0540  -40.5395 N.am      8 UNK        -0.5000 
     35 C           0.6706  -20.2092  -40.6725 C.2       7 UNK         0.5000 
     36 O           0.9748  -21.2455  -40.0815 O.2       7 UNK        -0.5000 
     37 CA         -0.5055  -20.2271  -41.6644 C.3       7 UNK         0.1400 
     38 CB         -1.8059  -19.7729  -40.9857 C.3       7 UNK        -0.1800 
     39 N          -0.2627  -19.4153  -42.8590 N.am      7 UNK        -0.5000 
     40 C           0.6916  -19.6670  -43.7657 C.2       6 UNK         0.5000 
     41 O           1.4403  -20.6393  -43.7124 O.2       6 UNK        -0.5000 
     42 CA          0.8821  -18.6468  -44.8993 C.3       6 UNK         0.1400 
     43 CB         -0.0590  -18.9490  -46.0680 C.3       6 UNK        -0.1800 
     44 N           0.6892  -17.2679  -44.4655 N.am      6 UNK        -0.5000 
     45 C           1.4338  -16.6431  -43.5442 C.2       5 UNK         0.5000 
     46 O           2.3976  -17.1592  -42.9780 O.2       5 UNK        -0.5000 
     47 CA          0.9793  -15.2279  -43.1527 C.3       5 UNK         0.1400 
     48 CB          1.4595  -14.1901  -44.1788 C.3       5 UNK        -0.1800 
     49 N          -0.4770  -15.1573  -43.0239 N.am      5 UNK        -0.5000 
     50 C          -1.1714  -15.7165  -42.0227 C.2       4 UNK         0.5000 
     51 O          -0.6480  -16.2914  -41.0678 O.2       4 UNK        -0.5000 
     52 CA         -2.7075  -15.6479  -42.1226 C.3       4 UNK         0.1400 
     53 CB         -3.2267  -14.3174  -41.5577 C.3       4 UNK        -0.1800 
     54 N          -3.1962  -15.8146  -43.4937 N.am      4 UNK        -0.5000 
     55 C          -3.1317  -16.9614  -44.1856 C.2       3 UNK         0.5000 
     56 O          -2.6775  -18.0072  -43.7253 O.2       3 UNK        -0.5000 
     57 CA         -3.6054  -16.9195  -45.6530 C.3       3 UNK         0.1400 
     58 CB         -5.1090  -17.2138  -45.7509 C.3       3 UNK        -0.1800 
     59 N          -3.3075  -15.6515  -46.3290 N.am      3 UNK        -0.5000 
     60 C          -2.0696  -15.1783  -46.5224 C.2       2 UNK         0.5000 
     61 O          -1.0555  -15.7439  -46.1081 O.2       2 UNK        -0.5000 
     62 CA         -1.9454  -13.8214  -47.2365 C.3       2 UNK         0.1400 
     63 CB         -2.0990  -12.6750  -46.2251 C.3       2 UNK        -0.1800 
     64 N          -0.6428  -13.6967  -47.8854 N.am      2 UNK        -0.5000 
     65 C          -0.2730  -14.3342  -49.0018 C.2       1 UNK         0.5000 
     66 O          -1.0559  -14.9813  -49.6985 O.2       1 UNK        -0.5000 
     67 C           0.9995  -23.0664  -46.9090 C.2       11 UNK         0.5000 
     68 O           0.0844  -22.7423  -46.1477 O.2       11 UNK        -0.5000 
     69 N           0.8013  -23.6600  -48.0958 N.am      12 UNK        -0.5000 
     70 CA         -0.4659  -24.2095  -48.6001 C.3       12 UNK         0.1400 
     71 CB         -0.2395  -24.7752  -50.0097 C.3       12 UNK        -0.1800 
     72 C          -1.6667  -23.2448  -48.6053 C.2       12 UNK         0.5000 
     73 O          -2.7942  -23.6817  -48.3623 O.2       12 UNK        -0.5000 
     74 N          -1.4073  -21.9486  -48.8263 N.am      13 UNK        -0.5000 
     75 CA         -2.4071  -20.8751  -48.8462 C.3       13 UNK         0.1400 
     76 CB         -1.7600  -19.5661  -49.3222 C.3       13 UNK        -0.1800 
     77 C          -3.1489  -20.6662  -47.5099 C.2       13 UNK         0.5000 
     78 O          -4.1785  -19.9949  -47.4979 O.2       13 UNK        -0.5000 
     79 N          -2.6570  -21.2722  -46.4196 N.am      14 UNK        -0.5000 
     80 CA         -3.3532  -21.3718  -45.1372 C.3       14 UNK         0.1400 
     81 CB         -2.4253  -22.0648  -44.1320 C.3       14 UNK        -0.1800 
     82 C          -4.6800  -22.1517  -45.2322 C.2       14 UNK         0.5000 
     83 O          -5.6250  -21.8263  -44.5130 O.2       14 UNK        -0.5000 
     84 N          -4.7189  -23.1616  -46.1130 N.am      15 UNK        -0.5000 
     85 CA         -5.8801  -24.0139  -46.3617 C.3       15 UNK         0.1400 
     86 CB         -5.4542  -25.4852  -46.2360 C.3       15 UNK        -0.1800 
     87 C          -6.4805  -23.7493  -47.7512 C.2       15 UNK         0.5000 
     88 O          -7.7038  -23.7354  -47.8893 O.2       15 UNK        -0.5000 
     89 N          -5.6184  -23.5434  -48.7563 N.am      16 UNK        -0.5000 
     90 CA         -6.0030  -23.3537  -50.1570 C.3       16 UNK         0.1400 
     91 CB         -4.8102  -23.7440  -51.0427 C.3       16 UNK        -0.1800 
     92 C          -6.4795  -21.9260  -50.4932 C.2       16 UNK         0.5000 
     93 O          -6.9911  -21.7204  -51.5942 O.2       16 UNK        -0.5000 
     94 N          -6.2961  -20.9834  -49.5555 N.am      17 UNK        -0.5000 
     95 CA         -6.4756  -19.5311  -49.6712 C.3       17 UNK         0.1400 
     96 CB         -7.8873  -19.1582  -50.1722 C.3       17 UNK        -0.1800 
     97 C          -5.3709  -18.8686  -50.5193 C.2       17 UNK         0.5000 
     98 O          -4.5981  -19.5459  -51.1979 O.2       17 UNK        -0.5000 
     99 N          -5.3023  -17.5340  -50.4492 N.am      18 UNK        -0.5000 
    100 CA        -4.3406  -16.7198  -51.1987 C.3       18 UNK         0.1400 
    101 CB        -4.2512  -15.3386  -50.5321 C.3       18 UNK        -0.1800 
    102 C         -4.6999  -16.5765  -52.6925 C.2       18 UNK         0.5000 
    103 O         -3.8316  -16.2391  -53.4975 O.2       18 UNK        -0.5000 
    104 N         -5.9748  -16.8070  -53.0285 N.am      19 UNK        -0.5000 
    105 CA        -6.5218  -16.7281  -54.3796 C.3       19 UNK         0.1400 
    106 CB        -8.0444  -16.5417  -54.2672 C.3       19 UNK        -0.1800 
    107 C         -6.1960  -17.9746  -55.2247 C.2       19 UNK         0.5000 
    108 O         -5.8626  -19.0320  -54.6827 O.2       19 UNK        -0.5000 
    109 N         -6.3663  -17.8251  -56.5459 N.am      20 UNK        -0.5000 
    110 CA        -6.2590  -18.8610  -57.5764 C.3       20 UNK         0.1400 
    111 CB        -7.4458  -19.8465  -57.4639 C.3       20 UNK        -0.1800 
    112 C         -4.8697  -19.5344  -57.5948 C.2       20 UNK         0.5000 
    113 O         -3.8628  -18.8326  -57.7037 O.2       20 UNK        -0.5000 
    114 N         -4.8375  -20.8704  -57.5106 N.am      21 UNK        -0.5000 
    115 CA        -3.6258  -21.6901  -57.5490 C.3       21 UNK         0.1400 
    116 CB        -4.0258  -23.1339  -57.8943 C.3       21 UNK        -0.1800 
    117 C         -2.7989  -21.6569  -56.2477 C.2       21 UNK         0.5000 
    118 O         -1.6533  -22.1067  -56.2729 O.2       21 UNK        -0.5000 
    119 N         -3.3926  -21.1605  -55.1504 N.am      22 UNK        -0.5000 
    120 CA        -2.8252  -21.0058  -53.7945 C.3       22 UNK         0.1400 
    121 C         -2.1892  -22.2669  -53.1283 C.2       22 UNK         0.5000 
    122 N         -2.4246  -23.4746  -53.6251 N.am      22 UNK        -0.7600 
    123 O         -1.5068  -22.1629  -52.1143 O.2       22 UNK        -0.5000 
    124 C124       -2.0055  -19.6924  -53.5910 C.3       23 UNK        -0.0398 
    125 S125       -0.6651  -19.3500  -54.7849 S.3       23 UNK        -0.2404 
    126 C126        0.7464  -20.2662  -54.0867 C.3       23 UNK        -0.0205 
    127 H127        2.4907  -10.4350  -49.7709 H         1 UNK         0.0600 
    128 H128        3.4570  -10.4857  -48.2938 H         1 UNK         0.0600 
    129 H129        1.7861   -9.9139  -48.2374 H         1 UNK         0.0600 
    130 H130        1.7541  -12.4404  -50.3839 H         1 UNK         0.3000 
    131 H131        1.7680  -14.7238  -48.5958 H         1 UNK         0.0600 
    132 H132        1.1029  -15.9754  -50.6918 H         1 UNK         0.0800 
    133 H133        1.1099  -14.4689  -51.5734 H         1 UNK         0.0800 
    134 H134        4.4754  -16.5749  -52.5442 H         1 UNK         0.0800 
    135 H135        3.0160  -15.8922  -53.2200 H         1 UNK         0.0800 
    136 H136        2.1080  -17.9219  -54.1121 H         1 UNK         0.1150 
    137 H137        0.8121  -21.0234  -51.4551 H         1 UNK         0.1150 
    138 H138        3.1869  -17.7864  -49.9632 H         1 UNK         0.1150 
    139 H139        1.9986  -19.2118  -48.4331 H         1 UNK         0.0800 
    140 H140        0.9254  -20.4700  -48.9896 H         1 UNK         0.0800 
    141 H141        2.3881  -20.6229  -46.6281 H         1 UNK         0.0800 
    142 H142        3.9943  -21.2662  -46.6041 H         1 UNK         0.0800 
    143 H143        3.0889  -23.5879  -46.9374 H         1 UNK         0.0600 
    144 H144        2.1542  -22.0346  -44.5719 H         1 UNK         0.3000 
    145 H145        2.0795  -23.5783  -42.4511 H         1 UNK         0.0600 
    146 H146        3.9063  -24.3356  -40.9131 H         1 UNK         0.0600 
    147 H147        3.4795  -25.5647  -42.0930 H         1 UNK         0.0600 
    148 H148        4.9537  -24.6328  -42.3001 H         1 UNK         0.0600 
    149 H149        2.8302  -21.5152  -42.2330 H         1 UNK         0.3000 
    150 H150        5.8672  -19.9082  -42.0696 H         1 UNK         0.0600 
    151 H151        5.7429  -19.7574  -44.5442 H         1 UNK         0.0600 
    152 H152        5.0536  -18.3137  -43.8168 H         1 UNK         0.0600 
    153 H153        3.9973  -19.5633  -44.4726 H         1 UNK         0.0600 
    154 H154        3.1604  -18.9314  -42.2287 H         1 UNK         0.3000 
    155 H155        2.3937  -19.3816  -38.7746 H         1 UNK         0.0600 
    156 H156        3.6894  -17.2697  -38.8484 H         1 UNK         0.0600 
    157 H157        1.9687  -16.9391  -38.9856 H         1 UNK         0.0600 
    158 H158        2.9989  -16.8625  -40.4128 H         1 UNK         0.0600 
    159 H159        1.0231  -18.2462  -41.0610 H         1 UNK         0.3000 
    160 H160       -0.6342  -21.2634  -41.9803 H         1 UNK         0.0600 
    161 H161       -1.7507  -18.7333  -40.6632 H         1 UNK         0.0600 
    162 H162       -2.0197  -20.3797  -40.1050 H         1 UNK         0.0600 
    163 H163       -2.6567  -19.8689  -41.6603 H         1 UNK         0.0600 
    164 H164       -0.9002  -18.6432  -43.0230 H         1 UNK         0.3000 
    165 H165        1.9087  -18.7318  -45.2576 H         1 UNK         0.0600 
    166 H166        0.1055  -18.2475  -46.8855 H         1 UNK         0.0600 
    167 H167        0.0985  -19.9560  -46.4534 H         1 UNK         0.0600 
    168 H168       -1.1030  -18.8771  -45.7680 H         1 UNK         0.0600 
    169 H169       -0.0535  -16.7467  -44.9262 H         1 UNK         0.3000 
    170 H170        1.4271  -14.9851  -42.1866 H         1 UNK         0.0600 
    171 H171        2.5467  -14.2021  -44.2644 H         1 UNK         0.0600 
    172 H172        1.0538  -14.3796  -45.1729 H         1 UNK         0.0600 
    173 H173        1.1684  -13.1811  -43.8868 H         1 UNK         0.0600 
    174 H174       -0.9817  -14.7522  -43.7977 H         1 UNK         0.3000 
    175 H175       -3.1152  -16.4587  -41.5148 H         1 UNK         0.0600 
    176 H176       -2.8929  -14.1738  -40.5291 H         1 UNK         0.0600 
    177 H177       -2.8730  -13.4655  -42.1398 H         1 UNK         0.0600 
    178 H178       -4.3165  -14.2907  -41.5508 H         1 UNK         0.0600 
    179 H179       -3.5861  -15.0002  -43.9442 H         1 UNK         0.3000 
    180 H180       -3.0776  -17.7088  -46.1907 H         1 UNK         0.0600 
    181 H181       -5.3487  -18.1687  -45.2806 H         1 UNK         0.0600 
    182 H182       -5.7059  -16.4440  -45.2606 H         1 UNK         0.0600 
    183 H183       -5.4290  -17.2807  -46.7910 H         1 UNK         0.0600 
    184 H184       -4.0982  -15.1257  -46.6724 H         1 UNK         0.3000 
    185 H185       -2.7293  -13.7405  -47.9921 H         1 UNK         0.0600 
    186 H186       -3.0698  -12.7131  -45.7294 H         1 UNK         0.0600 
    187 H187       -1.3313  -12.7147  -45.4508 H         1 UNK         0.0600 
    188 H188       -2.0255  -11.7050  -46.7172 H         1 UNK         0.0600 
    189 H189        0.0834  -13.2107  -47.3689 H         1 UNK         0.3000 
    190 H190        1.6112  -23.8501  -48.6688 H         1 UNK         0.3000 
    191 H191       -0.7342  -25.0391  -47.9431 H         1 UNK         0.0600 
    192 H192        0.1004  -24.0029  -50.7012 H         1 UNK         0.0600 
    193 H193       -1.1605  -25.1953  -50.4169 H         1 UNK         0.0600 
    194 H194        0.5043  -25.5721  -50.0026 H         1 UNK         0.0600 
    195 H195       -0.4559  -21.6917  -49.0337 H         1 UNK         0.3000 
    196 H196       -3.1614  -21.1587  -49.5817 H         1 UNK         0.0600 
    197 H197       -2.5010  -18.7709  -49.4064 H         1 UNK         0.0600 
    198 H198       -1.3032  -19.6871  -50.3028 H         1 UNK         0.0600 
    199 H199       -0.9941  -19.2151  -48.6368 H         1 UNK         0.0600 
    200 H200       -1.7911  -21.7943  -46.4994 H         1 UNK         0.3000 
    201 H201       -3.5672  -20.3606  -44.7863 H         1 UNK         0.0600 
    202 H202       -1.4473  -21.5905  -44.1166 H         1 UNK         0.0600 
    203 H203       -2.2700  -23.1152  -44.3822 H         1 UNK         0.0600 
    204 H204       -2.8367  -22.0208  -43.1231 H         1 UNK         0.0600 
    205 H205       -3.8993  -23.3380  -46.6835 H         1 UNK         0.3000 
    206 H206       -6.6618  -23.8256  -45.6229 H         1 UNK         0.0600 
    207 H207       -5.0820  -25.7013  -45.2344 H         1 UNK         0.0600 
    208 H208       -6.2960  -26.1536  -46.4213 H         1 UNK         0.0600 
    209 H209       -4.6673  -25.7406  -46.9471 H         1 UNK         0.0600 
    210 H210       -4.6191  -23.5985  -48.5742 H         1 UNK         0.3000 
    211 H211       -6.8275  -24.0318  -50.3873 H         1 UNK         0.0600 
    212 H212       -5.0632  -23.6679  -52.1009 H         1 UNK         0.0600 
    213 H213       -4.4960  -24.7710  -50.8566 H         1 UNK         0.0600 
    214 H214       -3.9532  -23.0950  -50.8638 H         1 UNK         0.0600 
    215 H215       -5.8428  -21.2755  -48.7012 H         1 UNK         0.3000 
    216 H216       -6.3761  -19.1418  -48.6573 H         1 UNK         0.0600 
    217 H217       -8.0856  -18.0958  -50.0289 H         1 UNK         0.0600 
    218 H218       -8.6571  -19.7048  -49.6274 H         1 UNK         0.0600 
    219 H219       -8.0140  -19.3672  -51.2348 H         1 UNK         0.0600 
    220 H220       -5.9525  -17.0347  -49.8600 H         1 UNK         0.3000 
    221 H221       -3.3566  -17.1902  -51.1408 H         1 UNK         0.0600 
    222 H222       -5.2098  -14.8187  -50.5467 H         1 UNK         0.0600 
    223 H223       -3.9282  -15.4252  -49.4948 H         1 UNK         0.0600 
    224 H224       -3.5255  -14.7048  -51.0436 H         1 UNK         0.0600 
    225 H225       -6.6030  -17.1273  -52.3083 H         1 UNK         0.3000 
    226 H226       -6.0983  -15.8531  -54.8773 H         1 UNK         0.0600 
    227 H227       -8.2914  -15.6479  -53.6938 H         1 UNK         0.0600 
    228 H228       -8.5037  -16.4299  -55.2501 H         1 UNK         0.0600 
    229 H229       -8.5185  -17.3949  -53.7799 H         1 UNK         0.0600 
    230 H230       -6.6117  -16.9077  -56.8905 H         1 UNK         0.3000 
    231 H231       -6.3525  -18.3486  -58.5349 H         1 UNK         0.0600 
    232 H232       -8.3960  -19.3136  -57.5014 H         1 UNK         0.0600 
    233 H233       -7.4253  -20.4120  -56.5314 H         1 UNK         0.0600 
    234 H234       -7.4511  -20.5585  -58.2902 H         1 UNK         0.0600 
    235 H235       -5.7124  -21.3653  -57.4153 H         1 UNK         0.3000 
    236 H236       -2.9833  -21.3156  -58.3488 H         1 UNK         0.0600 
    237 H237       -4.5451  -23.1816  -58.8518 H         1 UNK         0.0600 
    238 H238       -3.1478  -23.7765  -57.9720 H         1 UNK         0.0600 
    239 H239       -4.6803  -23.5630  -57.1346 H         1 UNK         0.0600 
    240 H240       -4.3342  -20.8049  -55.2523 H         1 UNK         0.3000 
    241 H241       -3.7197  -20.8751  -53.1871 H         1 UNK         0.0600 
    242 H242       -2.9587  -23.5851  -54.4708 H         1 UNK         0.3800 
    243 H243       -2.0147  -24.2778  -53.1782 H         1 UNK         0.3800 
    244 H244       -2.6979  -18.8533  -53.6677 H         1 UNK         0.0800 
    245 H245       -1.6067  -19.6258  -52.5794 H         1 UNK         0.0800 
    246 H246        0.4361  -21.2743  -53.8123 H         1 UNK         0.0800 
    247 H247        1.4943  -20.3904  -54.8708 H         1 UNK         0.0800 
@<TRIPOS>BOND
     1    1    2 1    
     2    1  127 1    
     3    1  128 1    
     4    1  129 1    
     5    2    3 2    
     6    2    4 am   BACKBONE|DICT|INTERRES
     7    4    5 1    
     8    4  130 1    
     9    5    6 1    
    10    5   65 1    
    11    5  131 1    
    12    6    7 1    
    13    6  132 1    
    14    6  133 1    
    15    7    8 1    
    16    8    9 1    
    17    8  134 1    
    18    8  135 1    
    19    9   10 ar   
    20    9   14 ar   
    21   10   11 ar   
    22   10  136 1    
    23   11   12 ar   
    24   11  126 1    
    25   12   13 ar   
    26   12  137 1    
    27   13   14 ar   
    28   13   15 1    
    29   14  138 1    
    30   15   16 1    
    31   15  139 1    
    32   15  140 1    
    33   16   17 1    
    34   17   18 1    
    35   17  141 1    
    36   17  142 1    
    37   18   19 1    
    38   18   67 1    
    39   18  143 1    
    40   19   20 am   BACKBONE|DICT|INTERRES
    41   19  144 1    
    42   20   21 2    
    43   20   22 1    
    44   22   23 1    
    45   22   24 1    
    46   22  145 1    
    47   23  146 1    
    48   23  147 1    
    49   23  148 1    
    50   24   25 am   BACKBONE|DICT|INTERRES
    51   24  149 1    
    52   25   26 2    
    53   25   27 1    
    54   27   28 1    
    55   27   29 1    
    56   27  150 1    
    57   28  151 1    
    58   28  152 1    
    59   28  153 1    
    60   29   30 am   BACKBONE|DICT|INTERRES
    61   29  154 1    
    62   30   31 2    
    63   30   32 1    
    64   32   33 1    
    65   32   34 1    
    66   32  155 1    
    67   33  156 1    
    68   33  157 1    
    69   33  158 1    
    70   34   35 am   BACKBONE|DICT|INTERRES
    71   34  159 1    
    72   35   36 2    
    73   35   37 1    
    74   37   38 1    
    75   37   39 1    
    76   37  160 1    
    77   38  161 1    
    78   38  162 1    
    79   38  163 1    
    80   39   40 am   BACKBONE|DICT|INTERRES
    81   39  164 1    
    82   40   41 2    
    83   40   42 1    
    84   42   43 1    
    85   42   44 1    
    86   42  165 1    
    87   43  166 1    
    88   43  167 1    
    89   43  168 1    
    90   44   45 am   BACKBONE|DICT|INTERRES
    91   44  169 1    
    92   45   46 2    
    93   45   47 1    
    94   47   48 1    
    95   47   49 1    
    96   47  170 1    
    97   48  171 1    
    98   48  172 1    
    99   48  173 1    
   100   49   50 am   BACKBONE|DICT|INTERRES
   101   49  174 1    
   102   50   51 2    
   103   50   52 1    
   104   52   53 1    
   105   52   54 1    
   106   52  175 1    
   107   53  176 1    
   108   53  177 1    
   109   53  178 1    
   110   54   55 am   BACKBONE|DICT|INTERRES
   111   54  179 1    
   112   55   56 2    
   113   55   57 1    
   114   57   58 1    
   115   57   59 1    
   116   57  180 1    
   117   58  181 1    
   118   58  182 1    
   119   58  183 1    
   120   59   60 am   BACKBONE|DICT|INTERRES
   121   59  184 1    
   122   60   61 2    
   123   60   62 1    
   124   62   63 1    
   125   62   64 1    
   126   62  185 1    
   127   63  186 1    
   128   63  187 1    
   129   63  188 1    
   130   64   65 am   BACKBONE|DICT|INTERRES
   131   64  189 1    
   132   65   66 2    
   133   67   68 2    
   134   67   69 am   BACKBONE|DICT|INTERRES
   135   69   70 1    
   136   69  190 1    
   137   70   71 1    
   138   70   72 1    
   139   70  191 1    
   140   71  192 1    
   141   71  193 1    
   142   71  194 1    
   143   72   73 2    
   144   72   74 am   BACKBONE|DICT|INTERRES
   145   74   75 1    
   146   74  195 1    
   147   75   76 1    
   148   75   77 1    
   149   75  196 1    
   150   76  197 1    
   151   76  198 1    
   152   76  199 1    
   153   77   78 2    
   154   77   79 am   BACKBONE|DICT|INTERRES
   155   79   80 1    
   156   79  200 1    
   157   80   81 1    
   158   80   82 1    
   159   80  201 1    
   160   81  202 1    
   161   81  203 1    
   162   81  204 1    
   163   82   83 2    
   164   82   84 am   BACKBONE|DICT|INTERRES
   165   84   85 1    
   166   84  205 1    
   167   85   86 1    
   168   85   87 1    
   169   85  206 1    
   170   86  207 1    
   171   86  208 1    
   172   86  209 1    
   173   87   88 2    
   174   87   89 am   BACKBONE|DICT|INTERRES
   175   89   90 1    
   176   89  210 1    
   177   90   91 1    
   178   90   92 1    
   179   90  211 1    
   180   91  212 1    
   181   91  213 1    
   182   91  214 1    
   183   92   93 2    
   184   92   94 am   BACKBONE|DICT|INTERRES
   185   94   95 1    
   186   94  215 1    
   187   95   96 1    
   188   95   97 1    
   189   95  216 1    
   190   96  217 1    
   191   96  218 1    
   192   96  219 1    
   193   97   98 2    
   194   97   99 am   BACKBONE|DICT|INTERRES
   195   99  100 1    
   196   99  220 1    
   197  100  101 1    
   198  100  102 1    
   199  100  221 1    
   200  101  222 1    
   201  101  223 1    
   202  101  224 1    
   203  102  103 2    
   204  102  104 am   BACKBONE|DICT|INTERRES
   205  104  105 1    
   206  104  225 1    
   207  105  106 1    
   208  105  107 1    
   209  105  226 1    
   210  106  227 1    
   211  106  228 1    
   212  106  229 1    
   213  107  108 2    
   214  107  109 am   BACKBONE|DICT|INTERRES
   215  109  110 1    
   216  109  230 1    
   217  110  111 1    
   218  110  112 1    
   219  110  231 1    
   220  111  232 1    
   221  111  233 1    
   222  111  234 1    
   223  112  113 2    
   224  112  114 am   BACKBONE|DICT|INTERRES
   225  114  115 1    
   226  114  235 1    
   227  115  116 1    
   228  115  117 1    
   229  115  236 1    
   230  116  237 1    
   231  116  238 1    
   232  116  239 1    
   233  117  118 2    
   234  117  119 am   BACKBONE|DICT|INTERRES
   235  119  120 1    
   236  119  240 1    
   237  120  121 1    
   238  120  124 1    
   239  120  241 1    
   240  121  122 am   BACKBONE|DICT|INTERRES
   241  121  123 2    
   242  122  242 1    
   243  122  243 1    
   244  124  125 1    
   245  124  244 1    
   246  124  245 1    
   247  125  126 1    
   248  126  246 1    
   249  126  247 1    
@<TRIPOS>SUBSTRUCTURE
     1 UNK         1 GROUP             0       ****    0 ROOT    
