@<TRIPOS>MOLECULE
3R540
247   249    1
SMALL
USER_CHARGES


@<TRIPOS>ATOM
      1 CA          3.1862  -11.3391  -51.8571 C.3       0 UNK        -0.1800 
      2 C           3.1782  -11.8174  -50.4126 C.2       0 UNK         0.5000 
      3 O           2.6473  -11.1286  -49.5412 O.2       0 UNK        -0.5000 
      4 N           3.7531  -13.0006  -50.1571 N.am      1 UNK        -0.5000 
      5 CA          3.8420  -13.6414  -48.8370 C.3       1 UNK         0.1400 
      6 C6          4.7408  -14.9077  -48.8456 C.3       23 UNK        -0.0398 
      7 S7          4.3724  -16.0850  -50.1955 S.3       23 UNK        -0.2404 
      8 C8          3.2258  -17.2510  -49.3820 C.3       23 UNK        -0.0205 
      9 C9          2.3807  -18.0580  -50.3637 C.ar      23 UNK        -0.0193 
     10 C10         1.8780  -17.4849  -51.5394 C.ar      23 UNK        -0.1150 
     11 C11         1.0899  -18.2307  -52.4197 C.ar      23 UNK        -0.0193 
     12 C12         0.7865  -19.5577  -52.1094 C.ar      23 UNK        -0.1150 
     13 C13         1.2722  -20.1418  -50.9372 C.ar      23 UNK        -0.0193 
     14 C14         2.0689  -19.3889  -50.0696 C.ar      23 UNK        -0.1150 
     15 C15         0.9403  -21.5913  -50.6255 C.3       23 UNK        -0.0205 
     16 S16        -0.7341  -21.7519  -49.9408 S.3       23 UNK        -0.2404 
     17 C17        -0.4582  -21.3414  -48.1837 C.3       23 UNK        -0.0398 
     18 CA         -0.2959  -22.5988  -47.3004 C.3       11 UNK         0.1400 
     19 N           0.2476  -22.2717  -45.9810 N.am      11 UNK        -0.5000 
     20 C           0.6414  -23.1748  -45.0721 C.2       10 UNK         0.5000 
     21 O           0.6350  -24.3888  -45.2683 O.2       10 UNK        -0.5000 
     22 CA          1.0436  -22.6380  -43.6879 C.3       10 UNK         0.1400 
     23 CB          2.4695  -22.0687  -43.7093 C.3       10 UNK        -0.1800 
     24 N           0.1045  -21.6289  -43.1964 N.am      10 UNK        -0.5000 
     25 C          -1.1893  -21.8702  -42.9376 C.2       9 UNK         0.5000 
     26 O          -1.7030  -22.9867  -43.0175 O.2       9 UNK        -0.5000 
     27 CA         -2.0669  -20.6596  -42.5731 C.3       9 UNK         0.1400 
     28 CB         -1.9200  -20.3123  -41.0845 C.3       9 UNK        -0.1800 
     29 N          -1.7754  -19.4792  -43.3889 N.am      9 UNK        -0.5000 
     30 C          -1.9668  -19.3986  -44.7140 C.2       8 UNK         0.5000 
     31 O          -2.4485  -20.3055  -45.3918 O.2       8 UNK        -0.5000 
     32 CA         -1.4860  -18.1138  -45.4131 C.3       8 UNK         0.1400 
     33 CB         -2.4909  -16.9685  -45.2287 C.3       8 UNK        -0.1800 
     34 N          -0.1630  -17.6928  -44.9581 N.am      8 UNK        -0.5000 
     35 C           0.9544  -18.4139  -45.1271 C.2       7 UNK         0.5000 
     36 O           0.9946  -19.4813  -45.7391 O.2       7 UNK        -0.5000 
     37 CA          2.2289  -17.8776  -44.4566 C.3       7 UNK         0.1400 
     38 CB          2.8943  -16.8098  -45.3325 C.3       7 UNK        -0.1800 
     39 N           1.9534  -17.3256  -43.1302 N.am      7 UNK        -0.5000 
     40 C           1.6192  -18.0654  -42.0636 C.2       6 UNK         0.5000 
     41 O           1.5352  -19.2931  -42.0823 O.2       6 UNK        -0.5000 
     42 CA          1.2828  -17.3004  -40.7712 C.3       6 UNK         0.1400 
     43 CB          2.5651  -16.9054  -40.0237 C.3       6 UNK        -0.1800 
     44 N           0.4756  -16.1049  -41.0191 N.am      6 UNK        -0.5000 
     45 C          -0.7817  -16.1248  -41.4834 C.2       5 UNK         0.5000 
     46 O          -1.4009  -17.1572  -41.7345 O.2       5 UNK        -0.5000 
     47 CA         -1.4458  -14.7626  -41.7516 C.3       5 UNK         0.1400 
     48 CB         -2.1247  -14.2339  -40.4795 C.3       5 UNK        -0.1800 
     49 N          -0.5191  -13.7506  -42.2651 N.am      5 UNK        -0.5000 
     50 C           0.1439  -13.8446  -43.4246 C.2       4 UNK         0.5000 
     51 O           0.0951  -14.8300  -44.1655 O.2       4 UNK        -0.5000 
     52 CA          1.0351  -12.6514  -43.8003 C.3       4 UNK         0.1400 
     53 CB          2.5212  -13.0296  -43.7023 C.3       4 UNK        -0.1800 
     54 N           0.7265  -12.2165  -45.1591 N.am      4 UNK        -0.5000 
     55 C          -0.2849  -11.3927  -45.4737 C.2       3 UNK         0.5000 
     56 O          -0.9936  -10.8383  -44.6322 O.2       3 UNK        -0.5000 
     57 CA         -0.5653  -11.1380  -46.9703 C.3       3 UNK         0.1400 
     58 CB          0.1078   -9.8360  -47.4295 C.3       3 UNK        -0.1800 
     59 N          -0.1195  -12.2313  -47.8320 N.am      3 UNK        -0.5000 
     60 C          -0.6636  -13.4566  -47.8531 C.2       2 UNK         0.5000 
     61 O          -1.7041  -13.7448  -47.2618 O.2       2 UNK        -0.5000 
     62 CA          0.0808  -14.5521  -48.6462 C.3       2 UNK         0.1400 
     63 CB         -0.7093  -14.9511  -49.9021 C.3       2 UNK        -0.1800 
     64 N           1.4509  -14.2064  -49.0412 N.am      2 UNK        -0.5000 
     65 C           2.4667  -13.9406  -48.2059 C.2       1 UNK         0.5000 
     66 O           2.3467  -13.8961  -46.9836 O.2       1 UNK        -0.5000 
     67 C          -1.6101  -23.4014  -47.2011 C.2       11 UNK         0.5000 
     68 O          -1.7688  -24.3862  -47.9216 O.2       11 UNK        -0.5000 
     69 N          -2.5141  -23.0002  -46.2962 N.am      12 UNK        -0.5000 
     70 CA         -3.7752  -23.6922  -46.0222 C.3       12 UNK         0.1400 
     71 CB         -4.6202  -22.8758  -45.0343 C.3       12 UNK        -0.1800 
     72 C          -3.5889  -25.1401  -45.5348 C.2       12 UNK         0.5000 
     73 O          -4.3732  -26.0089  -45.9159 O.2       12 UNK        -0.5000 
     74 N          -2.5423  -25.3758  -44.7349 N.am      13 UNK        -0.5000 
     75 CA         -2.1425  -26.7036  -44.2805 C.3       13 UNK         0.1400 
     76 CB         -1.2430  -26.5659  -43.0417 C.3       13 UNK        -0.1800 
     77 C          -1.4400  -27.5176  -45.3842 C.2       13 UNK         0.5000 
     78 O          -1.7888  -28.6803  -45.5929 O.2       13 UNK        -0.5000 
     79 N          -0.4428  -26.9110  -46.0422 N.am      14 UNK        -0.5000 
     80 CA          0.4663  -27.5953  -46.9616 C.3       14 UNK         0.1400 
     81 CB          1.7807  -26.8040  -47.0572 C.3       14 UNK        -0.1800 
     82 C          -0.1130  -27.8284  -48.3667 C.2       14 UNK         0.5000 
     83 O           0.0540  -28.9222  -48.9087 O.2       14 UNK        -0.5000 
     84 N          -0.7351  -26.7959  -48.9476 N.am      15 UNK        -0.5000 
     85 CA         -1.1702  -26.7717  -50.3458 C.3       15 UNK         0.1400 
     86 CB         -0.5611  -25.5409  -51.0361 C.3       15 UNK        -0.1800 
     87 C          -2.6996  -26.7516  -50.4809 C.2       15 UNK         0.5000 
     88 O          -3.2197  -27.3924  -51.3943 O.2       15 UNK        -0.5000 
     89 N          -3.3765  -26.0304  -49.5739 N.am      16 UNK        -0.5000 
     90 CA         -4.8217  -25.7898  -49.5101 C.3       16 UNK         0.1400 
     91 CB         -5.5910  -27.1048  -49.2659 C.3       16 UNK        -0.1800 
     92 C          -5.3344  -25.0223  -50.7543 C.2       16 UNK         0.5000 
     93 O          -5.7757  -25.6523  -51.7151 O.2       16 UNK        -0.5000 
     94 N          -5.2717  -23.6846  -50.7880 N.am      17 UNK        -0.5000 
     95 CA         -4.8655  -22.7473  -49.7439 C.3       17 UNK         0.1400 
     96 CB         -6.0328  -22.5414  -48.7549 C.3       17 UNK        -0.1800 
     97 C          -4.5067  -21.4059  -50.4019 C.2       17 UNK         0.5000 
     98 O          -4.7847  -21.2080  -51.5883 O.2       17 UNK        -0.5000 
     99 N          -3.9480  -20.4816  -49.6112 N.am      18 UNK        -0.5000 
    100 CA        -3.7359  -19.0908  -50.0146 C.3       18 UNK         0.1400 
    101 CB        -2.8908  -18.3704  -48.9547 C.3       18 UNK        -0.1800 
    102 C         -5.0780  -18.3638  -50.2246 C.2       18 UNK         0.5000 
    103 O         -6.0504  -18.6631  -49.5289 O.2       18 UNK        -0.5000 
    104 N         -5.0961  -17.4481  -51.1982 N.am      19 UNK        -0.5000 
    105 CA        -6.2335  -16.7008  -51.7486 C.3       19 UNK         0.1400 
    106 CB        -7.1573  -16.0985  -50.6714 C.3       19 UNK        -0.1800 
    107 C         -7.0132  -17.4966  -52.8125 C.2       19 UNK         0.5000 
    108 O         -7.5953  -16.8766  -53.7033 O.2       19 UNK        -0.5000 
    109 N         -6.9621  -18.8364  -52.7611 N.am      20 UNK        -0.5000 
    110 CA        -7.2680  -19.6991  -53.9030 C.3       20 UNK         0.1400 
    111 CB        -7.7146  -21.0913  -53.4277 C.3       20 UNK        -0.1800 
    112 C         -6.0278  -19.7564  -54.8118 C.2       20 UNK         0.5000 
    113 O         -6.1087  -19.3808  -55.9819 O.2       20 UNK        -0.5000 
    114 N         -4.8795  -20.1247  -54.2260 N.am      21 UNK        -0.5000 
    115 CA        -3.5537  -19.8564  -54.7764 C.3       21 UNK         0.1400 
    116 CB        -2.5227  -20.7670  -54.0907 C.3       21 UNK        -0.1800 
    117 C         -3.2125  -18.3743  -54.5418 C.2       21 UNK         0.5000 
    118 O         -3.3768  -17.8975  -53.4168 O.2       21 UNK        -0.5000 
    119 N         -2.7776  -17.6828  -55.6039 N.am      22 UNK        -0.5000 
    120 CA        -2.4593  -16.2397  -55.6604 C.3       22 UNK         0.1400 
    121 C         -3.5638  -15.2584  -55.1520 C.2       22 UNK         0.5000 
    122 N         -4.8343  -15.6425  -55.1720 N.am      22 UNK        -0.7600 
    123 O         -3.2824  -14.1214  -54.7825 O.2       22 UNK        -0.5000 
    124 C124       -1.0124  -15.8867  -55.2016 C.3       23 UNK        -0.0398 
    125 S125       -0.5876  -16.2724  -53.4666 S.3       23 UNK        -0.2404 
    126 C126        0.6066  -17.6198  -53.7260 C.3       23 UNK        -0.0205 
    127 H127        2.1648  -11.2000  -52.2112 H         1 UNK         0.0600 
    128 H128        3.6812  -12.0516  -52.5175 H         1 UNK         0.0600 
    129 H129        3.7078  -10.3851  -51.9332 H         1 UNK         0.0600 
    130 H130        4.1629  -13.5274  -50.9161 H         1 UNK         0.3000 
    131 H131        4.3197  -12.9161  -48.1746 H         1 UNK         0.0600 
    132 H132        5.7790  -14.5978  -48.9709 H         1 UNK         0.0800 
    133 H133        4.7116  -15.4240  -47.8838 H         1 UNK         0.0800 
    134 H134        3.8136  -17.9181  -48.7497 H         1 UNK         0.0800 
    135 H135        2.5454  -16.7203  -48.7188 H         1 UNK         0.0800 
    136 H136        2.0992  -16.4552  -51.7802 H         1 UNK         0.1150 
    137 H137        0.1772  -20.1438  -52.7822 H         1 UNK         0.1150 
    138 H138        2.4443  -19.8394  -49.1615 H         1 UNK         0.1150 
    139 H139        1.0011  -22.1812  -51.5413 H         1 UNK         0.0800 
    140 H140        1.6691  -22.0226  -49.9376 H         1 UNK         0.0800 
    141 H141       -1.2871  -20.7293  -47.8287 H         1 UNK         0.0800 
    142 H142        0.4270  -20.7107  -48.1048 H         1 UNK         0.0800 
    143 H143        0.4392  -23.2486  -47.7805 H         1 UNK         0.0600 
    144 H144        0.3259  -21.2840  -45.7533 H         1 UNK         0.3000 
    145 H145        1.0258  -23.4771  -42.9893 H         1 UNK         0.0600 
    146 H146        2.7816  -21.7519  -42.7141 H         1 UNK         0.0600 
    147 H147        3.1834  -22.8196  -44.0502 H         1 UNK         0.0600 
    148 H148        2.5538  -21.2103  -44.3750 H         1 UNK         0.0600 
    149 H149        0.4726  -20.6949  -43.0471 H         1 UNK         0.3000 
    150 H150       -3.1069  -20.9383  -42.7535 H         1 UNK         0.0600 
    151 H151       -2.1388  -21.1774  -40.4572 H         1 UNK         0.0600 
    152 H152       -2.6098  -19.5191  -40.7959 H         1 UNK         0.0600 
    153 H153       -0.9094  -19.9794  -40.8463 H         1 UNK         0.0600 
    154 H154       -1.4242  -18.6643  -42.8927 H         1 UNK         0.3000 
    155 H155       -1.4067  -18.3276  -46.4797 H         1 UNK         0.0600 
    156 H156       -2.6104  -16.7014  -44.1791 H         1 UNK         0.0600 
    157 H157       -3.4737  -17.2463  -45.6112 H         1 UNK         0.0600 
    158 H158       -2.1722  -16.0753  -45.7663 H         1 UNK         0.0600 
    159 H159       -0.1015  -16.7949  -44.4874 H         1 UNK         0.3000 
    160 H160        2.9277  -18.7092  -44.3442 H         1 UNK         0.0600 
    161 H161        2.2235  -15.9688  -45.5011 H         1 UNK         0.0600 
    162 H162        3.1634  -17.2169  -46.3072 H         1 UNK         0.0600 
    163 H163        3.8066  -16.4281  -44.8743 H         1 UNK         0.0600 
    164 H164        1.9447  -16.3199  -43.0481 H         1 UNK         0.3000 
    165 H165        0.7067  -17.9704  -40.1293 H         1 UNK         0.0600 
    166 H166        2.3348  -16.4352  -39.0675 H         1 UNK         0.0600 
    167 H167        3.1795  -17.7820  -39.8138 H         1 UNK         0.0600 
    168 H168        3.1732  -16.2092  -40.6028 H         1 UNK         0.0600 
    169 H169        0.9096  -15.2115  -40.8403 H         1 UNK         0.3000 
    170 H170       -2.2173  -14.9173  -42.5084 H         1 UNK         0.0600 
    171 H171       -2.8367  -14.9610  -40.0863 H         1 UNK         0.0600 
    172 H172       -1.3998  -14.0252  -39.6918 H         1 UNK         0.0600 
    173 H173       -2.6779  -13.3161  -40.6797 H         1 UNK         0.0600 
    174 H174       -0.4235  -12.9100  -41.7135 H         1 UNK         0.3000 
    175 H175        0.8528  -11.8273  -43.1072 H         1 UNK         0.0600 
    176 H176        2.7714  -13.8696  -44.3500 H         1 UNK         0.0600 
    177 H177        3.1597  -12.1918  -43.9826 H         1 UNK         0.0600 
    178 H178        2.7847  -13.3135  -42.6828 H         1 UNK         0.0600 
    179 H179        1.2263  -12.6985  -45.9007 H         1 UNK         0.3000 
    180 H180       -1.6449  -11.0270  -47.0911 H         1 UNK         0.0600 
    181 H181        1.1935   -9.8924  -47.3397 H         1 UNK         0.0600 
    182 H182       -0.2286   -8.9889  -46.8303 H         1 UNK         0.0600 
    183 H183       -0.1305   -9.6136  -48.4699 H         1 UNK         0.0600 
    184 H184        0.7336  -12.0755  -48.3527 H         1 UNK         0.3000 
    185 H185        0.1388  -15.4240  -47.9910 H         1 UNK         0.0600 
    186 H186       -1.7471  -15.1822  -49.6605 H         1 UNK         0.0600 
    187 H187       -0.7174  -14.1518  -50.6440 H         1 UNK         0.0600 
    188 H188       -0.2834  -15.8395  -50.3681 H         1 UNK         0.0600 
    189 H189        1.6417  -14.1935  -50.0323 H         1 UNK         0.3000 
    190 H190       -2.3431  -22.1438  -45.7746 H         1 UNK         0.3000 
    191 H191       -4.3235  -23.7435  -46.9594 H         1 UNK         0.0600 
    192 H192       -4.8028  -21.8681  -45.4077 H         1 UNK         0.0600 
    193 H193       -5.5921  -23.3442  -44.8747 H         1 UNK         0.0600 
    194 H194       -4.1357  -22.7907  -44.0625 H         1 UNK         0.0600 
    195 H195       -1.9758  -24.5924  -44.4301 H         1 UNK         0.3000 
    196 H196       -3.0385  -27.2515  -43.9806 H         1 UNK         0.0600 
    197 H197       -0.9395  -27.5446  -42.6683 H         1 UNK         0.0600 
    198 H198       -1.7654  -26.0556  -42.2323 H         1 UNK         0.0600 
    199 H199       -0.3361  -26.0007  -43.2589 H         1 UNK         0.0600 
    200 H200       -0.1957  -25.9559  -45.7922 H         1 UNK         0.3000 
    201 H201        0.7053  -28.5738  -46.5391 H         1 UNK         0.0600 
    202 H202        2.2492  -26.6987  -46.0785 H         1 UNK         0.0600 
    203 H203        1.6203  -25.8030  -47.4599 H         1 UNK         0.0600 
    204 H204        2.4959  -27.3090  -47.7076 H         1 UNK         0.0600 
    205 H205       -0.8944  -25.9462  -48.4133 H         1 UNK         0.3000 
    206 H206       -0.8090  -27.6565  -50.8743 H         1 UNK         0.0600 
    207 H207        0.5277  -25.5592  -50.9883 H         1 UNK         0.0600 
    208 H208       -0.8413  -25.5037  -52.0895 H         1 UNK         0.0600 
    209 H209       -0.9006  -24.6144  -50.5744 H         1 UNK         0.0600 
    210 H210       -2.8234  -25.5123  -48.8954 H         1 UNK         0.3000 
    211 H211       -4.9873  -25.1820  -48.6257 H         1 UNK         0.0600 
    212 H212       -5.4883  -27.8075  -50.0929 H         1 UNK         0.0600 
    213 H213       -6.6559  -26.9097  -49.1362 H         1 UNK         0.0600 
    214 H214       -5.2393  -27.6004  -48.3607 H         1 UNK         0.0600 
    215 H215       -5.5205  -23.2102  -51.6465 H         1 UNK         0.3000 
    216 H216       -3.9765  -23.1216  -49.2350 H         1 UNK         0.0600 
    217 H217       -5.7424  -21.8873  -47.9321 H         1 UNK         0.0600 
    218 H218       -6.3833  -23.4733  -48.3145 H         1 UNK         0.0600 
    219 H219       -6.8887  -22.0768  -49.2469 H         1 UNK         0.0600 
    220 H220       -3.7954  -20.6914  -48.6369 H         1 UNK         0.3000 
    221 H221       -3.1816  -19.0892  -50.9558 H         1 UNK         0.0600 
    222 H222       -3.3318  -18.4620  -47.9618 H         1 UNK         0.0600 
    223 H223       -1.8779  -18.7695  -48.9229 H         1 UNK         0.0600 
    224 H224       -2.8049  -17.3068  -49.1784 H         1 UNK         0.0600 
    225 H225       -4.2610  -17.3805  -51.7772 H         1 UNK         0.3000 
    226 H226       -5.7773  -15.8627  -52.2775 H         1 UNK         0.0600 
    227 H227       -6.5862  -15.5670  -49.9102 H         1 UNK         0.0600 
    228 H228       -7.8497  -15.3839  -51.1175 H         1 UNK         0.0600 
    229 H229       -7.7607  -16.8589  -50.1755 H         1 UNK         0.0600 
    230 H230       -6.4641  -19.2635  -51.9929 H         1 UNK         0.3000 
    231 H231       -8.0915  -19.2685  -54.4768 H         1 UNK         0.0600 
    232 H232       -6.9431  -21.6072  -52.8597 H         1 UNK         0.0600 
    233 H233       -7.9695  -21.7248  -54.2780 H         1 UNK         0.0600 
    234 H234       -8.6010  -21.0230  -52.7970 H         1 UNK         0.0600 
    235 H235       -4.8953  -20.4264  -53.2545 H         1 UNK         0.3000 
    236 H236       -3.5557  -20.0746  -55.8464 H         1 UNK         0.0600 
    237 H237       -2.7841  -21.8186  -54.2085 H         1 UNK         0.0600 
    238 H238       -1.5322  -20.6256  -54.5240 H         1 UNK         0.0600 
    239 H239       -2.4465  -20.5608  -53.0219 H         1 UNK         0.0600 
    240 H240       -2.7010  -18.1677  -56.4864 H         1 UNK         0.3000 
    241 H241       -2.4606  -16.0320  -56.7310 H         1 UNK         0.0600 
    242 H242       -5.5515  -15.0023  -54.8708 H         1 UNK         0.3800 
    243 H243       -5.0892  -16.5637  -55.4903 H         1 UNK         0.3800 
    244 H244       -0.3070  -16.3973  -55.8578 H         1 UNK         0.0800 
    245 H245       -0.8150  -14.8257  -55.3615 H         1 UNK         0.0800 
    246 H246        1.4666  -17.2380  -54.2780 H         1 UNK         0.0800 
    247 H247        0.1465  -18.3827  -54.3559 H         1 UNK         0.0800 
@<TRIPOS>BOND
     1    1    2 1    
     2    1  127 1    
     3    1  128 1    
     4    1  129 1    
     5    2    3 2    
     6    2    4 am   BACKBONE|DICT|INTERRES
     7    4    5 1    
     8    4  130 1    
     9    5    6 1    
    10    5   65 1    
    11    5  131 1    
    12    6    7 1    
    13    6  132 1    
    14    6  133 1    
    15    7    8 1    
    16    8    9 1    
    17    8  134 1    
    18    8  135 1    
    19    9   10 ar   
    20    9   14 ar   
    21   10   11 ar   
    22   10  136 1    
    23   11   12 ar   
    24   11  126 1    
    25   12   13 ar   
    26   12  137 1    
    27   13   14 ar   
    28   13   15 1    
    29   14  138 1    
    30   15   16 1    
    31   15  139 1    
    32   15  140 1    
    33   16   17 1    
    34   17   18 1    
    35   17  141 1    
    36   17  142 1    
    37   18   19 1    
    38   18   67 1    
    39   18  143 1    
    40   19   20 am   BACKBONE|DICT|INTERRES
    41   19  144 1    
    42   20   21 2    
    43   20   22 1    
    44   22   23 1    
    45   22   24 1    
    46   22  145 1    
    47   23  146 1    
    48   23  147 1    
    49   23  148 1    
    50   24   25 am   BACKBONE|DICT|INTERRES
    51   24  149 1    
    52   25   26 2    
    53   25   27 1    
    54   27   28 1    
    55   27   29 1    
    56   27  150 1    
    57   28  151 1    
    58   28  152 1    
    59   28  153 1    
    60   29   30 am   BACKBONE|DICT|INTERRES
    61   29  154 1    
    62   30   31 2    
    63   30   32 1    
    64   32   33 1    
    65   32   34 1    
    66   32  155 1    
    67   33  156 1    
    68   33  157 1    
    69   33  158 1    
    70   34   35 am   BACKBONE|DICT|INTERRES
    71   34  159 1    
    72   35   36 2    
    73   35   37 1    
    74   37   38 1    
    75   37   39 1    
    76   37  160 1    
    77   38  161 1    
    78   38  162 1    
    79   38  163 1    
    80   39   40 am   BACKBONE|DICT|INTERRES
    81   39  164 1    
    82   40   41 2    
    83   40   42 1    
    84   42   43 1    
    85   42   44 1    
    86   42  165 1    
    87   43  166 1    
    88   43  167 1    
    89   43  168 1    
    90   44   45 am   BACKBONE|DICT|INTERRES
    91   44  169 1    
    92   45   46 2    
    93   45   47 1    
    94   47   48 1    
    95   47   49 1    
    96   47  170 1    
    97   48  171 1    
    98   48  172 1    
    99   48  173 1    
   100   49   50 am   BACKBONE|DICT|INTERRES
   101   49  174 1    
   102   50   51 2    
   103   50   52 1    
   104   52   53 1    
   105   52   54 1    
   106   52  175 1    
   107   53  176 1    
   108   53  177 1    
   109   53  178 1    
   110   54   55 am   BACKBONE|DICT|INTERRES
   111   54  179 1    
   112   55   56 2    
   113   55   57 1    
   114   57   58 1    
   115   57   59 1    
   116   57  180 1    
   117   58  181 1    
   118   58  182 1    
   119   58  183 1    
   120   59   60 am   BACKBONE|DICT|INTERRES
   121   59  184 1    
   122   60   61 2    
   123   60   62 1    
   124   62   63 1    
   125   62   64 1    
   126   62  185 1    
   127   63  186 1    
   128   63  187 1    
   129   63  188 1    
   130   64   65 am   BACKBONE|DICT|INTERRES
   131   64  189 1    
   132   65   66 2    
   133   67   68 2    
   134   67   69 am   BACKBONE|DICT|INTERRES
   135   69   70 1    
   136   69  190 1    
   137   70   71 1    
   138   70   72 1    
   139   70  191 1    
   140   71  192 1    
   141   71  193 1    
   142   71  194 1    
   143   72   73 2    
   144   72   74 am   BACKBONE|DICT|INTERRES
   145   74   75 1    
   146   74  195 1    
   147   75   76 1    
   148   75   77 1    
   149   75  196 1    
   150   76  197 1    
   151   76  198 1    
   152   76  199 1    
   153   77   78 2    
   154   77   79 am   BACKBONE|DICT|INTERRES
   155   79   80 1    
   156   79  200 1    
   157   80   81 1    
   158   80   82 1    
   159   80  201 1    
   160   81  202 1    
   161   81  203 1    
   162   81  204 1    
   163   82   83 2    
   164   82   84 am   BACKBONE|DICT|INTERRES
   165   84   85 1    
   166   84  205 1    
   167   85   86 1    
   168   85   87 1    
   169   85  206 1    
   170   86  207 1    
   171   86  208 1    
   172   86  209 1    
   173   87   88 2    
   174   87   89 am   BACKBONE|DICT|INTERRES
   175   89   90 1    
   176   89  210 1    
   177   90   91 1    
   178   90   92 1    
   179   90  211 1    
   180   91  212 1    
   181   91  213 1    
   182   91  214 1    
   183   92   93 2    
   184   92   94 am   BACKBONE|DICT|INTERRES
   185   94   95 1    
   186   94  215 1    
   187   95   96 1    
   188   95   97 1    
   189   95  216 1    
   190   96  217 1    
   191   96  218 1    
   192   96  219 1    
   193   97   98 2    
   194   97   99 am   BACKBONE|DICT|INTERRES
   195   99  100 1    
   196   99  220 1    
   197  100  101 1    
   198  100  102 1    
   199  100  221 1    
   200  101  222 1    
   201  101  223 1    
   202  101  224 1    
   203  102  103 2    
   204  102  104 am   BACKBONE|DICT|INTERRES
   205  104  105 1    
   206  104  225 1    
   207  105  106 1    
   208  105  107 1    
   209  105  226 1    
   210  106  227 1    
   211  106  228 1    
   212  106  229 1    
   213  107  108 2    
   214  107  109 am   BACKBONE|DICT|INTERRES
   215  109  110 1    
   216  109  230 1    
   217  110  111 1    
   218  110  112 1    
   219  110  231 1    
   220  111  232 1    
   221  111  233 1    
   222  111  234 1    
   223  112  113 2    
   224  112  114 am   BACKBONE|DICT|INTERRES
   225  114  115 1    
   226  114  235 1    
   227  115  116 1    
   228  115  117 1    
   229  115  236 1    
   230  116  237 1    
   231  116  238 1    
   232  116  239 1    
   233  117  118 2    
   234  117  119 am   BACKBONE|DICT|INTERRES
   235  119  120 1    
   236  119  240 1    
   237  120  121 1    
   238  120  124 1    
   239  120  241 1    
   240  121  122 am   BACKBONE|DICT|INTERRES
   241  121  123 2    
   242  122  242 1    
   243  122  243 1    
   244  124  125 1    
   245  124  244 1    
   246  124  245 1    
   247  125  126 1    
   248  126  246 1    
   249  126  247 1    
@<TRIPOS>SUBSTRUCTURE
     1 UNK         1 GROUP             0       ****    0 ROOT    
