@<TRIPOS>MOLECULE
3R540
247   249    1
SMALL
USER_CHARGES


@<TRIPOS>ATOM
      1 CA         -0.6277  -13.4422  -47.1234 C.3       0 UNK        -0.1800 
      2 C           0.7101  -12.9290  -47.6321 C.2       0 UNK         0.5000 
      3 O           0.8844  -11.7232  -47.8053 O.2       0 UNK        -0.5000 
      4 N           1.6571  -13.8479  -47.8610 N.am      1 UNK        -0.5000 
      5 CA          3.0231  -13.5689  -48.3331 C.3       1 UNK         0.1400 
      6 C6          3.7574  -14.8658  -48.7612 C.3       23 UNK        -0.0398 
      7 S7          3.9434  -16.1059  -47.4259 S.3       23 UNK        -0.2404 
      8 C8          2.5735  -17.2556  -47.7595 C.3       23 UNK        -0.0205 
      9 C9          2.8502  -18.1443  -48.9604 C.ar      23 UNK        -0.0193 
     10 C10         2.2158  -17.9050  -50.1837 C.ar      23 UNK        -0.1150 
     11 C11         2.4778  -18.7216  -51.2871 C.ar      23 UNK        -0.0193 
     12 C12         3.3765  -19.7827  -51.1602 C.ar      23 UNK        -0.1150 
     13 C13         4.0069  -20.0387  -49.9400 C.ar      23 UNK        -0.0193 
     14 C14         3.7401  -19.2157  -48.8431 C.ar      23 UNK        -0.1150 
     15 C15         4.9846  -21.1974  -49.8153 C.3       23 UNK        -0.0205 
     16 S16         4.3256  -22.5640  -48.8085 S.3       23 UNK        -0.2404 
     17 C17         2.8360  -23.0623  -49.7426 C.3       23 UNK        -0.0398 
     18 CA          1.6097  -23.2386  -48.8184 C.3       11 UNK         0.1400 
     19 N           1.2897  -22.0360  -48.0384 N.am      11 UNK        -0.5000 
     20 C           0.5432  -22.0627  -46.9263 C.2       10 UNK         0.5000 
     21 O           0.0299  -23.0885  -46.4789 O.2       10 UNK        -0.5000 
     22 CA          0.2958  -20.7232  -46.2077 C.3       10 UNK         0.1400 
     23 CB          1.5117  -20.3403  -45.3503 C.3       10 UNK        -0.1800 
     24 N          -0.0530  -19.5956  -47.0765 N.am      10 UNK        -0.5000 
     25 C          -0.9988  -19.5786  -48.0240 C.2       9 UNK         0.5000 
     26 O          -1.6296  -20.5728  -48.3815 O.2       9 UNK        -0.5000 
     27 CA         -1.3385  -18.1971  -48.6178 C.3       9 UNK         0.1400 
     28 CB         -2.1053  -18.3024  -49.9476 C.3       9 UNK        -0.1800 
     29 N          -2.1457  -17.4239  -47.6755 N.am      9 UNK        -0.5000 
     30 C          -1.6976  -16.8532  -46.5509 C.2       8 UNK         0.5000 
     31 O          -0.5021  -16.8121  -46.2451 O.2       8 UNK        -0.5000 
     32 CA         -2.7546  -16.2317  -45.6193 C.3       8 UNK         0.1400 
     33 CB         -4.0886  -17.0107  -45.6125 C.3       8 UNK        -0.1800 
     34 N          -2.2084  -16.1707  -44.2694 N.am      8 UNK        -0.5000 
     35 C          -2.6133  -15.3753  -43.2764 C.2       7 UNK         0.5000 
     36 O          -3.5254  -14.5561  -43.3923 O.2       7 UNK        -0.5000 
     37 CA         -1.8772  -15.4982  -41.9254 C.3       7 UNK         0.1400 
     38 CB         -2.4896  -16.6142  -41.0575 C.3       7 UNK        -0.1800 
     39 N          -0.4165  -15.6353  -42.0329 N.am      7 UNK        -0.5000 
     40 C           0.3021  -16.6563  -42.5253 C.2       6 UNK         0.5000 
     41 O          -0.1910  -17.6998  -42.9537 O.2       6 UNK        -0.5000 
     42 CA          1.8270  -16.4692  -42.6023 C.3       6 UNK         0.1400 
     43 CB          2.2269  -16.0673  -44.0310 C.3       6 UNK        -0.1800 
     44 N           2.3491  -15.4731  -41.6647 N.am      6 UNK        -0.5000 
     45 C           2.5121  -15.6734  -40.3495 C.2       5 UNK         0.5000 
     46 O           2.1700  -16.7050  -39.7707 O.2       5 UNK        -0.5000 
     47 CA          3.1746  -14.5417  -39.5456 C.3       5 UNK         0.1400 
     48 CB          4.7031  -14.6055  -39.6952 C.3       5 UNK        -0.1800 
     49 N           2.7097  -13.2261  -39.9845 N.am      5 UNK        -0.5000 
     50 C           2.0397  -12.3505  -39.2230 C.2       4 UNK         0.5000 
     51 O           1.7632  -12.5433  -38.0381 O.2       4 UNK        -0.5000 
     52 CA          1.5942  -11.0304  -39.8901 C.3       4 UNK         0.1400 
     53 CB          2.6109   -9.9155  -39.6011 C.3       4 UNK        -0.1800 
     54 N           1.4006  -11.1304  -41.3388 N.am      4 UNK        -0.5000 
     55 C           0.4871  -11.9063  -41.9362 C.2       3 UNK         0.5000 
     56 O          -0.3376  -12.5817  -41.3225 O.2       3 UNK        -0.5000 
     57 CA          0.5197  -11.9886  -43.4744 C.3       3 UNK         0.1400 
     58 CB         -0.4981  -11.0098  -44.0779 C.3       3 UNK        -0.1800 
     59 N           1.8239  -11.7753  -44.1170 N.am      3 UNK        -0.5000 
     60 C           2.9848  -12.3754  -43.8141 C.2       2 UNK         0.5000 
     61 O           3.1585  -13.0799  -42.8194 O.2       2 UNK        -0.5000 
     62 CA          4.0846  -12.2599  -44.8745 C.3       2 UNK         0.1400 
     63 CB          5.4304  -12.8631  -44.4301 C.3       2 UNK        -0.1800 
     64 N           3.5728  -12.9770  -46.0312 N.am      2 UNK        -0.5000 
     65 C           3.8500  -12.7468  -47.3166 C.2       1 UNK         0.5000 
     66 O           4.6755  -11.9214  -47.7096 O.2       1 UNK        -0.5000 
     67 C           0.3920  -23.7588  -49.6091 C.2       11 UNK         0.5000 
     68 O           0.2711  -24.9702  -49.7933 O.2       11 UNK        -0.5000 
     69 N          -0.5081  -22.8555  -50.0274 N.am      12 UNK        -0.5000 
     70 CA         -1.7830  -23.2164  -50.6459 C.3       12 UNK         0.1400 
     71 CB         -2.3849  -22.0174  -51.3922 C.3       12 UNK        -0.1800 
     72 C          -2.7659  -23.7648  -49.6017 C.2       12 UNK         0.5000 
     73 O          -3.4371  -24.7560  -49.8747 O.2       12 UNK        -0.5000 
     74 N          -2.8046  -23.1525  -48.4109 N.am      13 UNK        -0.5000 
     75 CA         -3.6008  -23.6017  -47.2668 C.3       13 UNK         0.1400 
     76 CB         -3.5101  -22.5690  -46.1340 C.3       13 UNK        -0.1800 
     77 C          -3.2056  -25.0074  -46.7819 C.2       13 UNK         0.5000 
     78 O          -4.0878  -25.8302  -46.5364 O.2       13 UNK        -0.5000 
     79 N          -1.8948  -25.2825  -46.7276 N.am      14 UNK        -0.5000 
     80 CA         -1.3288  -26.5994  -46.4217 C.3       14 UNK         0.1400 
     81 CB          0.1959  -26.4729  -46.2855 C.3       14 UNK        -0.1800 
     82 C          -1.6897  -27.6806  -47.4619 C.2       14 UNK         0.5000 
     83 O          -1.8407  -28.8470  -47.0973 O.2       14 UNK        -0.5000 
     84 N          -1.8428  -27.2722  -48.7282 N.am      15 UNK        -0.5000 
     85 CA         -2.2537  -28.1240  -49.8459 C.3       15 UNK         0.1400 
     86 CB         -1.6444  -27.5547  -51.1382 C.3       15 UNK        -0.1800 
     87 C          -3.7858  -28.2534  -49.9856 C.2       15 UNK         0.5000 
     88 O          -4.2408  -29.0210  -50.8345 O.2       15 UNK        -0.5000 
     89 N          -4.5489  -27.4914  -49.1850 N.am      16 UNK        -0.5000 
     90 CA         -6.0062  -27.3145  -49.2397 C.3       16 UNK         0.1400 
     91 CB         -6.7411  -28.6271  -48.8973 C.3       16 UNK        -0.1800 
     92 C          -6.4847  -26.6744  -50.5643 C.2       16 UNK         0.5000 
     93 O          -7.5782  -26.9763  -51.0449 O.2       16 UNK        -0.5000 
     94 N          -5.6488  -25.7912  -51.1223 N.am      17 UNK        -0.5000 
     95 CA         -5.8358  -25.0870  -52.3897 C.3       17 UNK         0.1400 
     96 CB         -4.5784  -25.3031  -53.2488 C.3       17 UNK        -0.1800 
     97 C          -6.0980  -23.5826  -52.1839 C.2       17 UNK         0.5000 
     98 O          -6.1581  -22.8418  -53.1660 O.2       17 UNK        -0.5000 
     99 N          -6.2612  -23.1375  -50.9282 N.am      18 UNK        -0.5000 
    100 CA        -6.4811  -21.7384  -50.5331 C.3       18 UNK         0.1400 
    101 CB        -6.4085  -21.6205  -49.0037 C.3       18 UNK        -0.1800 
    102 C         -7.7735  -21.0918  -51.0773 C.2       18 UNK         0.5000 
    103 O         -7.8990  -19.8686  -51.0248 O.2       18 UNK        -0.5000 
    104 N         -8.6928  -21.9028  -51.6195 N.am      19 UNK        -0.5000 
    105 CA        -9.8482  -21.4465  -52.3951 C.3       19 UNK         0.1400 
    106 CB       -10.7811  -22.6386  -52.6568 C.3       19 UNK        -0.1800 
    107 C         -9.4421  -20.7721  -53.7233 C.2       19 UNK         0.5000 
    108 O        -10.1211  -19.8422  -54.1603 O.2       19 UNK        -0.5000 
    109 N         -8.3368  -21.2369  -54.3232 N.am      20 UNK        -0.5000 
    110 CA        -7.6911  -20.6192  -55.4809 C.3       20 UNK         0.1400 
    111 CB        -7.1622  -21.7194  -56.4151 C.3       20 UNK        -0.1800 
    112 C         -6.5484  -19.6923  -55.0299 C.2       20 UNK         0.5000 
    113 O         -6.4209  -18.5880  -55.5606 O.2       20 UNK        -0.5000 
    114 N         -5.7657  -20.1559  -54.0425 N.am      21 UNK        -0.5000 
    115 CA        -4.6087  -19.4983  -53.4275 C.3       21 UNK         0.1400 
    116 CB        -5.0366  -18.2013  -52.7049 C.3       21 UNK        -0.1800 
    117 C         -3.4323  -19.2901  -54.4073 C.2       21 UNK         0.5000 
    118 O         -3.3904  -19.9082  -55.4742 O.2       21 UNK        -0.5000 
    119 N         -2.4736  -18.4502  -54.0061 N.am      22 UNK        -0.5000 
    120 CA        -1.2512  -18.1318  -54.7602 C.3       22 UNK         0.1400 
    121 C         -0.7729  -16.6611  -54.5820 C.2       22 UNK         0.5000 
    122 N         -1.5721  -15.7646  -54.0144 N.am      22 UNK        -0.7600 
    123 O          0.3328  -16.3128  -54.9866 O.2       22 UNK        -0.5000 
    124 C124       -0.1296  -19.1868  -54.5471 C.3       23 UNK        -0.0398 
    125 S125        0.3102  -19.4871  -52.7986 S.3       23 UNK        -0.2404 
    126 C126        1.8002  -18.4629  -52.6213 C.3       23 UNK        -0.0205 
    127 H127       -1.3537  -12.6321  -47.0523 H         1 UNK         0.0600 
    128 H128       -0.5139  -13.8864  -46.1342 H         1 UNK         0.0600 
    129 H129       -1.0280  -14.1947  -47.8026 H         1 UNK         0.0600 
    130 H130        1.4485  -14.8187  -47.6820 H         1 UNK         0.3000 
    131 H131        2.9266  -12.9451  -49.2243 H         1 UNK         0.0600 
    132 H132        3.2368  -15.3166  -49.6057 H         1 UNK         0.0800 
    133 H133        4.7531  -14.6250  -49.1375 H         1 UNK         0.0800 
    134 H134        2.4285  -17.8809  -46.8790 H         1 UNK         0.0800 
    135 H135        1.6466  -16.6991  -47.8931 H         1 UNK         0.0800 
    136 H136        1.5234  -17.0810  -50.2826 H         1 UNK         0.1150 
    137 H137        3.5788  -20.4139  -52.0143 H         1 UNK         0.1150 
    138 H138        4.2314  -19.4055  -47.8988 H         1 UNK         0.1150 
    139 H139        5.2602  -21.5807  -50.7990 H         1 UNK         0.0800 
    140 H140        5.9082  -20.8376  -49.3596 H         1 UNK         0.0800 
    141 H141        2.6169  -22.3434  -50.5315 H         1 UNK         0.0800 
    142 H142        3.0662  -24.0016  -50.2489 H         1 UNK         0.0800 
    143 H143        1.8676  -24.0255  -48.1056 H         1 UNK         0.0600 
    144 H144        1.6893  -21.1629  -48.3507 H         1 UNK         0.3000 
    145 H145       -0.5520  -20.8711  -45.5364 H         1 UNK         0.0600 
    146 H146        1.3150  -19.4427  -44.7633 H         1 UNK         0.0600 
    147 H147        2.3952  -20.1566  -45.9627 H         1 UNK         0.0600 
    148 H148        1.7605  -21.1372  -44.6484 H         1 UNK         0.0600 
    149 H149        0.3127  -18.6955  -46.7921 H         1 UNK         0.3000 
    150 H150       -0.4039  -17.6688  -48.8094 H         1 UNK         0.0600 
    151 H151       -1.5546  -18.9079  -50.6660 H         1 UNK         0.0600 
    152 H152       -2.2518  -17.3194  -50.3951 H         1 UNK         0.0600 
    153 H153       -3.0854  -18.7628  -49.8160 H         1 UNK         0.0600 
    154 H154       -3.1412  -17.4318  -47.8418 H         1 UNK         0.3000 
    155 H155       -2.9354  -15.2143  -45.9710 H         1 UNK         0.0600 
    156 H156       -4.7936  -16.5861  -44.8978 H         1 UNK         0.0600 
    157 H157       -3.9388  -18.0578  -45.3456 H         1 UNK         0.0600 
    158 H158       -4.5777  -16.9799  -46.5864 H         1 UNK         0.0600 
    159 H159       -1.4250  -16.7958  -44.0921 H         1 UNK         0.3000 
    160 H160       -2.0466  -14.5593  -41.3975 H         1 UNK         0.0600 
    161 H161       -2.4091  -17.5933  -41.5300 H         1 UNK         0.0600 
    162 H162       -3.5494  -16.4279  -40.8798 H         1 UNK         0.0600 
    163 H163       -2.0014  -16.6690  -40.0844 H         1 UNK         0.0600 
    164 H164        0.0962  -14.8225  -41.7177 H         1 UNK         0.3000 
    165 H165        2.2908  -17.4319  -42.3771 H         1 UNK         0.0600 
    166 H166        1.7452  -15.1388  -44.3379 H         1 UNK         0.0600 
    167 H167        3.3054  -15.9368  -44.1228 H         1 UNK         0.0600 
    168 H168        1.9304  -16.8357  -44.7451 H         1 UNK         0.0600 
    169 H169        2.6810  -14.6023  -42.0742 H         1 UNK         0.3000 
    170 H170        2.9312  -14.7061  -38.4940 H         1 UNK         0.0600 
    171 H171        5.0869  -15.5787  -39.3864 H         1 UNK         0.0600 
    172 H172        5.0145  -14.4399  -40.7276 H         1 UNK         0.0600 
    173 H173        5.1892  -13.8523  -39.0750 H         1 UNK         0.0600 
    174 H174        2.8814  -12.9907  -40.9578 H         1 UNK         0.3000 
    175 H175        0.6385  -10.7461  -39.4448 H         1 UNK         0.0600 
    176 H176        3.5831  -10.1339  -40.0449 H         1 UNK         0.0600 
    177 H177        2.2691   -8.9575  -39.9931 H         1 UNK         0.0600 
    178 H178        2.7605   -9.7911  -38.5277 H         1 UNK         0.0600 
    179 H179        2.0492  -10.6214  -41.9209 H         1 UNK         0.3000 
    180 H180        0.2065  -13.0006  -43.7384 H         1 UNK         0.0600 
    181 H181       -0.2284   -9.9737  -43.8699 H         1 UNK         0.0600 
    182 H182       -1.4953  -11.1792  -43.6688 H         1 UNK         0.0600 
    183 H183       -0.5696  -11.1257  -45.1590 H         1 UNK         0.0600 
    184 H184        1.7982  -11.2246  -44.9640 H         1 UNK         0.3000 
    185 H185        4.2213  -11.2035  -45.1140 H         1 UNK         0.0600 
    186 H186        5.8035  -12.3663  -43.5339 H         1 UNK         0.0600 
    187 H187        5.3407  -13.9269  -44.2056 H         1 UNK         0.0600 
    188 H188        6.1876  -12.7495  -45.2058 H         1 UNK         0.0600 
    189 H189        2.8723  -13.6748  -45.8258 H         1 UNK         0.3000 
    190 H190       -0.3880  -21.8853  -49.7696 H         1 UNK         0.3000 
    191 H191       -1.6002  -24.0042  -51.3798 H         1 UNK         0.0600 
    192 H192       -3.2974  -22.3097  -51.9120 H         1 UNK         0.0600 
    193 H193       -1.6955  -21.6336  -52.1434 H         1 UNK         0.0600 
    194 H194       -2.6408  -21.2005  -50.7185 H         1 UNK         0.0600 
    195 H195       -2.2568  -22.3039  -48.2866 H         1 UNK         0.3000 
    196 H196       -4.6415  -23.6612  -47.5887 H         1 UNK         0.0600 
    197 H197       -4.1430  -22.8560  -45.2936 H         1 UNK         0.0600 
    198 H198       -3.8393  -21.5854  -46.4699 H         1 UNK         0.0600 
    199 H199       -2.4922  -22.4693  -45.7586 H         1 UNK         0.0600 
    200 H200       -1.2330  -24.5271  -46.8835 H         1 UNK         0.3000 
    201 H201       -1.7328  -26.9198  -45.4592 H         1 UNK         0.0600 
    202 H202        0.4648  -25.7650  -45.5013 H         1 UNK         0.0600 
    203 H203        0.6546  -26.1333  -47.2146 H         1 UNK         0.0600 
    204 H204        0.6469  -27.4318  -46.0270 H         1 UNK         0.0600 
    205 H205       -1.6865  -26.2967  -48.9444 H         1 UNK         0.3000 
    206 H206       -1.8535  -29.1290  -49.6976 H         1 UNK         0.0600 
    207 H207       -0.5589  -27.4848  -51.0651 H         1 UNK         0.0600 
    208 H208       -1.8713  -28.1914  -51.9941 H         1 UNK         0.0600 
    209 H209       -2.0287  -26.5591  -51.3606 H         1 UNK         0.0600 
    210 H210       -4.0710  -26.8936  -48.5225 H         1 UNK         0.3000 
    211 H211       -6.2468  -26.5938  -48.4570 H         1 UNK         0.0600 
    212 H212       -6.6137  -29.3804  -49.6749 H         1 UNK         0.0600 
    213 H213       -7.8120  -28.4560  -48.7826 H         1 UNK         0.0600 
    214 H214       -6.3788  -29.0476  -47.9592 H         1 UNK         0.0600 
    215 H215       -4.7806  -25.5745  -50.6317 H         1 UNK         0.3000 
    216 H216       -6.6943  -25.4932  -52.9275 H         1 UNK         0.0600 
    217 H217       -4.6867  -24.8422  -54.2315 H         1 UNK         0.0600 
    218 H218       -4.3901  -26.3650  -53.4083 H         1 UNK         0.0600 
    219 H219       -3.6921  -24.8747  -52.7796 H         1 UNK         0.0600 
    220 H220       -6.2037  -23.8141  -50.1818 H         1 UNK         0.3000 
    221 H221       -5.6568  -21.1533  -50.9439 H         1 UNK         0.0600 
    222 H222       -7.0729  -22.3293  -48.5088 H         1 UNK         0.0600 
    223 H223       -5.3933  -21.7952  -48.6538 H         1 UNK         0.0600 
    224 H224       -6.6849  -20.6202  -48.6671 H         1 UNK         0.0600 
    225 H225       -8.5231  -22.8970  -51.5975 H         1 UNK         0.3000 
    226 H226      -10.3906  -20.7099  -51.7985 H         1 UNK         0.0600 
    227 H227      -11.1277  -23.0810  -51.7226 H         1 UNK         0.0600 
    228 H228      -11.6647  -22.3267  -53.2152 H         1 UNK         0.0600 
    229 H229      -10.2855  -23.4191  -53.2355 H         1 UNK         0.0600 
    230 H230       -7.8159  -21.9803  -53.8720 H         1 UNK         0.3000 
    231 H231       -8.4130  -20.0208  -56.0408 H         1 UNK         0.0600 
    232 H232       -6.6766  -21.2862  -57.2903 H         1 UNK         0.0600 
    233 H233       -7.9731  -22.3540  -56.7728 H         1 UNK         0.0600 
    234 H234       -6.4317  -22.3587  -55.9176 H         1 UNK         0.0600 
    235 H235       -5.9234  -21.1128  -53.7372 H         1 UNK         0.3000 
    236 H236       -4.2464  -20.1913  -52.6693 H         1 UNK         0.0600 
    237 H237       -5.9115  -18.3707  -52.0783 H         1 UNK         0.0600 
    238 H238       -4.2501  -17.8277  -52.0499 H         1 UNK         0.0600 
    239 H239       -5.2839  -17.4069  -53.4098 H         1 UNK         0.0600 
    240 H240       -2.5457  -18.0137  -53.0996 H         1 UNK         0.3000 
    241 H241       -1.5103  -18.1697  -55.8199 H         1 UNK         0.0600 
    242 H242       -2.5170  -15.9902  -53.7516 H         1 UNK         0.3800 
    243 H243       -1.2456  -14.8157  -53.9180 H         1 UNK         0.3800 
    244 H244       -0.4628  -20.1404  -54.9583 H         1 UNK         0.0800 
    245 H245        0.7638  -18.9303  -55.1184 H         1 UNK         0.0800 
    246 H246        1.5339  -17.4091  -52.7115 H         1 UNK         0.0800 
    247 H247        2.4955  -18.6784  -53.4340 H         1 UNK         0.0800 
@<TRIPOS>BOND
     1    1    2 1    
     2    1  127 1    
     3    1  128 1    
     4    1  129 1    
     5    2    3 2    
     6    2    4 am   BACKBONE|DICT|INTERRES
     7    4    5 1    
     8    4  130 1    
     9    5    6 1    
    10    5   65 1    
    11    5  131 1    
    12    6    7 1    
    13    6  132 1    
    14    6  133 1    
    15    7    8 1    
    16    8    9 1    
    17    8  134 1    
    18    8  135 1    
    19    9   10 ar   
    20    9   14 ar   
    21   10   11 ar   
    22   10  136 1    
    23   11   12 ar   
    24   11  126 1    
    25   12   13 ar   
    26   12  137 1    
    27   13   14 ar   
    28   13   15 1    
    29   14  138 1    
    30   15   16 1    
    31   15  139 1    
    32   15  140 1    
    33   16   17 1    
    34   17   18 1    
    35   17  141 1    
    36   17  142 1    
    37   18   19 1    
    38   18   67 1    
    39   18  143 1    
    40   19   20 am   BACKBONE|DICT|INTERRES
    41   19  144 1    
    42   20   21 2    
    43   20   22 1    
    44   22   23 1    
    45   22   24 1    
    46   22  145 1    
    47   23  146 1    
    48   23  147 1    
    49   23  148 1    
    50   24   25 am   BACKBONE|DICT|INTERRES
    51   24  149 1    
    52   25   26 2    
    53   25   27 1    
    54   27   28 1    
    55   27   29 1    
    56   27  150 1    
    57   28  151 1    
    58   28  152 1    
    59   28  153 1    
    60   29   30 am   BACKBONE|DICT|INTERRES
    61   29  154 1    
    62   30   31 2    
    63   30   32 1    
    64   32   33 1    
    65   32   34 1    
    66   32  155 1    
    67   33  156 1    
    68   33  157 1    
    69   33  158 1    
    70   34   35 am   BACKBONE|DICT|INTERRES
    71   34  159 1    
    72   35   36 2    
    73   35   37 1    
    74   37   38 1    
    75   37   39 1    
    76   37  160 1    
    77   38  161 1    
    78   38  162 1    
    79   38  163 1    
    80   39   40 am   BACKBONE|DICT|INTERRES
    81   39  164 1    
    82   40   41 2    
    83   40   42 1    
    84   42   43 1    
    85   42   44 1    
    86   42  165 1    
    87   43  166 1    
    88   43  167 1    
    89   43  168 1    
    90   44   45 am   BACKBONE|DICT|INTERRES
    91   44  169 1    
    92   45   46 2    
    93   45   47 1    
    94   47   48 1    
    95   47   49 1    
    96   47  170 1    
    97   48  171 1    
    98   48  172 1    
    99   48  173 1    
   100   49   50 am   BACKBONE|DICT|INTERRES
   101   49  174 1    
   102   50   51 2    
   103   50   52 1    
   104   52   53 1    
   105   52   54 1    
   106   52  175 1    
   107   53  176 1    
   108   53  177 1    
   109   53  178 1    
   110   54   55 am   BACKBONE|DICT|INTERRES
   111   54  179 1    
   112   55   56 2    
   113   55   57 1    
   114   57   58 1    
   115   57   59 1    
   116   57  180 1    
   117   58  181 1    
   118   58  182 1    
   119   58  183 1    
   120   59   60 am   BACKBONE|DICT|INTERRES
   121   59  184 1    
   122   60   61 2    
   123   60   62 1    
   124   62   63 1    
   125   62   64 1    
   126   62  185 1    
   127   63  186 1    
   128   63  187 1    
   129   63  188 1    
   130   64   65 am   BACKBONE|DICT|INTERRES
   131   64  189 1    
   132   65   66 2    
   133   67   68 2    
   134   67   69 am   BACKBONE|DICT|INTERRES
   135   69   70 1    
   136   69  190 1    
   137   70   71 1    
   138   70   72 1    
   139   70  191 1    
   140   71  192 1    
   141   71  193 1    
   142   71  194 1    
   143   72   73 2    
   144   72   74 am   BACKBONE|DICT|INTERRES
   145   74   75 1    
   146   74  195 1    
   147   75   76 1    
   148   75   77 1    
   149   75  196 1    
   150   76  197 1    
   151   76  198 1    
   152   76  199 1    
   153   77   78 2    
   154   77   79 am   BACKBONE|DICT|INTERRES
   155   79   80 1    
   156   79  200 1    
   157   80   81 1    
   158   80   82 1    
   159   80  201 1    
   160   81  202 1    
   161   81  203 1    
   162   81  204 1    
   163   82   83 2    
   164   82   84 am   BACKBONE|DICT|INTERRES
   165   84   85 1    
   166   84  205 1    
   167   85   86 1    
   168   85   87 1    
   169   85  206 1    
   170   86  207 1    
   171   86  208 1    
   172   86  209 1    
   173   87   88 2    
   174   87   89 am   BACKBONE|DICT|INTERRES
   175   89   90 1    
   176   89  210 1    
   177   90   91 1    
   178   90   92 1    
   179   90  211 1    
   180   91  212 1    
   181   91  213 1    
   182   91  214 1    
   183   92   93 2    
   184   92   94 am   BACKBONE|DICT|INTERRES
   185   94   95 1    
   186   94  215 1    
   187   95   96 1    
   188   95   97 1    
   189   95  216 1    
   190   96  217 1    
   191   96  218 1    
   192   96  219 1    
   193   97   98 2    
   194   97   99 am   BACKBONE|DICT|INTERRES
   195   99  100 1    
   196   99  220 1    
   197  100  101 1    
   198  100  102 1    
   199  100  221 1    
   200  101  222 1    
   201  101  223 1    
   202  101  224 1    
   203  102  103 2    
   204  102  104 am   BACKBONE|DICT|INTERRES
   205  104  105 1    
   206  104  225 1    
   207  105  106 1    
   208  105  107 1    
   209  105  226 1    
   210  106  227 1    
   211  106  228 1    
   212  106  229 1    
   213  107  108 2    
   214  107  109 am   BACKBONE|DICT|INTERRES
   215  109  110 1    
   216  109  230 1    
   217  110  111 1    
   218  110  112 1    
   219  110  231 1    
   220  111  232 1    
   221  111  233 1    
   222  111  234 1    
   223  112  113 2    
   224  112  114 am   BACKBONE|DICT|INTERRES
   225  114  115 1    
   226  114  235 1    
   227  115  116 1    
   228  115  117 1    
   229  115  236 1    
   230  116  237 1    
   231  116  238 1    
   232  116  239 1    
   233  117  118 2    
   234  117  119 am   BACKBONE|DICT|INTERRES
   235  119  120 1    
   236  119  240 1    
   237  120  121 1    
   238  120  124 1    
   239  120  241 1    
   240  121  122 am   BACKBONE|DICT|INTERRES
   241  121  123 2    
   242  122  242 1    
   243  122  243 1    
   244  124  125 1    
   245  124  244 1    
   246  124  245 1    
   247  125  126 1    
   248  126  246 1    
   249  126  247 1    
@<TRIPOS>SUBSTRUCTURE
     1 UNK         1 GROUP             0       ****    0 ROOT    
