@<TRIPOS>MOLECULE
3R540
247   249    1
SMALL
USER_CHARGES


@<TRIPOS>ATOM
      1 CA          6.8448  -19.1525  -49.4053 C.3       0 UNK        -0.1800 
      2 C           5.7632  -18.8422  -48.3805 C.2       0 UNK         0.5000 
      3 O           5.9254  -19.1603  -47.2026 O.2       0 UNK        -0.5000 
      4 N           4.6616  -18.2238  -48.8241 N.am      1 UNK        -0.5000 
      5 CA          3.5245  -17.8282  -47.9841 C.3       1 UNK         0.1400 
      6 C6          2.2360  -17.6133  -48.8153 C.3       23 UNK        -0.0398 
      7 S7          2.4125  -16.4231  -50.1967 S.3       23 UNK        -0.2404 
      8 C8          1.2384  -15.1064  -49.7400 C.3       23 UNK        -0.0205 
      9 C9         -0.2057  -15.5405  -49.9434 C.ar      23 UNK        -0.0193 
     10 C10        -0.8138  -15.4380  -51.1991 C.ar      23 UNK        -0.1150 
     11 C11        -2.1367  -15.8565  -51.3822 C.ar      23 UNK        -0.0193 
     12 C12        -2.8434  -16.4021  -50.3065 C.ar      23 UNK        -0.1150 
     13 C13        -2.2420  -16.5126  -49.0520 C.ar      23 UNK        -0.0193 
     14 C14        -0.9369  -16.0515  -48.8703 C.ar      23 UNK        -0.1150 
     15 C15        -2.9838  -17.1455  -47.8874 C.3       23 UNK        -0.0205 
     16 S16        -3.0181  -18.9704  -47.9663 S.3       23 UNK        -0.2404 
     17 C17        -1.3359  -19.4306  -48.5293 C.3       23 UNK        -0.0398 
     18 CA         -0.7167  -20.7223  -47.9389 C.3       11 UNK         0.1400 
     19 N          -0.1409  -20.5338  -46.6052 N.am      11 UNK        -0.5000 
     20 C           0.7604  -21.3688  -46.0664 C.2       10 UNK         0.5000 
     21 O           1.1756  -22.3770  -46.6350 O.2       10 UNK        -0.5000 
     22 CA          1.2554  -21.0606  -44.6442 C.3       10 UNK         0.1400 
     23 CB          2.2761  -19.9135  -44.6590 C.3       10 UNK        -0.1800 
     24 N           0.1645  -20.7542  -43.7210 N.am      10 UNK        -0.5000 
     25 C          -0.8208  -21.6057  -43.3994 C.2       9 UNK         0.5000 
     26 O          -0.9182  -22.7467  -43.8513 O.2       9 UNK        -0.5000 
     27 CA         -1.8971  -21.0792  -42.4373 C.3       9 UNK         0.1400 
     28 CB         -1.4268  -21.1728  -40.9778 C.3       9 UNK        -0.1800 
     29 N          -2.2591  -19.6991  -42.7517 N.am      9 UNK        -0.5000 
     30 C          -3.0138  -19.3464  -43.8010 C.2       8 UNK         0.5000 
     31 O          -3.5353  -20.1533  -44.5697 O.2       8 UNK        -0.5000 
     32 CA         -3.1855  -17.8371  -44.0485 C.3       8 UNK         0.1400 
     33 CB         -4.2947  -17.2626  -43.1551 C.3       8 UNK        -0.1800 
     34 N          -1.9515  -17.0794  -43.8313 N.am      8 UNK        -0.5000 
     35 C          -0.8176  -17.2346  -44.5307 C.2       7 UNK         0.5000 
     36 O          -0.6956  -18.0039  -45.4821 O.2       7 UNK        -0.5000 
     37 CA          0.4043  -16.4289  -44.0587 C.3       7 UNK         0.1400 
     38 CB          0.4912  -15.0971  -44.8178 C.3       7 UNK        -0.1800 
     39 N           0.4393  -16.1982  -42.6100 N.am      7 UNK        -0.5000 
     40 C           0.4949  -17.1777  -41.6909 C.2       6 UNK         0.5000 
     41 O           0.4604  -18.3739  -41.9838 O.2       6 UNK        -0.5000 
     42 CA          0.6074  -16.7873  -40.2026 C.3       6 UNK         0.1400 
     43 CB          1.9861  -17.1837  -39.6520 C.3       6 UNK        -0.1800 
     44 N           0.3947  -15.3644  -39.9427 N.am      6 UNK        -0.5000 
     45 C          -0.7901  -14.7389  -39.9567 C.2       5 UNK         0.5000 
     46 O          -1.8629  -15.3115  -40.1500 O.2       5 UNK        -0.5000 
     47 CA         -0.7594  -13.2067  -39.7625 C.3       5 UNK         0.1400 
     48 CB         -1.0003  -12.8468  -38.2887 C.3       5 UNK        -0.1800 
     49 N           0.4916  -12.5792  -40.2136 N.am      5 UNK        -0.5000 
     50 C           0.9408  -12.6165  -41.4749 C.2       4 UNK         0.5000 
     51 O           0.3286  -13.1703  -42.3910 O.2       4 UNK        -0.5000 
     52 CA          2.3160  -11.9911  -41.7518 C.3       4 UNK         0.1400 
     53 CB          3.4351  -12.7815  -41.0454 C.3       4 UNK        -0.1800 
     54 N           2.5363  -12.0085  -43.1943 N.am      4 UNK        -0.5000 
     55 C           3.3980  -11.2515  -43.8759 C.2       3 UNK         0.5000 
     56 O           4.1642  -10.4403  -43.3528 O.2       3 UNK        -0.5000 
     57 CA          3.4451  -11.4972  -45.3900 C.3       3 UNK         0.1400 
     58 CB          3.9402  -10.2719  -46.1824 C.3       3 UNK        -0.1800 
     59 N           4.3264  -12.6348  -45.6298 N.am      3 UNK        -0.5000 
     60 C           4.2290  -13.4922  -46.6517 C.2       2 UNK         0.5000 
     61 O           3.3694  -13.4015  -47.5307 O.2       2 UNK        -0.5000 
     62 CA          5.2998  -14.6056  -46.7349 C.3       2 UNK         0.1400 
     63 CB          5.9113  -14.9851  -45.3661 C.3       2 UNK        -0.1800 
     64 N           4.8274  -15.8033  -47.4389 N.am      2 UNK        -0.5000 
     65 C           3.8302  -16.6215  -47.0672 C.2       1 UNK         0.5000 
     66 O           3.1719  -16.4763  -46.0386 O.2       1 UNK        -0.5000 
     67 C          -1.6438  -21.9515  -48.0076 C.2       11 UNK         0.5000 
     68 O          -1.6173  -22.6658  -49.0092 O.2       11 UNK        -0.5000 
     69 N          -2.4024  -22.2146  -46.9331 N.am      12 UNK        -0.5000 
     70 CA         -3.2406  -23.4059  -46.7983 C.3       12 UNK         0.1400 
     71 CB         -4.1316  -23.2788  -45.5549 C.3       12 UNK        -0.1800 
     72 C          -2.4174  -24.7051  -46.7565 C.2       12 UNK         0.5000 
     73 O          -2.8317  -25.6987  -47.3498 O.2       12 UNK        -0.5000 
     74 N          -1.2559  -24.6707  -46.0911 N.am      13 UNK        -0.5000 
     75 CA         -0.3027  -25.7769  -46.0565 C.3       13 UNK         0.1400 
     76 CB          0.7070  -25.5488  -44.9206 C.3       13 UNK        -0.1800 
     77 C           0.4176  -25.9727  -47.4038 C.2       13 UNK         0.5000 
     78 O           0.4986  -27.1016  -47.8889 O.2       13 UNK        -0.5000 
     79 N           0.9386  -24.8779  -47.9740 N.am      14 UNK        -0.5000 
     80 CA          1.7754  -24.8925  -49.1732 C.3       14 UNK         0.1400 
     81 CB          2.5522  -23.5697  -49.2725 C.3       14 UNK        -0.1800 
     82 C           0.9955  -25.1521  -50.4725 C.2       14 UNK         0.5000 
     83 O           1.4413  -25.9590  -51.2896 O.2       14 UNK        -0.5000 
     84 N          -0.1295  -24.4495  -50.6580 N.am      15 UNK        -0.5000 
     85 CA         -0.8925  -24.4383  -51.9089 C.3       15 UNK         0.1400 
     86 CB         -1.2675  -22.9860  -52.2461 C.3       15 UNK        -0.1800 
     87 C          -2.1481  -25.3260  -51.8559 C.2       15 UNK         0.5000 
     88 O          -2.8449  -25.4292  -52.8664 O.2       15 UNK        -0.5000 
     89 N          -2.4329  -25.9306  -50.6924 N.am      16 UNK        -0.5000 
     90 CA         -3.5524  -26.8262  -50.3632 C.3       16 UNK         0.1400 
     91 CB         -3.5639  -28.0769  -51.2637 C.3       16 UNK        -0.1800 
     92 C          -4.9324  -26.1382  -50.3452 C.2       16 UNK         0.5000 
     93 O          -5.6809  -26.3009  -49.3815 O.2       16 UNK        -0.5000 
     94 N          -5.2449  -25.3819  -51.4026 N.am      17 UNK        -0.5000 
     95 CA         -6.5074  -24.6672  -51.5946 C.3       17 UNK         0.1400 
     96 CB         -6.8534  -24.6846  -53.0924 C.3       17 UNK        -0.1800 
     97 C          -6.4745  -23.2254  -51.0475 C.2       17 UNK         0.5000 
     98 O          -7.4868  -22.5299  -51.1379 O.2       17 UNK        -0.5000 
     99 N          -5.3283  -22.7913  -50.5003 N.am      18 UNK        -0.5000 
    100 CA        -5.0699  -21.4511  -49.9633 C.3       18 UNK         0.1400 
    101 CB        -5.9193  -21.2034  -48.6937 C.3       18 UNK        -0.1800 
    102 C         -5.2279  -20.3715  -51.0557 C.2       18 UNK         0.5000 
    103 O         -4.6698  -20.5322  -52.1415 O.2       18 UNK        -0.5000 
    104 N         -6.0026  -19.3126  -50.7843 N.am      19 UNK        -0.5000 
    105 CA        -6.2737  -18.2100  -51.7118 C.3       19 UNK         0.1400 
    106 CB        -7.0496  -17.1114  -50.9719 C.3       19 UNK        -0.1800 
    107 C         -7.0097  -18.6243  -53.0033 C.2       19 UNK         0.5000 
    108 O         -6.9079  -17.9150  -54.0054 O.2       19 UNK        -0.5000 
    109 N         -7.6971  -19.7761  -52.9922 N.am      20 UNK        -0.5000 
    110 CA        -8.3246  -20.3548  -54.1822 C.3       20 UNK         0.1400 
    111 CB        -9.3622  -21.4071  -53.7666 C.3       20 UNK        -0.1800 
    112 C         -7.3045  -20.9341  -55.1852 C.2       20 UNK         0.5000 
    113 O         -7.6539  -21.0995  -56.3544 O.2       20 UNK        -0.5000 
    114 N         -6.0642  -21.2000  -54.7416 N.am      21 UNK        -0.5000 
    115 CA        -4.9437  -21.5271  -55.6269 C.3       21 UNK         0.1400 
    116 CB        -3.8282  -22.2212  -54.8325 C.3       21 UNK        -0.1800 
    117 C         -4.3927  -20.2703  -56.3268 C.2       21 UNK         0.5000 
    118 O         -3.9621  -20.3600  -57.4773 O.2       21 UNK        -0.5000 
    119 N         -4.4233  -19.1269  -55.6271 N.am      22 UNK        -0.5000 
    120 CA        -4.0630  -17.8071  -56.1671 C.3       22 UNK         0.1400 
    121 C         -5.1019  -17.2954  -57.2020 C.2       22 UNK         0.5000 
    122 N         -6.3919  -17.3669  -56.8938 N.am      22 UNK        -0.7600 
    123 O         -4.7384  -16.8325  -58.2795 O.2       22 UNK        -0.5000 
    124 C124       -3.8640  -16.7362  -55.0636 C.3       23 UNK        -0.0398 
    125 S125       -2.7264  -17.2204  -53.7246 S.3       23 UNK        -0.2404 
    126 C126       -2.8170  -15.6997  -52.7311 C.3       23 UNK        -0.0205 
    127 H127        6.5650  -18.8179  -50.4046 H         1 UNK         0.0600 
    128 H128        7.7761  -18.6579  -49.1292 H         1 UNK         0.0600 
    129 H129        7.0266  -20.2266  -49.4450 H         1 UNK         0.0600 
    130 H130        4.5796  -17.9852  -49.8029 H         1 UNK         0.3000 
    131 H131        3.3205  -18.6643  -47.3116 H         1 UNK         0.0600 
    132 H132        1.4212  -17.3169  -48.1564 H         1 UNK         0.0800 
    133 H133        1.9250  -18.5660  -49.2459 H         1 UNK         0.0800 
    134 H134        1.4440  -14.2239  -50.3473 H         1 UNK         0.0800 
    135 H135        1.4076  -14.8079  -48.7043 H         1 UNK         0.0800 
    136 H136       -0.2572  -15.0323  -52.0323 H         1 UNK         0.1150 
    137 H137       -3.8577  -16.7471  -50.4441 H         1 UNK         0.1150 
    138 H138       -0.4799  -16.1269  -47.8943 H         1 UNK         0.1150 
    139 H139       -2.5275  -16.8314  -46.9505 H         1 UNK         0.0800 
    140 H140       -4.0093  -16.7748  -47.8611 H         1 UNK         0.0800 
    141 H141       -0.6509  -18.6118  -48.3240 H         1 UNK         0.0800 
    142 H142       -1.3768  -19.5130  -49.6167 H         1 UNK         0.0800 
    143 H143        0.1271  -20.9590  -48.5915 H         1 UNK         0.0600 
    144 H144       -0.4315  -19.7017  -46.0934 H         1 UNK         0.3000 
    145 H145        1.7580  -21.9528  -44.2652 H         1 UNK         0.0600 
    146 H146        2.5904  -19.6439  -43.6505 H         1 UNK         0.0600 
    147 H147        3.1704  -20.1994  -45.2141 H         1 UNK         0.0600 
    148 H148        1.8724  -19.0222  -45.1368 H         1 UNK         0.0600 
    149 H149        0.1862  -19.8450  -43.2697 H         1 UNK         0.3000 
    150 H150       -2.7837  -21.7076  -42.5471 H         1 UNK         0.0600 
    151 H151       -1.1837  -22.2028  -40.7142 H         1 UNK         0.0600 
    152 H152       -2.2040  -20.8366  -40.2913 H         1 UNK         0.0600 
    153 H153       -0.5362  -20.5705  -40.7966 H         1 UNK         0.0600 
    154 H154       -1.8103  -18.9761  -42.2075 H         1 UNK         0.3000 
    155 H155       -3.4909  -17.7093  -45.0867 H         1 UNK         0.0600 
    156 H156       -4.0354  -17.3267  -42.0974 H         1 UNK         0.0600 
    157 H157       -5.2308  -17.8040  -43.2982 H         1 UNK         0.0600 
    158 H158       -4.4867  -16.2156  -43.3902 H         1 UNK         0.0600 
    159 H159       -1.9478  -16.4283  -43.0592 H         1 UNK         0.3000 
    160 H160        1.2923  -17.0098  -44.3042 H         1 UNK         0.0600 
    161 H161        1.3967  -14.5524  -44.5518 H         1 UNK         0.0600 
    162 H162       -0.3686  -14.4578  -44.6151 H         1 UNK         0.0600 
    163 H163        0.5290  -15.2651  -45.8945 H         1 UNK         0.0600 
    164 H164        0.4384  -15.2302  -42.3098 H         1 UNK         0.3000 
    165 H165       -0.1522  -17.3556  -39.6617 H         1 UNK         0.0600 
    166 H166        2.0585  -16.9787  -38.5837 H         1 UNK         0.0600 
    167 H167        2.1717  -18.2500  -39.7888 H         1 UNK         0.0600 
    168 H168        2.7901  -16.6438  -40.1540 H         1 UNK         0.0600 
    169 H169        1.2207  -14.8099  -39.7743 H         1 UNK         0.3000 
    170 H170       -1.5753  -12.7875  -40.3550 H         1 UNK         0.0600 
    171 H171       -1.9357  -13.2778  -37.9291 H         1 UNK         0.0600 
    172 H172       -0.1998  -13.2181  -37.6475 H         1 UNK         0.0600 
    173 H173       -1.0683  -11.7674  -38.1517 H         1 UNK         0.0600 
    174 H174        1.0416  -12.1112  -39.5075 H         1 UNK         0.3000 
    175 H175        2.3029  -10.9588  -41.3965 H         1 UNK         0.0600 
    176 H176        3.4584  -13.8219  -41.3726 H         1 UNK         0.0600 
    177 H177        4.4148  -12.3482  -41.2466 H         1 UNK         0.0600 
    178 H178        3.3026  -12.7785  -39.9631 H         1 UNK         0.0600 
    179 H179        1.9050  -12.6285  -43.6872 H         1 UNK         0.3000 
    180 H180        2.4321  -11.7363  -45.7218 H         1 UNK         0.0600 
    181 H181        4.9705  -10.0170  -45.9312 H         1 UNK         0.0600 
    182 H182        3.3229   -9.3974  -45.9735 H         1 UNK         0.0600 
    183 H183        3.8941  -10.4527  -47.2564 H         1 UNK         0.0600 
    184 H184        5.0462  -12.7792  -44.9348 H         1 UNK         0.3000 
    185 H185        6.1035  -14.1993  -47.3504 H         1 UNK         0.0600 
    186 H186        6.4757  -14.1567  -44.9373 H         1 UNK         0.0600 
    187 H187        5.1465  -15.2752  -44.6446 H         1 UNK         0.0600 
    188 H188        6.6048  -15.8204  -45.4660 H         1 UNK         0.0600 
    189 H189        5.2809  -15.9986  -48.3195 H         1 UNK         0.3000 
    190 H190       -2.3914  -21.5708  -46.1524 H         1 UNK         0.3000 
    191 H191       -3.8877  -23.4611  -47.6757 H         1 UNK         0.0600 
    192 H192       -3.5411  -23.1864  -44.6431 H         1 UNK         0.0600 
    193 H193       -4.7748  -24.1526  -45.4443 H         1 UNK         0.0600 
    194 H194       -4.7798  -22.4050  -45.6231 H         1 UNK         0.0600 
    195 H195       -1.0081  -23.8339  -45.5733 H         1 UNK         0.3000 
    196 H196       -0.8515  -26.6948  -45.8351 H         1 UNK         0.0600 
    197 H197        1.4253  -26.3676  -44.8655 H         1 UNK         0.0600 
    198 H198        0.2044  -25.4905  -43.9549 H         1 UNK         0.0600 
    199 H199        1.2702  -24.6252  -45.0574 H         1 UNK         0.0600 
    200 H200        0.8613  -23.9861  -47.4894 H         1 UNK         0.3000 
    201 H201        2.5067  -25.6963  -49.0627 H         1 UNK         0.0600 
    202 H202        3.1818  -23.4160  -48.3959 H         1 UNK         0.0600 
    203 H203        1.8818  -22.7136  -49.3561 H         1 UNK         0.0600 
    204 H204        3.2049  -23.5628  -50.1464 H         1 UNK         0.0600 
    205 H205       -0.4649  -23.8219  -49.9305 H         1 UNK         0.3000 
    206 H206       -0.2726  -24.8121  -52.7263 H         1 UNK         0.0600 
    207 H207       -0.4085  -22.3205  -52.1589 H         1 UNK         0.0600 
    208 H208       -1.6218  -22.9169  -53.2733 H         1 UNK         0.0600 
    209 H209       -2.0580  -22.6027  -51.6000 H         1 UNK         0.0600 
    210 H210       -1.8078  -25.7401  -49.9213 H         1 UNK         0.3000 
    211 H211       -3.3634  -27.1786  -49.3495 H         1 UNK         0.0600 
    212 H212       -3.7815  -27.8350  -52.3042 H         1 UNK         0.0600 
    213 H213       -4.3240  -28.7850  -50.9315 H         1 UNK         0.0600 
    214 H214       -2.6042  -28.5927  -51.2327 H         1 UNK         0.0600 
    215 H215       -4.5515  -25.3091  -52.1440 H         1 UNK         0.3000 
    216 H216       -7.3030  -25.1939  -51.0637 H         1 UNK         0.0600 
    217 H217       -7.8586  -24.3023  -53.2659 H         1 UNK         0.0600 
    218 H218       -6.8254  -25.6982  -53.4928 H         1 UNK         0.0600 
    219 H219       -6.1646  -24.0752  -53.6756 H         1 UNK         0.0600 
    220 H220       -4.5422  -23.4238  -50.5063 H         1 UNK         0.3000 
    221 H221       -4.0202  -21.4318  -49.6729 H         1 UNK         0.0600 
    222 H222       -6.9871  -21.1637  -48.9105 H         1 UNK         0.0600 
    223 H223       -5.7672  -21.9954  -47.9617 H         1 UNK         0.0600 
    224 H224       -5.6471  -20.2676  -48.2061 H         1 UNK         0.0600 
    225 H225       -6.4464  -19.2608  -49.8790 H         1 UNK         0.3000 
    226 H226       -5.3114  -17.7974  -52.0196 H         1 UNK         0.0600 
    227 H227       -8.0157  -17.4720  -50.6165 H         1 UNK         0.0600 
    228 H228       -6.4899  -16.7430  -50.1119 H         1 UNK         0.0600 
    229 H229       -7.2370  -16.2579  -51.6249 H         1 UNK         0.0600 
    230 H230       -7.7173  -20.3339  -52.1481 H         1 UNK         0.3000 
    231 H231       -8.8612  -19.5571  -54.7004 H         1 UNK         0.0600 
    232 H232      -10.1071  -20.9834  -53.0930 H         1 UNK         0.0600 
    233 H233       -8.9006  -22.2544  -53.2652 H         1 UNK         0.0600 
    234 H234       -9.8938  -21.7944  -54.6367 H         1 UNK         0.0600 
    235 H235       -5.8329  -21.0287  -53.7690 H         1 UNK         0.3000 
    236 H236       -5.2921  -22.2216  -56.3943 H         1 UNK         0.0600 
    237 H237       -3.0421  -22.5745  -55.5007 H         1 UNK         0.0600 
    238 H238       -3.3628  -21.5413  -54.1193 H         1 UNK         0.0600 
    239 H239       -4.1956  -23.0855  -54.2816 H         1 UNK         0.0600 
    240 H240       -4.7883  -19.1395  -54.6868 H         1 UNK         0.3000 
    241 H241       -3.1102  -17.9182  -56.6886 H         1 UNK         0.0600 
    242 H242       -7.0821  -17.0425  -57.5522 H         1 UNK         0.3800 
    243 H243       -6.6791  -17.6825  -55.9728 H         1 UNK         0.3800 
    244 H244       -3.4823  -15.8162  -55.5103 H         1 UNK         0.0800 
    245 H245       -4.8197  -16.4736  -54.6083 H         1 UNK         0.0800 
    246 H246       -2.3649  -14.8777  -53.2884 H         1 UNK         0.0800 
    247 H247       -3.8621  -15.4265  -52.5764 H         1 UNK         0.0800 
@<TRIPOS>BOND
     1    1    2 1    
     2    1  127 1    
     3    1  128 1    
     4    1  129 1    
     5    2    3 2    
     6    2    4 am   BACKBONE|DICT|INTERRES
     7    4    5 1    
     8    4  130 1    
     9    5    6 1    
    10    5   65 1    
    11    5  131 1    
    12    6    7 1    
    13    6  132 1    
    14    6  133 1    
    15    7    8 1    
    16    8    9 1    
    17    8  134 1    
    18    8  135 1    
    19    9   10 ar   
    20    9   14 ar   
    21   10   11 ar   
    22   10  136 1    
    23   11   12 ar   
    24   11  126 1    
    25   12   13 ar   
    26   12  137 1    
    27   13   14 ar   
    28   13   15 1    
    29   14  138 1    
    30   15   16 1    
    31   15  139 1    
    32   15  140 1    
    33   16   17 1    
    34   17   18 1    
    35   17  141 1    
    36   17  142 1    
    37   18   19 1    
    38   18   67 1    
    39   18  143 1    
    40   19   20 am   BACKBONE|DICT|INTERRES
    41   19  144 1    
    42   20   21 2    
    43   20   22 1    
    44   22   23 1    
    45   22   24 1    
    46   22  145 1    
    47   23  146 1    
    48   23  147 1    
    49   23  148 1    
    50   24   25 am   BACKBONE|DICT|INTERRES
    51   24  149 1    
    52   25   26 2    
    53   25   27 1    
    54   27   28 1    
    55   27   29 1    
    56   27  150 1    
    57   28  151 1    
    58   28  152 1    
    59   28  153 1    
    60   29   30 am   BACKBONE|DICT|INTERRES
    61   29  154 1    
    62   30   31 2    
    63   30   32 1    
    64   32   33 1    
    65   32   34 1    
    66   32  155 1    
    67   33  156 1    
    68   33  157 1    
    69   33  158 1    
    70   34   35 am   BACKBONE|DICT|INTERRES
    71   34  159 1    
    72   35   36 2    
    73   35   37 1    
    74   37   38 1    
    75   37   39 1    
    76   37  160 1    
    77   38  161 1    
    78   38  162 1    
    79   38  163 1    
    80   39   40 am   BACKBONE|DICT|INTERRES
    81   39  164 1    
    82   40   41 2    
    83   40   42 1    
    84   42   43 1    
    85   42   44 1    
    86   42  165 1    
    87   43  166 1    
    88   43  167 1    
    89   43  168 1    
    90   44   45 am   BACKBONE|DICT|INTERRES
    91   44  169 1    
    92   45   46 2    
    93   45   47 1    
    94   47   48 1    
    95   47   49 1    
    96   47  170 1    
    97   48  171 1    
    98   48  172 1    
    99   48  173 1    
   100   49   50 am   BACKBONE|DICT|INTERRES
   101   49  174 1    
   102   50   51 2    
   103   50   52 1    
   104   52   53 1    
   105   52   54 1    
   106   52  175 1    
   107   53  176 1    
   108   53  177 1    
   109   53  178 1    
   110   54   55 am   BACKBONE|DICT|INTERRES
   111   54  179 1    
   112   55   56 2    
   113   55   57 1    
   114   57   58 1    
   115   57   59 1    
   116   57  180 1    
   117   58  181 1    
   118   58  182 1    
   119   58  183 1    
   120   59   60 am   BACKBONE|DICT|INTERRES
   121   59  184 1    
   122   60   61 2    
   123   60   62 1    
   124   62   63 1    
   125   62   64 1    
   126   62  185 1    
   127   63  186 1    
   128   63  187 1    
   129   63  188 1    
   130   64   65 am   BACKBONE|DICT|INTERRES
   131   64  189 1    
   132   65   66 2    
   133   67   68 2    
   134   67   69 am   BACKBONE|DICT|INTERRES
   135   69   70 1    
   136   69  190 1    
   137   70   71 1    
   138   70   72 1    
   139   70  191 1    
   140   71  192 1    
   141   71  193 1    
   142   71  194 1    
   143   72   73 2    
   144   72   74 am   BACKBONE|DICT|INTERRES
   145   74   75 1    
   146   74  195 1    
   147   75   76 1    
   148   75   77 1    
   149   75  196 1    
   150   76  197 1    
   151   76  198 1    
   152   76  199 1    
   153   77   78 2    
   154   77   79 am   BACKBONE|DICT|INTERRES
   155   79   80 1    
   156   79  200 1    
   157   80   81 1    
   158   80   82 1    
   159   80  201 1    
   160   81  202 1    
   161   81  203 1    
   162   81  204 1    
   163   82   83 2    
   164   82   84 am   BACKBONE|DICT|INTERRES
   165   84   85 1    
   166   84  205 1    
   167   85   86 1    
   168   85   87 1    
   169   85  206 1    
   170   86  207 1    
   171   86  208 1    
   172   86  209 1    
   173   87   88 2    
   174   87   89 am   BACKBONE|DICT|INTERRES
   175   89   90 1    
   176   89  210 1    
   177   90   91 1    
   178   90   92 1    
   179   90  211 1    
   180   91  212 1    
   181   91  213 1    
   182   91  214 1    
   183   92   93 2    
   184   92   94 am   BACKBONE|DICT|INTERRES
   185   94   95 1    
   186   94  215 1    
   187   95   96 1    
   188   95   97 1    
   189   95  216 1    
   190   96  217 1    
   191   96  218 1    
   192   96  219 1    
   193   97   98 2    
   194   97   99 am   BACKBONE|DICT|INTERRES
   195   99  100 1    
   196   99  220 1    
   197  100  101 1    
   198  100  102 1    
   199  100  221 1    
   200  101  222 1    
   201  101  223 1    
   202  101  224 1    
   203  102  103 2    
   204  102  104 am   BACKBONE|DICT|INTERRES
   205  104  105 1    
   206  104  225 1    
   207  105  106 1    
   208  105  107 1    
   209  105  226 1    
   210  106  227 1    
   211  106  228 1    
   212  106  229 1    
   213  107  108 2    
   214  107  109 am   BACKBONE|DICT|INTERRES
   215  109  110 1    
   216  109  230 1    
   217  110  111 1    
   218  110  112 1    
   219  110  231 1    
   220  111  232 1    
   221  111  233 1    
   222  111  234 1    
   223  112  113 2    
   224  112  114 am   BACKBONE|DICT|INTERRES
   225  114  115 1    
   226  114  235 1    
   227  115  116 1    
   228  115  117 1    
   229  115  236 1    
   230  116  237 1    
   231  116  238 1    
   232  116  239 1    
   233  117  118 2    
   234  117  119 am   BACKBONE|DICT|INTERRES
   235  119  120 1    
   236  119  240 1    
   237  120  121 1    
   238  120  124 1    
   239  120  241 1    
   240  121  122 am   BACKBONE|DICT|INTERRES
   241  121  123 2    
   242  122  242 1    
   243  122  243 1    
   244  124  125 1    
   245  124  244 1    
   246  124  245 1    
   247  125  126 1    
   248  126  246 1    
   249  126  247 1    
@<TRIPOS>SUBSTRUCTURE
     1 UNK         1 GROUP             0       ****    0 ROOT    
