@<TRIPOS>MOLECULE
3R540
247   249    1
SMALL
USER_CHARGES


@<TRIPOS>ATOM
      1 CA         -3.0229  -10.1077  -46.9485 C.3       0 UNK        -0.1800 
      2 C          -2.5284  -11.3895  -46.2933 C.2       0 UNK         0.5000 
      3 O          -2.8255  -12.4779  -46.7839 O.2       0 UNK        -0.5000 
      4 N          -1.7651  -11.2571  -45.2033 N.am      1 UNK        -0.5000 
      5 CA         -1.1407  -12.3487  -44.4534 C.3       1 UNK         0.1400 
      6 C6         -1.9262  -12.7071  -43.1617 C.3       23 UNK        -0.0398 
      7 S7         -3.5193  -13.5204  -43.5188 S.3       23 UNK        -0.2404 
      8 C8         -2.9631  -15.2436  -43.7059 C.3       23 UNK        -0.0205 
      9 C9         -3.9443  -16.0838  -44.5080 C.ar      23 UNK        -0.0193 
     10 C10        -4.1852  -15.7897  -45.8534 C.ar      23 UNK        -0.1150 
     11 C11        -5.0357  -16.5920  -46.6184 C.ar      23 UNK        -0.0193 
     12 C12        -5.6681  -17.6849  -46.0194 C.ar      23 UNK        -0.1150 
     13 C13        -5.4333  -17.9929  -44.6751 C.ar      23 UNK        -0.0193 
     14 C14        -4.5728  -17.1863  -43.9242 C.ar      23 UNK        -0.1150 
     15 C15        -6.0804  -19.2150  -44.0368 C.3       23 UNK        -0.0205 
     16 S16        -5.6325  -20.7727  -44.8731 S.3       23 UNK        -0.2404 
     17 C17        -3.8087  -20.6916  -44.8817 C.3       23 UNK        -0.0398 
     18 CA         -3.1873  -21.8395  -45.7116 C.3       11 UNK         0.1400 
     19 N          -1.9186  -21.4551  -46.3412 N.am      11 UNK        -0.5000 
     20 C          -1.2141  -22.2182  -47.1895 C.2       10 UNK         0.5000 
     21 O          -1.5742  -23.3356  -47.5539 O.2       10 UNK        -0.5000 
     22 CA          0.1507  -21.6820  -47.6553 C.3       10 UNK         0.1400 
     23 CB         -0.0117  -20.6201  -48.7544 C.3       10 UNK        -0.1800 
     24 N           0.9274  -21.1521  -46.5340 N.am      10 UNK        -0.5000 
     25 C           1.3584  -21.8985  -45.5048 C.2       9 UNK         0.5000 
     26 O           1.2574  -23.1240  -45.4606 O.2       9 UNK        -0.5000 
     27 CA          1.9446  -21.1494  -44.2967 C.3       9 UNK         0.1400 
     28 CB          3.4558  -20.9303  -44.4631 C.3       9 UNK        -0.1800 
     29 N           1.2738  -19.8675  -44.0775 N.am      9 UNK        -0.5000 
     30 C           0.0319  -19.7395  -43.5877 C.2       8 UNK         0.5000 
     31 O          -0.6632  -20.6922  -43.2323 O.2       8 UNK        -0.5000 
     32 CA         -0.5458  -18.3113  -43.5304 C.3       8 UNK         0.1400 
     33 CB         -0.0915  -17.5923  -42.2515 C.3       8 UNK        -0.1800 
     34 N          -0.1764  -17.5049  -44.6958 N.am      8 UNK        -0.5000 
     35 C          -0.5993  -17.7538  -45.9433 C.2       7 UNK         0.5000 
     36 O          -1.3750  -18.6647  -46.2229 O.2       7 UNK        -0.5000 
     37 CA         -0.0296  -16.8729  -47.0728 C.3       7 UNK         0.1400 
     38 CB         -0.9363  -15.6559  -47.2818 C.3       7 UNK        -0.1800 
     39 N           1.3481  -16.4149  -46.8654 N.am      7 UNK        -0.5000 
     40 C           2.4036  -17.2031  -46.6118 C.2       6 UNK         0.5000 
     41 O           2.3190  -18.4239  -46.4693 O.2       6 UNK        -0.5000 
     42 CA          3.7675  -16.4948  -46.4766 C.3       6 UNK         0.1400 
     43 CB          4.9580  -17.4747  -46.4116 C.3       6 UNK        -0.1800 
     44 N           3.9764  -15.4718  -47.5079 N.am      6 UNK        -0.5000 
     45 C           4.0237  -15.6708  -48.8355 C.2       5 UNK         0.5000 
     46 O           3.9507  -16.7829  -49.3607 O.2       5 UNK        -0.5000 
     47 CA          4.1901  -14.4189  -49.7269 C.3       5 UNK         0.1400 
     48 CB          3.6664  -14.6448  -51.1614 C.3       5 UNK        -0.1800 
     49 N           3.6105  -13.1899  -49.1712 N.am      5 UNK        -0.5000 
     50 C           2.3331  -12.9701  -48.8343 C.2       4 UNK         0.5000 
     51 O           1.4678  -13.8470  -48.8430 O.2       4 UNK        -0.5000 
     52 CA          1.9772  -11.5294  -48.4025 C.3       4 UNK         0.1400 
     53 CB          0.4674  -11.3495  -48.1767 C.3       4 UNK        -0.1800 
     54 N           2.6778  -11.1294  -47.1825 N.am      4 UNK        -0.5000 
     55 C           3.9838  -10.8496  -47.0748 C.2       3 UNK         0.5000 
     56 O           4.7507  -10.8043  -48.0382 O.2       3 UNK        -0.5000 
     57 CA          4.5387  -10.6165  -45.6547 C.3       3 UNK         0.1400 
     58 CB          4.7252   -9.1147  -45.3911 C.3       3 UNK        -0.1800 
     59 N           3.7124  -11.1854  -44.5856 N.am      3 UNK        -0.5000 
     60 C           3.4212  -12.4834  -44.4231 C.2       2 UNK         0.5000 
     61 O           3.8169  -13.3733  -45.1770 O.2       2 UNK        -0.5000 
     62 CA          2.5028  -12.8508  -43.2418 C.3       2 UNK         0.1400 
     63 CB          2.6719  -11.9251  -42.0167 C.3       2 UNK        -0.1800 
     64 N           1.0936  -12.9410  -43.6425 N.am      2 UNK        -0.5000 
     65 C           0.3197  -11.9655  -44.1443 C.2       1 UNK         0.5000 
     66 O           0.7150  -10.8171  -44.3649 O.2       1 UNK        -0.5000 
     67 C          -3.0685  -23.1403  -44.8909 C.2       11 UNK         0.5000 
     68 O          -3.9047  -24.0318  -45.0451 O.2       11 UNK        -0.5000 
     69 N          -1.9894  -23.2572  -44.1026 N.am      12 UNK        -0.5000 
     70 CA         -1.6321  -24.4571  -43.3396 C.3       12 UNK         0.1400 
     71 CB         -0.4408  -24.1370  -42.4245 C.3       12 UNK        -0.1800 
     72 C          -1.3299  -25.6915  -44.2175 C.2       12 UNK         0.5000 
     73 O          -1.5223  -26.8179  -43.7599 O.2       12 UNK        -0.5000 
     74 N          -0.9127  -25.4650  -45.4699 N.am      13 UNK        -0.5000 
     75 CA         -0.6960  -26.4772  -46.5051 C.3       13 UNK         0.1400 
     76 CB          0.5266  -26.0692  -47.3476 C.3       13 UNK        -0.1800 
     77 C          -1.9567  -26.6927  -47.3731 C.2       13 UNK         0.5000 
     78 O          -1.8374  -26.9962  -48.5619 O.2       13 UNK        -0.5000 
     79 N          -3.1444  -26.5164  -46.7734 N.am      14 UNK        -0.5000 
     80 CA         -4.4771  -26.6536  -47.3709 C.3       14 UNK         0.1400 
     81 CB         -4.7568  -28.1236  -47.7488 C.3       14 UNK        -0.1800 
     82 C          -4.6953  -25.6783  -48.5437 C.2       14 UNK         0.5000 
     83 O          -5.1358  -26.0880  -49.6187 O.2       14 UNK        -0.5000 
     84 N          -4.3351  -24.4065  -48.3189 N.am      15 UNK        -0.5000 
     85 CA         -4.3297  -23.3096  -49.2957 C.3       15 UNK         0.1400 
     86 CB         -5.7688  -22.9455  -49.7147 C.3       15 UNK        -0.1800 
     87 C          -3.3992  -23.6089  -50.4889 C.2       15 UNK         0.5000 
     88 O          -3.7790  -23.3967  -51.6405 O.2       15 UNK        -0.5000 
     89 N          -2.2059  -24.1329  -50.1747 N.am      16 UNK        -0.5000 
     90 CA         -1.1787  -24.6463  -51.0844 C.3       16 UNK         0.1400 
     91 CB         -0.4927  -23.4859  -51.8316 C.3       16 UNK        -0.1800 
     92 C          -1.7345  -25.7378  -52.0213 C.2       16 UNK         0.5000 
     93 O          -1.6033  -25.6353  -53.2410 O.2       16 UNK        -0.5000 
     94 N          -2.3905  -26.7398  -51.4180 N.am      17 UNK        -0.5000 
     95 CA         -3.1323  -27.8270  -52.0660 C.3       17 UNK         0.1400 
     96 CB         -2.1664  -28.7978  -52.7765 C.3       17 UNK        -0.1800 
     97 C          -4.2586  -27.3032  -52.9854 C.2       17 UNK         0.5000 
     98 O          -4.3602  -27.7083  -54.1450 O.2       17 UNK        -0.5000 
     99 N          -5.0737  -26.3932  -52.4341 N.am      18 UNK        -0.5000 
    100 CA        -6.2219  -25.7179  -53.0477 C.3       18 UNK         0.1400 
    101 CB        -7.3360  -26.7312  -53.3839 C.3       18 UNK        -0.1800 
    102 C         -5.8740  -24.7958  -54.2384 C.2       18 UNK         0.5000 
    103 O         -6.7540  -24.4901  -55.0455 O.2       18 UNK        -0.5000 
    104 N         -4.6174  -24.3389  -54.3226 N.am      19 UNK        -0.5000 
    105 CA        -4.1597  -23.3593  -55.3108 C.3       19 UNK         0.1400 
    106 CB        -2.6395  -23.4846  -55.4849 C.3       19 UNK        -0.1800 
    107 C         -4.5341  -21.9133  -54.9309 C.2       19 UNK         0.5000 
    108 O         -4.6354  -21.0689  -55.8216 O.2       19 UNK        -0.5000 
    109 N         -4.7222  -21.6583  -53.6260 N.am      20 UNK        -0.5000 
    110 CA        -5.0237  -20.3666  -52.9997 C.3       20 UNK         0.1400 
    111 CB        -6.4092  -19.8460  -53.4344 C.3       20 UNK        -0.1800 
    112 C         -3.8892  -19.3430  -53.2020 C.2       20 UNK         0.5000 
    113 O         -4.1403  -18.1840  -53.5374 O.2       20 UNK        -0.5000 
    114 N         -2.6476  -19.8000  -52.9897 N.am      21 UNK        -0.5000 
    115 CA        -1.4002  -19.0571  -53.1945 C.3       21 UNK         0.1400 
    116 CB        -0.2548  -20.0718  -53.3647 C.3       21 UNK        -0.1800 
    117 C         -1.1004  -18.0071  -52.0974 C.2       21 UNK         0.5000 
    118 O          0.0369  -17.9071  -51.6345 O.2       21 UNK        -0.5000 
    119 N         -2.1186  -17.2394  -51.6992 N.am      22 UNK        -0.5000 
    120 CA        -2.0051  -16.0910  -50.7919 C.3       22 UNK         0.1400 
    121 C         -1.4589  -14.8514  -51.5525 C.2       22 UNK         0.5000 
    122 N         -0.4642  -14.1504  -51.0266 N.am      22 UNK        -0.7600 
    123 O         -1.9614  -14.4933  -52.6156 O.2       22 UNK        -0.5000 
    124 C124       -3.3628  -15.7571  -50.1197 C.3       23 UNK        -0.0398 
    125 S125       -4.0478  -17.1440  -49.1458 S.3       23 UNK        -0.2404 
    126 C126       -5.2628  -16.2842  -48.0909 C.3       23 UNK        -0.0205 
    127 H127       -4.1126  -10.0910  -46.9637 H         1 UNK         0.0600 
    128 H128       -2.6650  -10.0514  -47.9766 H         1 UNK         0.0600 
    129 H129       -2.6756   -9.2206  -46.4183 H         1 UNK         0.0600 
    130 H130       -1.4824  -10.3354  -44.8971 H         1 UNK         0.3000 
    131 H131       -1.0826  -13.2305  -45.0893 H         1 UNK         0.0600 
    132 H132       -2.1223  -11.8074  -42.5761 H         1 UNK         0.0800 
    133 H133       -1.3541  -13.3679  -42.5083 H         1 UNK         0.0800 
    134 H134       -1.9993  -15.2712  -44.2127 H         1 UNK         0.0800 
    135 H135       -2.8030  -15.6707  -42.7150 H         1 UNK         0.0800 
    136 H136       -3.6972  -14.9393  -46.3082 H         1 UNK         0.1150 
    137 H137       -6.3225  -18.3142  -46.6062 H         1 UNK         0.1150 
    138 H138       -4.3786  -17.4270  -42.8885 H         1 UNK         0.1150 
    139 H139       -5.8064  -19.2937  -42.9836 H         1 UNK         0.0800 
    140 H140       -7.1645  -19.0976  -44.0640 H         1 UNK         0.0800 
    141 H141       -3.4283  -20.6663  -43.8589 H         1 UNK         0.0800 
    142 H142       -3.5328  -19.7369  -45.3274 H         1 UNK         0.0800 
    143 H143       -3.8648  -22.0507  -46.5392 H         1 UNK         0.0600 
    144 H144       -1.5832  -20.5153  -46.1426 H         1 UNK         0.3000 
    145 H145        0.7087  -22.5190  -48.0803 H         1 UNK         0.0600 
    146 H146       -0.5953  -19.7655  -48.4177 H         1 UNK         0.0600 
    147 H147        0.9555  -20.2510  -49.0963 H         1 UNK         0.0600 
    148 H148       -0.5278  -21.0339  -49.6210 H         1 UNK         0.0600 
    149 H149        1.1008  -20.1537  -46.5128 H         1 UNK         0.3000 
    150 H150        1.7914  -21.7700  -43.4113 H         1 UNK         0.0600 
    151 H151        3.9783  -21.8851  -44.5337 H         1 UNK         0.0600 
    152 H152        3.8744  -20.3927  -43.6123 H         1 UNK         0.0600 
    153 H153        3.6892  -20.3666  -45.3661 H         1 UNK         0.0600 
    154 H154        1.7434  -19.0503  -44.4434 H         1 UNK         0.3000 
    155 H155       -1.6348  -18.3941  -43.5072 H         1 UNK         0.0600 
    156 H156       -0.3824  -18.1566  -41.3644 H         1 UNK         0.0600 
    157 H157       -0.5440  -16.6045  -42.1688 H         1 UNK         0.0600 
    158 H158        0.9917  -17.4687  -42.2207 H         1 UNK         0.0600 
    159 H159        0.4857  -16.7587  -44.5506 H         1 UNK         0.3000 
    160 H160       -0.0370  -17.4658  -47.9890 H         1 UNK         0.0600 
    161 H161       -0.9498  -15.0098  -46.4077 H         1 UNK         0.0600 
    162 H162       -1.9589  -15.9725  -47.4732 H         1 UNK         0.0600 
    163 H163       -0.6269  -15.0566  -48.1341 H         1 UNK         0.0600 
    164 H164        1.5215  -15.4351  -47.0466 H         1 UNK         0.3000 
    165 H165        3.7351  -15.9692  -45.5223 H         1 UNK         0.0600 
    166 H166        5.0149  -18.1080  -47.2972 H         1 UNK         0.0600 
    167 H167        5.9035  -16.9406  -46.3186 H         1 UNK         0.0600 
    168 H168        4.8726  -18.1330  -45.5465 H         1 UNK         0.0600 
    169 H169        4.0335  -14.5216  -47.1621 H         1 UNK         0.3000 
    170 H170        5.2643  -14.2418  -49.7935 H         1 UNK         0.0600 
    171 H171        2.6051  -14.8963  -51.1680 H         1 UNK         0.0600 
    172 H172        3.8044  -13.7562  -51.7772 H         1 UNK         0.0600 
    173 H173        4.1984  -15.4611  -51.6513 H         1 UNK         0.0600 
    174 H174        4.2522  -12.4111  -49.0528 H         1 UNK         0.3000 
    175 H175        2.2773  -10.8607  -49.2117 H         1 UNK         0.0600 
    176 H176        0.1046  -12.0158  -47.3941 H         1 UNK         0.0600 
    177 H177        0.2264  -10.3263  -47.8877 H         1 UNK         0.0600 
    178 H178       -0.0958  -11.5736  -49.0835 H         1 UNK         0.0600 
    179 H179        2.1338  -11.1371  -46.3304 H         1 UNK         0.3000 
    180 H180        5.5173  -11.0982  -45.6078 H         1 UNK         0.0600 
    181 H181        5.3604   -8.6590  -46.1520 H         1 UNK         0.0600 
    182 H182        5.2007   -8.9391  -44.4259 H         1 UNK         0.0600 
    183 H183        3.7718   -8.5848  -45.3983 H         1 UNK         0.0600 
    184 H184        3.2858  -10.5255  -43.9508 H         1 UNK         0.3000 
    185 H185        2.7995  -13.8535  -42.9297 H         1 UNK         0.0600 
    186 H186        2.1128  -12.3080  -41.1629 H         1 UNK         0.0600 
    187 H187        3.7182  -11.8650  -41.7141 H         1 UNK         0.0600 
    188 H188        2.3248  -10.9090  -42.2049 H         1 UNK         0.0600 
    189 H189        0.6869  -13.8569  -43.5238 H         1 UNK         0.3000 
    190 H190       -1.3690  -22.4595  -44.0075 H         1 UNK         0.3000 
    191 H191       -2.4861  -24.7094  -42.7079 H         1 UNK         0.0600 
    192 H192        0.4509  -23.8858  -42.9983 H         1 UNK         0.0600 
    193 H193       -0.6627  -23.2977  -41.7650 H         1 UNK         0.0600 
    194 H194       -0.1935  -24.9910  -41.7929 H         1 UNK         0.0600 
    195 H195       -0.7972  -24.5050  -45.7702 H         1 UNK         0.3000 
    196 H196       -0.4683  -27.4356  -46.0349 H         1 UNK         0.0600 
    197 H197        1.4035  -25.9153  -46.7184 H         1 UNK         0.0600 
    198 H198        0.3482  -25.1464  -47.8993 H         1 UNK         0.0600 
    199 H199        0.7810  -26.8424  -48.0734 H         1 UNK         0.0600 
    200 H200       -3.1356  -26.2089  -45.8103 H         1 UNK         0.3000 
    201 H201       -5.1929  -26.3684  -46.5986 H         1 UNK         0.0600 
    202 H202       -5.7850  -28.2493  -48.0899 H         1 UNK         0.0600 
    203 H203       -4.6164  -28.7837  -46.8930 H         1 UNK         0.0600 
    204 H204       -4.1035  -28.4702  -48.5501 H         1 UNK         0.0600 
    205 H205       -3.9291  -24.1962  -47.4163 H         1 UNK         0.3000 
    206 H206       -3.9059  -22.4373  -48.7994 H         1 UNK         0.0600 
    207 H207       -6.3882  -22.7334  -48.8433 H         1 UNK         0.0600 
    208 H208       -6.2467  -23.7473  -50.2765 H         1 UNK         0.0600 
    209 H209       -5.7824  -22.0556  -50.3418 H         1 UNK         0.0600 
    210 H210       -1.9917  -24.2138  -49.1845 H         1 UNK         0.3000 
    211 H211       -0.4245  -25.1317  -50.4633 H         1 UNK         0.0600 
    212 H212       -0.0071  -22.8064  -51.1326 H         1 UNK         0.0600 
    213 H213        0.2786  -23.8541  -52.5089 H         1 UNK         0.0600 
    214 H214       -1.2022  -22.9091  -52.4233 H         1 UNK         0.0600 
    215 H215       -2.4094  -26.7426  -50.4009 H         1 UNK         0.3000 
    216 H216       -3.6242  -28.3798  -51.2642 H         1 UNK         0.0600 
    217 H217       -2.7017  -29.6647  -53.1654 H         1 UNK         0.0600 
    218 H218       -1.6580  -28.3238  -53.6166 H         1 UNK         0.0600 
    219 H219       -1.4054  -29.1680  -52.0895 H         1 UNK         0.0600 
    220 H220       -4.9219  -26.1616  -51.4537 H         1 UNK         0.3000 
    221 H221       -6.6133  -25.0556  -52.2752 H         1 UNK         0.0600 
    222 H222       -7.0498  -27.3909  -54.2034 H         1 UNK         0.0600 
    223 H223       -7.5773  -27.3518  -52.5209 H         1 UNK         0.0600 
    224 H224       -8.2538  -26.2223  -53.6804 H         1 UNK         0.0600 
    225 H225       -3.9574  -24.6036  -53.6016 H         1 UNK         0.3000 
    226 H226       -4.6272  -23.5829  -56.2720 H         1 UNK         0.0600 
    227 H227       -2.3582  -24.4950  -55.7823 H         1 UNK         0.0600 
    228 H228       -2.2763  -22.8042  -56.2560 H         1 UNK         0.0600 
    229 H229       -2.1095  -23.2472  -54.5630 H         1 UNK         0.0600 
    230 H230       -4.5434  -22.4210  -52.9747 H         1 UNK         0.3000 
    231 H231       -5.0675  -20.5482  -51.9263 H         1 UNK         0.0600 
    232 H232       -6.6842  -18.9543  -52.8699 H         1 UNK         0.0600 
    233 H233       -7.1829  -20.5932  -53.2576 H         1 UNK         0.0600 
    234 H234       -6.4327  -19.5820  -54.4919 H         1 UNK         0.0600 
    235 H235       -2.5461  -20.7601  -52.6960 H         1 UNK         0.3000 
    236 H236       -1.4900  -18.5062  -54.1330 H         1 UNK         0.0600 
    237 H237       -0.4791  -20.7988  -54.1458 H         1 UNK         0.0600 
    238 H238        0.6727  -19.5722  -53.6471 H         1 UNK         0.0600 
    239 H239       -0.0639  -20.6167  -52.4400 H         1 UNK         0.0600 
    240 H240       -3.0080  -17.3557  -52.1733 H         1 UNK         0.3000 
    241 H241       -1.2949  -16.3540  -50.0074 H         1 UNK         0.0600 
    242 H242       -0.1374  -13.3449  -51.5345 H         1 UNK         0.3800 
    243 H243       -0.0001  -14.3946  -50.1592 H         1 UNK         0.3800 
    244 H244       -3.2395  -14.8984  -49.4568 H         1 UNK         0.0800 
    245 H245       -4.1027  -15.4662  -50.8676 H         1 UNK         0.0800 
    246 H246       -6.2665  -16.5929  -48.3866 H         1 UNK         0.0800 
    247 H247       -5.2218  -15.2059  -48.2506 H         1 UNK         0.0800 
@<TRIPOS>BOND
     1    1    2 1    
     2    1  127 1    
     3    1  128 1    
     4    1  129 1    
     5    2    3 2    
     6    2    4 am   BACKBONE|DICT|INTERRES
     7    4    5 1    
     8    4  130 1    
     9    5    6 1    
    10    5   65 1    
    11    5  131 1    
    12    6    7 1    
    13    6  132 1    
    14    6  133 1    
    15    7    8 1    
    16    8    9 1    
    17    8  134 1    
    18    8  135 1    
    19    9   10 ar   
    20    9   14 ar   
    21   10   11 ar   
    22   10  136 1    
    23   11   12 ar   
    24   11  126 1    
    25   12   13 ar   
    26   12  137 1    
    27   13   14 ar   
    28   13   15 1    
    29   14  138 1    
    30   15   16 1    
    31   15  139 1    
    32   15  140 1    
    33   16   17 1    
    34   17   18 1    
    35   17  141 1    
    36   17  142 1    
    37   18   19 1    
    38   18   67 1    
    39   18  143 1    
    40   19   20 am   BACKBONE|DICT|INTERRES
    41   19  144 1    
    42   20   21 2    
    43   20   22 1    
    44   22   23 1    
    45   22   24 1    
    46   22  145 1    
    47   23  146 1    
    48   23  147 1    
    49   23  148 1    
    50   24   25 am   BACKBONE|DICT|INTERRES
    51   24  149 1    
    52   25   26 2    
    53   25   27 1    
    54   27   28 1    
    55   27   29 1    
    56   27  150 1    
    57   28  151 1    
    58   28  152 1    
    59   28  153 1    
    60   29   30 am   BACKBONE|DICT|INTERRES
    61   29  154 1    
    62   30   31 2    
    63   30   32 1    
    64   32   33 1    
    65   32   34 1    
    66   32  155 1    
    67   33  156 1    
    68   33  157 1    
    69   33  158 1    
    70   34   35 am   BACKBONE|DICT|INTERRES
    71   34  159 1    
    72   35   36 2    
    73   35   37 1    
    74   37   38 1    
    75   37   39 1    
    76   37  160 1    
    77   38  161 1    
    78   38  162 1    
    79   38  163 1    
    80   39   40 am   BACKBONE|DICT|INTERRES
    81   39  164 1    
    82   40   41 2    
    83   40   42 1    
    84   42   43 1    
    85   42   44 1    
    86   42  165 1    
    87   43  166 1    
    88   43  167 1    
    89   43  168 1    
    90   44   45 am   BACKBONE|DICT|INTERRES
    91   44  169 1    
    92   45   46 2    
    93   45   47 1    
    94   47   48 1    
    95   47   49 1    
    96   47  170 1    
    97   48  171 1    
    98   48  172 1    
    99   48  173 1    
   100   49   50 am   BACKBONE|DICT|INTERRES
   101   49  174 1    
   102   50   51 2    
   103   50   52 1    
   104   52   53 1    
   105   52   54 1    
   106   52  175 1    
   107   53  176 1    
   108   53  177 1    
   109   53  178 1    
   110   54   55 am   BACKBONE|DICT|INTERRES
   111   54  179 1    
   112   55   56 2    
   113   55   57 1    
   114   57   58 1    
   115   57   59 1    
   116   57  180 1    
   117   58  181 1    
   118   58  182 1    
   119   58  183 1    
   120   59   60 am   BACKBONE|DICT|INTERRES
   121   59  184 1    
   122   60   61 2    
   123   60   62 1    
   124   62   63 1    
   125   62   64 1    
   126   62  185 1    
   127   63  186 1    
   128   63  187 1    
   129   63  188 1    
   130   64   65 am   BACKBONE|DICT|INTERRES
   131   64  189 1    
   132   65   66 2    
   133   67   68 2    
   134   67   69 am   BACKBONE|DICT|INTERRES
   135   69   70 1    
   136   69  190 1    
   137   70   71 1    
   138   70   72 1    
   139   70  191 1    
   140   71  192 1    
   141   71  193 1    
   142   71  194 1    
   143   72   73 2    
   144   72   74 am   BACKBONE|DICT|INTERRES
   145   74   75 1    
   146   74  195 1    
   147   75   76 1    
   148   75   77 1    
   149   75  196 1    
   150   76  197 1    
   151   76  198 1    
   152   76  199 1    
   153   77   78 2    
   154   77   79 am   BACKBONE|DICT|INTERRES
   155   79   80 1    
   156   79  200 1    
   157   80   81 1    
   158   80   82 1    
   159   80  201 1    
   160   81  202 1    
   161   81  203 1    
   162   81  204 1    
   163   82   83 2    
   164   82   84 am   BACKBONE|DICT|INTERRES
   165   84   85 1    
   166   84  205 1    
   167   85   86 1    
   168   85   87 1    
   169   85  206 1    
   170   86  207 1    
   171   86  208 1    
   172   86  209 1    
   173   87   88 2    
   174   87   89 am   BACKBONE|DICT|INTERRES
   175   89   90 1    
   176   89  210 1    
   177   90   91 1    
   178   90   92 1    
   179   90  211 1    
   180   91  212 1    
   181   91  213 1    
   182   91  214 1    
   183   92   93 2    
   184   92   94 am   BACKBONE|DICT|INTERRES
   185   94   95 1    
   186   94  215 1    
   187   95   96 1    
   188   95   97 1    
   189   95  216 1    
   190   96  217 1    
   191   96  218 1    
   192   96  219 1    
   193   97   98 2    
   194   97   99 am   BACKBONE|DICT|INTERRES
   195   99  100 1    
   196   99  220 1    
   197  100  101 1    
   198  100  102 1    
   199  100  221 1    
   200  101  222 1    
   201  101  223 1    
   202  101  224 1    
   203  102  103 2    
   204  102  104 am   BACKBONE|DICT|INTERRES
   205  104  105 1    
   206  104  225 1    
   207  105  106 1    
   208  105  107 1    
   209  105  226 1    
   210  106  227 1    
   211  106  228 1    
   212  106  229 1    
   213  107  108 2    
   214  107  109 am   BACKBONE|DICT|INTERRES
   215  109  110 1    
   216  109  230 1    
   217  110  111 1    
   218  110  112 1    
   219  110  231 1    
   220  111  232 1    
   221  111  233 1    
   222  111  234 1    
   223  112  113 2    
   224  112  114 am   BACKBONE|DICT|INTERRES
   225  114  115 1    
   226  114  235 1    
   227  115  116 1    
   228  115  117 1    
   229  115  236 1    
   230  116  237 1    
   231  116  238 1    
   232  116  239 1    
   233  117  118 2    
   234  117  119 am   BACKBONE|DICT|INTERRES
   235  119  120 1    
   236  119  240 1    
   237  120  121 1    
   238  120  124 1    
   239  120  241 1    
   240  121  122 am   BACKBONE|DICT|INTERRES
   241  121  123 2    
   242  122  242 1    
   243  122  243 1    
   244  124  125 1    
   245  124  244 1    
   246  124  245 1    
   247  125  126 1    
   248  126  246 1    
   249  126  247 1    
@<TRIPOS>SUBSTRUCTURE
     1 UNK         1 GROUP             0       ****    0 ROOT    
