@<TRIPOS>MOLECULE
3R540
247   249    1
SMALL
USER_CHARGES


@<TRIPOS>ATOM
      1 CA          1.0780  -17.8847  -50.4132 C.3       0 UNK        -0.1800 
      2 C           1.0362  -16.4624  -49.8745 C.2       0 UNK         0.5000 
      3 O           2.0832  -15.8679  -49.6223 O.2       0 UNK        -0.5000 
      4 N          -0.1703  -15.9046  -49.7179 N.am      1 UNK        -0.5000 
      5 CA         -0.4417  -14.5790  -49.1407 C.3       1 UNK         0.1400 
      6 C6         -1.9414  -14.4342  -48.7714 C.3       23 UNK        -0.0398 
      7 S7         -2.2603  -13.5828  -47.1887 S.3       23 UNK        -0.2404 
      8 C8         -1.4357  -14.6474  -45.9563 C.3       23 UNK        -0.0205 
      9 C9         -1.7117  -16.1315  -46.1430 C.ar      23 UNK        -0.0193 
     10 C10        -2.9886  -16.6512  -45.9102 C.ar      23 UNK        -0.1150 
     11 C11        -3.2326  -18.0189  -46.0621 C.ar      23 UNK        -0.0193 
     12 C12        -2.1870  -18.8675  -46.4343 C.ar      23 UNK        -0.1150 
     13 C13        -0.9058  -18.3618  -46.6598 C.ar      23 UNK        -0.0193 
     14 C14        -0.6746  -16.9918  -46.5187 C.ar      23 UNK        -0.1150 
     15 C15         0.2198  -19.3014  -47.0557 C.3       23 UNK        -0.0205 
     16 S16         0.8832  -20.1883  -45.6110 S.3       23 UNK        -0.2404 
     17 C17         1.9237  -21.4428  -46.4337 C.3       23 UNK        -0.0398 
     18 CA          1.3363  -22.8773  -46.4830 C.3       11 UNK         0.1400 
     19 N           1.2804  -23.5428  -45.1771 N.am      11 UNK        -0.5000 
     20 C           1.1882  -24.8754  -45.0389 C.2       10 UNK         0.5000 
     21 O           1.1329  -25.6579  -45.9880 O.2       10 UNK        -0.5000 
     22 CA          1.1082  -25.4293  -43.6069 C.3       10 UNK         0.1400 
     23 CB          2.4756  -25.3501  -42.9110 C.3       10 UNK        -0.1800 
     24 N           0.1063  -24.7472  -42.7916 N.am      10 UNK        -0.5000 
     25 C          -1.2126  -24.7432  -43.0342 C.2       9 UNK         0.5000 
     26 O          -1.7389  -25.3218  -43.9832 O.2       9 UNK        -0.5000 
     27 CA         -2.0848  -23.9196  -42.0685 C.3       9 UNK         0.1400 
     28 CB         -2.5449  -24.7832  -40.8847 C.3       9 UNK        -0.1800 
     29 N          -1.3930  -22.7304  -41.5650 N.am      9 UNK        -0.5000 
     30 C          -1.0253  -21.7024  -42.3387 C.2       8 UNK         0.5000 
     31 O          -1.2721  -21.6335  -43.5460 O.2       8 UNK        -0.5000 
     32 CA         -0.2054  -20.5991  -41.6618 C.3       8 UNK         0.1400 
     33 CB          1.2937  -20.9520  -41.6728 C.3       8 UNK        -0.1800 
     34 N          -0.4374  -19.3570  -42.3831 N.am      8 UNK        -0.5000 
     35 C          -0.2193  -18.1268  -41.9141 C.2       7 UNK         0.5000 
     36 O           0.2518  -17.8832  -40.8001 O.2       7 UNK        -0.5000 
     37 CA         -0.6514  -16.9724  -42.8317 C.3       7 UNK         0.1400 
     38 CB         -2.0141  -16.4163  -42.3895 C.3       7 UNK        -0.1800 
     39 N           0.3265  -15.8863  -42.8570 N.am      7 UNK        -0.5000 
     40 C           1.5482  -15.9676  -43.3981 C.2       6 UNK         0.5000 
     41 O           1.9723  -16.9681  -43.9774 O.2       6 UNK        -0.5000 
     42 CA          2.4204  -14.6992  -43.3013 C.3       6 UNK         0.1400 
     43 CB          3.8378  -14.9047  -43.8659 C.3       6 UNK        -0.1800 
     44 N           1.8024  -13.5808  -44.0098 N.am      6 UNK        -0.5000 
     45 C           0.8413  -12.7785  -43.5415 C.2       5 UNK         0.5000 
     46 O           0.3618  -12.9056  -42.4132 O.2       5 UNK        -0.5000 
     47 CA          0.3209  -11.6654  -44.4851 C.3       5 UNK         0.1400 
     48 CB         -0.3556  -10.5187  -43.7127 C.3       5 UNK        -0.1800 
     49 N           1.3332  -11.0888  -45.3790 N.am      5 UNK        -0.5000 
     50 C           1.8818  -11.6774  -46.4502 C.2       4 UNK         0.5000 
     51 O           1.6468  -12.8449  -46.7671 O.2       4 UNK        -0.5000 
     52 CA          2.8372  -10.8015  -47.2891 C.3       4 UNK         0.1400 
     53 CB          3.9825  -10.2075  -46.4401 C.3       4 UNK        -0.1800 
     54 N           3.3598  -11.4846  -48.4784 N.am      4 UNK        -0.5000 
     55 C           4.2074  -12.5228  -48.5394 C.2       3 UNK         0.5000 
     56 O           4.7537  -13.0271  -47.5561 O.2       3 UNK        -0.5000 
     57 CA          4.4813  -13.0854  -49.9510 C.3       3 UNK         0.1400 
     58 CB          5.2623  -14.4120  -49.9235 C.3       3 UNK        -0.1800 
     59 N           3.2291  -13.2907  -50.6805 N.am      3 UNK        -0.5000 
     60 C           2.6532  -12.4043  -51.5065 C.2       2 UNK         0.5000 
     61 O           3.1535  -11.3146  -51.7853 O.2       2 UNK        -0.5000 
     62 CA          1.2695  -12.7686  -52.0865 C.3       2 UNK         0.1400 
     63 CB          1.4162  -13.3938  -53.4817 C.3       2 UNK        -0.1800 
     64 N           0.5226  -13.6890  -51.2300 N.am      2 UNK        -0.5000 
     65 C           0.0632  -13.3978  -50.0044 C.2       1 UNK         0.5000 
     66 O           0.0580  -12.2544  -49.5466 O.2       1 UNK        -0.5000 
     67 C          -0.0147  -22.9592  -47.2208 C.2       11 UNK         0.5000 
     68 O          -0.0215  -23.1541  -48.4358 O.2       11 UNK        -0.5000 
     69 N          -1.1265  -22.8657  -46.4731 N.am      12 UNK        -0.5000 
     70 CA         -2.4835  -23.0380  -46.9892 C.3       12 UNK         0.1400 
     71 CB         -3.5076  -22.7330  -45.8861 C.3       12 UNK        -0.1800 
     72 C          -2.7101  -24.4426  -47.5741 C.2       12 UNK         0.5000 
     73 O          -3.2371  -24.5559  -48.6803 O.2       12 UNK        -0.5000 
     74 N          -2.2702  -25.4770  -46.8427 N.am      13 UNK        -0.5000 
     75 CA         -2.3192  -26.8758  -47.2646 C.3       13 UNK         0.1400 
     76 CB         -1.9630  -27.7887  -46.0819 C.3       13 UNK        -0.1800 
     77 C          -1.4081  -27.1652  -48.4691 C.2       13 UNK         0.5000 
     78 O          -1.8507  -27.8228  -49.4109 O.2       13 UNK        -0.5000 
     79 N          -0.1711  -26.6464  -48.4408 N.am      14 UNK        -0.5000 
     80 CA          0.8152  -26.7924  -49.5166 C.3       14 UNK         0.1400 
     81 CB          2.1629  -26.2121  -49.0635 C.3       14 UNK        -0.1800 
     82 C           0.3676  -26.1465  -50.8413 C.2       14 UNK         0.5000 
     83 O           0.6014  -26.7161  -51.9075 O.2       14 UNK        -0.5000 
     84 N          -0.2993  -24.9901  -50.7436 N.am      15 UNK        -0.5000 
     85 CA         -0.8909  -24.2612  -51.8655 C.3       15 UNK         0.1400 
     86 CB         -0.8594  -22.7658  -51.5269 C.3       15 UNK        -0.1800 
     87 C          -2.3211  -24.7334  -52.2135 C.2       15 UNK         0.5000 
     88 O          -2.9506  -24.1460  -53.0962 O.2       15 UNK        -0.5000 
     89 N          -2.8151  -25.7680  -51.5138 N.am      16 UNK        -0.5000 
     90 CA         -4.1123  -26.4348  -51.6776 C.3       16 UNK         0.1400 
     91 CB         -4.1172  -27.2584  -52.9815 C.3       16 UNK        -0.1800 
     92 C          -5.3217  -25.4813  -51.5735 C.2       16 UNK         0.5000 
     93 O          -6.3180  -25.6739  -52.2734 O.2       16 UNK        -0.5000 
     94 N          -5.1936  -24.4460  -50.7304 N.am      17 UNK        -0.5000 
     95 CA         -6.0932  -23.3081  -50.4973 C.3       17 UNK         0.1400 
     96 CB         -7.4424  -23.7729  -49.9205 C.3       17 UNK        -0.1800 
     97 C          -6.3004  -22.3807  -51.7149 C.2       17 UNK         0.5000 
     98 O          -6.2962  -21.1611  -51.5506 O.2       17 UNK        -0.5000 
     99 N          -6.4631  -22.9576  -52.9107 N.am      18 UNK        -0.5000 
    100 CA        -6.7374  -22.2749  -54.1741 C.3       18 UNK         0.1400 
    101 CB        -6.9726  -23.3256  -55.2698 C.3       18 UNK        -0.1800 
    102 C         -5.6387  -21.2859  -54.6005 C.2       18 UNK         0.5000 
    103 O         -5.9630  -20.1963  -55.0743 O.2       18 UNK        -0.5000 
    104 N         -4.3685  -21.6671  -54.4084 N.am      19 UNK        -0.5000 
    105 CA        -3.2100  -20.8275  -54.7230 C.3       19 UNK         0.1400 
    106 CB        -2.1125  -21.7005  -55.3551 C.3       19 UNK        -0.1800 
    107 C         -2.6815  -20.0658  -53.4919 C.2       19 UNK         0.5000 
    108 O         -1.7272  -19.3001  -53.6309 O.2       19 UNK        -0.5000 
    109 N         -3.2813  -20.2878  -52.3105 N.am      20 UNK        -0.5000 
    110 CA        -2.8808  -19.6509  -51.0528 C.3       20 UNK         0.1400 
    111 CB        -3.5270  -20.3821  -49.8675 C.3       20 UNK        -0.1800 
    112 C         -3.2308  -18.1534  -51.0194 C.2       20 UNK         0.5000 
    113 O         -2.4677  -17.3703  -50.4554 O.2       20 UNK        -0.5000 
    114 N         -4.3569  -17.7929  -51.6565 N.am      21 UNK        -0.5000 
    115 CA        -4.8627  -16.4306  -51.8581 C.3       21 UNK         0.1400 
    116 CB        -3.9269  -15.6491  -52.8056 C.3       21 UNK        -0.1800 
    117 C         -5.1397  -15.6822  -50.5367 C.2       21 UNK         0.5000 
    118 O         -4.8225  -14.4981  -50.4231 O.2       21 UNK        -0.5000 
    119 N         -5.7201  -16.3959  -49.5621 N.am      22 UNK        -0.5000 
    120 CA        -5.9602  -15.9354  -48.1815 C.3       22 UNK         0.1400 
    121 C         -6.8601  -14.6719  -48.0235 C.2       22 UNK         0.5000 
    122 N         -7.6706  -14.3023  -49.0077 N.am      22 UNK        -0.7600 
    123 O         -6.8291  -14.0230  -46.9817 O.2       22 UNK        -0.5000 
    124 C124       -6.5196  -17.0692  -47.2812 C.3       23 UNK        -0.0398 
    125 S125       -5.5924  -18.6416  -47.3535 S.3       23 UNK        -0.2404 
    126 C126       -4.6174  -18.5925  -45.8175 C.3       23 UNK        -0.0205 
    127 H127        1.2813  -17.8761  -51.4839 H         1 UNK         0.0600 
    128 H128        1.8653  -18.4543  -49.9196 H         1 UNK         0.0600 
    129 H129        0.1333  -18.4016  -50.2456 H         1 UNK         0.0600 
    130 H130       -0.9987  -16.4456  -49.9680 H         1 UNK         0.3000 
    131 H131        0.1504  -14.5369  -48.2269 H         1 UNK         0.0600 
    132 H132       -2.4234  -15.4097  -48.7000 H         1 UNK         0.0800 
    133 H133       -2.4863  -13.9100  -49.5570 H         1 UNK         0.0800 
    134 H134       -1.7672  -14.3455  -44.9629 H         1 UNK         0.0800 
    135 H135       -0.3627  -14.4581  -45.9808 H         1 UNK         0.0800 
    136 H136       -3.7900  -15.9895  -45.6136 H         1 UNK         0.1150 
    137 H137       -2.3661  -19.9266  -46.5460 H         1 UNK         0.1150 
    138 H138        0.3186  -16.5988  -46.6854 H         1 UNK         0.1150 
    139 H139       -0.1507  -20.0129  -47.7950 H         1 UNK         0.0800 
    140 H140        1.0286  -18.7471  -47.5330 H         1 UNK         0.0800 
    141 H141        2.1539  -21.1063  -47.4461 H         1 UNK         0.0800 
    142 H142        2.8839  -21.4651  -45.9169 H         1 UNK         0.0800 
    143 H143        2.0389  -23.4549  -47.0879 H         1 UNK         0.0600 
    144 H144        1.2729  -22.9504  -44.3604 H         1 UNK         0.3000 
    145 H145        0.8220  -26.4811  -43.6750 H         1 UNK         0.0600 
    146 H146        2.4478  -25.8305  -41.9328 H         1 UNK         0.0600 
    147 H147        3.2422  -25.8573  -43.4986 H         1 UNK         0.0600 
    148 H148        2.7997  -24.3184  -42.7687 H         1 UNK         0.0600 
    149 H149        0.4438  -24.2409  -41.9872 H         1 UNK         0.3000 
    150 H150       -2.9703  -23.5919  -42.6171 H         1 UNK         0.0600 
    151 H151       -3.0810  -25.6672  -41.2328 H         1 UNK         0.0600 
    152 H152       -3.2214  -24.2304  -40.2327 H         1 UNK         0.0600 
    153 H153       -1.7023  -25.1260  -40.2829 H         1 UNK         0.0600 
    154 H154       -1.1610  -22.7212  -40.5821 H         1 UNK         0.3000 
    155 H155       -0.5518  -20.4860  -40.6324 H         1 UNK         0.0600 
    156 H156        1.8855  -20.1862  -41.1715 H         1 UNK         0.0600 
    157 H157        1.6744  -21.0525  -42.6898 H         1 UNK         0.0600 
    158 H158        1.4810  -21.8936  -41.1555 H         1 UNK         0.0600 
    159 H159       -0.8264  -19.4926  -43.3095 H         1 UNK         0.3000 
    160 H160       -0.7498  -17.3645  -43.8428 H         1 UNK         0.0600 
    161 H161       -1.9742  -16.0130  -41.3768 H         1 UNK         0.0600 
    162 H162       -2.7755  -17.1972  -42.4039 H         1 UNK         0.0600 
    163 H163       -2.3556  -15.6220  -43.0518 H         1 UNK         0.0600 
    164 H164        0.0662  -15.0208  -42.3997 H         1 UNK         0.3000 
    165 H165        2.5165  -14.4470  -42.2431 H         1 UNK         0.0600 
    166 H166        3.8166  -15.1396  -44.9312 H         1 UNK         0.0600 
    167 H167        4.4469  -14.0102  -43.7349 H         1 UNK         0.0600 
    168 H168        4.3484  -15.7228  -43.3564 H         1 UNK         0.0600 
    169 H169        2.0667  -13.4610  -44.9831 H         1 UNK         0.3000 
    170 H170       -0.4445  -12.1233  -45.1120 H         1 UNK         0.0600 
    171 H171       -1.1873  -10.8848  -43.1092 H         1 UNK         0.0600 
    172 H172        0.3445  -10.0199  -43.0414 H         1 UNK         0.0600 
    173 H173       -0.7620   -9.7698  -44.3927 H         1 UNK         0.0600 
    174 H174        1.6046  -10.1396  -45.1677 H         1 UNK         0.3000 
    175 H175        2.2389   -9.9724  -47.6695 H         1 UNK         0.0600 
    176 H176        4.5395  -10.9800  -45.9090 H         1 UNK         0.0600 
    177 H177        4.6871   -9.6536  -47.0605 H         1 UNK         0.0600 
    178 H178        3.6022   -9.5117  -45.6920 H         1 UNK         0.0600 
    179 H179        2.9528  -11.1825  -49.3528 H         1 UNK         0.3000 
    180 H180        5.0989  -12.3525  -50.4739 H         1 UNK         0.0600 
    181 H181        4.7256  -15.1834  -49.3700 H         1 UNK         0.0600 
    182 H182        6.2359  -14.2837  -49.4493 H         1 UNK         0.0600 
    183 H183        5.4400  -14.7858  -50.9319 H         1 UNK         0.0600 
    184 H184        2.7280  -14.1430  -50.4472 H         1 UNK         0.3000 
    185 H185        0.6935  -11.8456  -52.1803 H         1 UNK         0.0600 
    186 H186        1.9472  -12.7212  -54.1567 H         1 UNK         0.0600 
    187 H187        1.9733  -14.3309  -53.4464 H         1 UNK         0.0600 
    188 H188        0.4424  -13.5976  -53.9275 H         1 UNK         0.0600 
    189 H189        0.4794  -14.6526  -51.5277 H         1 UNK         0.3000 
    190 H190       -1.0366  -22.6658  -45.4835 H         1 UNK         0.3000 
    191 H191       -2.6222  -22.3130  -47.7922 H         1 UNK         0.0600 
    192 H192       -4.5236  -22.7579  -46.2818 H         1 UNK         0.0600 
    193 H193       -3.3488  -21.7450  -45.4564 H         1 UNK         0.0600 
    194 H194       -3.4538  -23.4570  -45.0734 H         1 UNK         0.0600 
    195 H195       -1.8869  -25.2995  -45.9184 H         1 UNK         0.3000 
    196 H196       -3.3455  -27.0973  -47.5649 H         1 UNK         0.0600 
    197 H197       -1.9918  -28.8390  -46.3745 H         1 UNK         0.0600 
    198 H198       -2.6685  -27.6608  -45.2608 H         1 UNK         0.0600 
    199 H199       -0.9635  -27.5802  -45.6983 H         1 UNK         0.0600 
    200 H200        0.1351  -26.1488  -47.6094 H         1 UNK         0.3000 
    201 H201        0.9497  -27.8605  -49.6990 H         1 UNK         0.0600 
    202 H202        2.5298  -26.7170  -48.1698 H         1 UNK         0.0600 
    203 H203        2.0861  -25.1478  -48.8407 H         1 UNK         0.0600 
    204 H204        2.9209  -26.3320  -49.8385 H         1 UNK         0.0600 
    205 H205       -0.4015  -24.5596  -49.8292 H         1 UNK         0.3000 
    206 H206       -0.2780  -24.4143  -52.7560 H         1 UNK         0.0600 
    207 H207        0.1483  -22.4385  -51.2704 H         1 UNK         0.0600 
    208 H208       -1.1816  -22.1681  -52.3752 H         1 UNK         0.0600 
    209 H209       -1.5085  -22.5353  -50.6834 H         1 UNK         0.0600 
    210 H210       -2.2290  -26.1604  -50.7878 H         1 UNK         0.3000 
    211 H211       -4.2052  -27.1313  -50.8434 H         1 UNK         0.0600 
    212 H212       -4.0741  -26.6172  -53.8627 H         1 UNK         0.0600 
    213 H213       -5.0195  -27.8659  -53.0606 H         1 UNK         0.0600 
    214 H214       -3.2663  -27.9388  -53.0198 H         1 UNK         0.0600 
    215 H215       -4.3431  -24.4270  -50.1702 H         1 UNK         0.3000 
    216 H216       -5.6040  -22.7068  -49.7296 H         1 UNK         0.0600 
    217 H217       -8.0058  -24.3761  -50.6328 H         1 UNK         0.0600 
    218 H218       -8.0653  -22.9181  -49.6541 H         1 UNK         0.0600 
    219 H219       -7.3002  -24.3656  -49.0169 H         1 UNK         0.0600 
    220 H220       -6.4523  -23.9747  -52.9311 H         1 UNK         0.3000 
    221 H221       -7.6598  -21.7054  -54.0439 H         1 UNK         0.0600 
    222 H222       -6.0965  -23.9597  -55.4126 H         1 UNK         0.0600 
    223 H223       -7.8155  -23.9712  -55.0220 H         1 UNK         0.0600 
    224 H224       -7.1965  -22.8516  -56.2263 H         1 UNK         0.0600 
    225 H225       -4.1709  -22.5764  -54.0030 H         1 UNK         0.3000 
    226 H226       -3.4855  -20.0729  -55.4625 H         1 UNK         0.0600 
    227 H227       -2.4825  -22.2150  -56.2420 H         1 UNK         0.0600 
    228 H228       -1.2607  -21.0944  -55.6658 H         1 UNK         0.0600 
    229 H229       -1.7393  -22.4547  -54.6643 H         1 UNK         0.0600 
    230 H230       -4.0876  -20.8959  -52.2820 H         1 UNK         0.3000 
    231 H231       -1.7975  -19.7480  -50.9579 H         1 UNK         0.0600 
    232 H232       -4.5999  -20.1992  -49.8157 H         1 UNK         0.0600 
    233 H233       -3.3762  -21.4588  -49.9247 H         1 UNK         0.0600 
    234 H234       -3.0974  -20.0387  -48.9267 H         1 UNK         0.0600 
    235 H235       -4.9094  -18.5306  -52.0712 H         1 UNK         0.3000 
    236 H236       -5.8269  -16.5317  -52.3581 H         1 UNK         0.0600 
    237 H237       -3.7558  -16.1981  -53.7317 H         1 UNK         0.0600 
    238 H238       -4.3590  -14.6849  -53.0757 H         1 UNK         0.0600 
    239 H239       -2.9562  -15.4552  -52.3476 H         1 UNK         0.0600 
    240 H240       -5.9268  -17.3681  -49.7377 H         1 UNK         0.3000 
    241 H241       -4.9821  -15.6539  -47.7882 H         1 UNK         0.0600 
    242 H242       -7.6968  -14.8195  -49.8715 H         1 UNK         0.3800 
    243 H243       -8.2473  -13.4834  -48.8954 H         1 UNK         0.3800 
    244 H244       -6.5780  -16.7349  -46.2442 H         1 UNK         0.0800 
    245 H245       -7.5465  -17.2965  -47.5729 H         1 UNK         0.0800 
    246 H246       -4.5279  -19.6090  -45.4329 H         1 UNK         0.0800 
    247 H247       -5.1357  -18.0283  -45.0414 H         1 UNK         0.0800 
@<TRIPOS>BOND
     1    1    2 1    
     2    1  127 1    
     3    1  128 1    
     4    1  129 1    
     5    2    3 2    
     6    2    4 am   BACKBONE|DICT|INTERRES
     7    4    5 1    
     8    4  130 1    
     9    5    6 1    
    10    5   65 1    
    11    5  131 1    
    12    6    7 1    
    13    6  132 1    
    14    6  133 1    
    15    7    8 1    
    16    8    9 1    
    17    8  134 1    
    18    8  135 1    
    19    9   10 ar   
    20    9   14 ar   
    21   10   11 ar   
    22   10  136 1    
    23   11   12 ar   
    24   11  126 1    
    25   12   13 ar   
    26   12  137 1    
    27   13   14 ar   
    28   13   15 1    
    29   14  138 1    
    30   15   16 1    
    31   15  139 1    
    32   15  140 1    
    33   16   17 1    
    34   17   18 1    
    35   17  141 1    
    36   17  142 1    
    37   18   19 1    
    38   18   67 1    
    39   18  143 1    
    40   19   20 am   BACKBONE|DICT|INTERRES
    41   19  144 1    
    42   20   21 2    
    43   20   22 1    
    44   22   23 1    
    45   22   24 1    
    46   22  145 1    
    47   23  146 1    
    48   23  147 1    
    49   23  148 1    
    50   24   25 am   BACKBONE|DICT|INTERRES
    51   24  149 1    
    52   25   26 2    
    53   25   27 1    
    54   27   28 1    
    55   27   29 1    
    56   27  150 1    
    57   28  151 1    
    58   28  152 1    
    59   28  153 1    
    60   29   30 am   BACKBONE|DICT|INTERRES
    61   29  154 1    
    62   30   31 2    
    63   30   32 1    
    64   32   33 1    
    65   32   34 1    
    66   32  155 1    
    67   33  156 1    
    68   33  157 1    
    69   33  158 1    
    70   34   35 am   BACKBONE|DICT|INTERRES
    71   34  159 1    
    72   35   36 2    
    73   35   37 1    
    74   37   38 1    
    75   37   39 1    
    76   37  160 1    
    77   38  161 1    
    78   38  162 1    
    79   38  163 1    
    80   39   40 am   BACKBONE|DICT|INTERRES
    81   39  164 1    
    82   40   41 2    
    83   40   42 1    
    84   42   43 1    
    85   42   44 1    
    86   42  165 1    
    87   43  166 1    
    88   43  167 1    
    89   43  168 1    
    90   44   45 am   BACKBONE|DICT|INTERRES
    91   44  169 1    
    92   45   46 2    
    93   45   47 1    
    94   47   48 1    
    95   47   49 1    
    96   47  170 1    
    97   48  171 1    
    98   48  172 1    
    99   48  173 1    
   100   49   50 am   BACKBONE|DICT|INTERRES
   101   49  174 1    
   102   50   51 2    
   103   50   52 1    
   104   52   53 1    
   105   52   54 1    
   106   52  175 1    
   107   53  176 1    
   108   53  177 1    
   109   53  178 1    
   110   54   55 am   BACKBONE|DICT|INTERRES
   111   54  179 1    
   112   55   56 2    
   113   55   57 1    
   114   57   58 1    
   115   57   59 1    
   116   57  180 1    
   117   58  181 1    
   118   58  182 1    
   119   58  183 1    
   120   59   60 am   BACKBONE|DICT|INTERRES
   121   59  184 1    
   122   60   61 2    
   123   60   62 1    
   124   62   63 1    
   125   62   64 1    
   126   62  185 1    
   127   63  186 1    
   128   63  187 1    
   129   63  188 1    
   130   64   65 am   BACKBONE|DICT|INTERRES
   131   64  189 1    
   132   65   66 2    
   133   67   68 2    
   134   67   69 am   BACKBONE|DICT|INTERRES
   135   69   70 1    
   136   69  190 1    
   137   70   71 1    
   138   70   72 1    
   139   70  191 1    
   140   71  192 1    
   141   71  193 1    
   142   71  194 1    
   143   72   73 2    
   144   72   74 am   BACKBONE|DICT|INTERRES
   145   74   75 1    
   146   74  195 1    
   147   75   76 1    
   148   75   77 1    
   149   75  196 1    
   150   76  197 1    
   151   76  198 1    
   152   76  199 1    
   153   77   78 2    
   154   77   79 am   BACKBONE|DICT|INTERRES
   155   79   80 1    
   156   79  200 1    
   157   80   81 1    
   158   80   82 1    
   159   80  201 1    
   160   81  202 1    
   161   81  203 1    
   162   81  204 1    
   163   82   83 2    
   164   82   84 am   BACKBONE|DICT|INTERRES
   165   84   85 1    
   166   84  205 1    
   167   85   86 1    
   168   85   87 1    
   169   85  206 1    
   170   86  207 1    
   171   86  208 1    
   172   86  209 1    
   173   87   88 2    
   174   87   89 am   BACKBONE|DICT|INTERRES
   175   89   90 1    
   176   89  210 1    
   177   90   91 1    
   178   90   92 1    
   179   90  211 1    
   180   91  212 1    
   181   91  213 1    
   182   91  214 1    
   183   92   93 2    
   184   92   94 am   BACKBONE|DICT|INTERRES
   185   94   95 1    
   186   94  215 1    
   187   95   96 1    
   188   95   97 1    
   189   95  216 1    
   190   96  217 1    
   191   96  218 1    
   192   96  219 1    
   193   97   98 2    
   194   97   99 am   BACKBONE|DICT|INTERRES
   195   99  100 1    
   196   99  220 1    
   197  100  101 1    
   198  100  102 1    
   199  100  221 1    
   200  101  222 1    
   201  101  223 1    
   202  101  224 1    
   203  102  103 2    
   204  102  104 am   BACKBONE|DICT|INTERRES
   205  104  105 1    
   206  104  225 1    
   207  105  106 1    
   208  105  107 1    
   209  105  226 1    
   210  106  227 1    
   211  106  228 1    
   212  106  229 1    
   213  107  108 2    
   214  107  109 am   BACKBONE|DICT|INTERRES
   215  109  110 1    
   216  109  230 1    
   217  110  111 1    
   218  110  112 1    
   219  110  231 1    
   220  111  232 1    
   221  111  233 1    
   222  111  234 1    
   223  112  113 2    
   224  112  114 am   BACKBONE|DICT|INTERRES
   225  114  115 1    
   226  114  235 1    
   227  115  116 1    
   228  115  117 1    
   229  115  236 1    
   230  116  237 1    
   231  116  238 1    
   232  116  239 1    
   233  117  118 2    
   234  117  119 am   BACKBONE|DICT|INTERRES
   235  119  120 1    
   236  119  240 1    
   237  120  121 1    
   238  120  124 1    
   239  120  241 1    
   240  121  122 am   BACKBONE|DICT|INTERRES
   241  121  123 2    
   242  122  242 1    
   243  122  243 1    
   244  124  125 1    
   245  124  244 1    
   246  124  245 1    
   247  125  126 1    
   248  126  246 1    
   249  126  247 1    
@<TRIPOS>SUBSTRUCTURE
     1 UNK         1 GROUP             0       ****    0 ROOT    
