@<TRIPOS>MOLECULE
3R540
247   249    1
SMALL
USER_CHARGES


@<TRIPOS>ATOM
      1 CA          2.1530  -10.9078  -49.6342 C.3       0 UNK        -0.1800 
      2 C           1.3931  -12.2266  -49.6698 C.2       0 UNK         0.5000 
      3 O           0.4578  -12.3701  -50.4575 O.2       0 UNK        -0.5000 
      4 N           1.7998  -13.1859  -48.8272 N.am      1 UNK        -0.5000 
      5 CA          1.1780  -14.5043  -48.6494 C.3       1 UNK         0.1400 
      6 C6          1.1931  -15.3565  -49.9532 C.3       23 UNK        -0.0398 
      7 S7          1.2586  -17.1574  -49.6454 S.3       23 UNK        -0.2404 
      8 C8          2.8101  -17.6144  -50.4764 C.3       23 UNK        -0.0205 
      9 C9          2.9245  -19.1214  -50.6424 C.ar      23 UNK        -0.0193 
     10 C10         2.1442  -19.7721  -51.6019 C.ar      23 UNK        -0.1150 
     11 C11         2.2453  -21.1532  -51.7849 C.ar      23 UNK        -0.0193 
     12 C12         3.1413  -21.8853  -51.0024 C.ar      23 UNK        -0.1150 
     13 C13         3.9269  -21.2481  -50.0363 C.ar      23 UNK        -0.0193 
     14 C14         3.8147  -19.8645  -49.8605 C.ar      23 UNK        -0.1150 
     15 C15         4.9004  -22.0611  -49.1915 C.3       23 UNK        -0.0205 
     16 S16         4.4258  -22.1220  -47.4332 S.3       23 UNK        -0.2404 
     17 C17         2.7093  -22.7310  -47.5194 C.3       23 UNK        -0.0398 
     18 CA          2.3800  -23.8325  -46.4826 C.3       11 UNK         0.1400 
     19 N           2.5415  -23.3692  -45.0957 N.am      11 UNK        -0.5000 
     20 C           2.5499  -24.1671  -44.0172 C.2       10 UNK         0.5000 
     21 O           2.5448  -25.3968  -44.0811 O.2       10 UNK        -0.5000 
     22 CA          2.4927  -23.4832  -42.6362 C.3       10 UNK         0.1400 
     23 CB          3.9009  -23.1503  -42.1204 C.3       10 UNK        -0.1800 
     24 N           1.6600  -22.2765  -42.6345 N.am      10 UNK        -0.5000 
     25 C           0.3273  -22.2731  -42.7915 C.2       9 UNK         0.5000 
     26 O          -0.3479  -23.2957  -42.9002 O.2       9 UNK        -0.5000 
     27 CA         -0.3672  -20.9033  -42.9044 C.3       9 UNK         0.1400 
     28 CB         -0.6463  -20.3155  -41.5145 C.3       9 UNK        -0.1800 
     29 N           0.4095  -19.9534  -43.6993 N.am      9 UNK        -0.5000 
     30 C           0.6551  -20.0839  -45.0107 C.2       8 UNK         0.5000 
     31 O           0.1574  -20.9644  -45.7129 O.2       8 UNK        -0.5000 
     32 CA          1.6532  -19.0919  -45.6340 C.3       8 UNK         0.1400 
     33 CB          0.9341  -17.8314  -46.1112 C.3       8 UNK        -0.1800 
     34 N           2.7132  -18.6989  -44.7072 N.am      8 UNK        -0.5000 
     35 C           3.6680  -19.5214  -44.2573 C.2       7 UNK         0.5000 
     36 O           3.7511  -20.7057  -44.5729 O.2       7 UNK        -0.5000 
     37 CA          4.6519  -18.9298  -43.2339 C.3       7 UNK         0.1400 
     38 CB          5.6830  -18.0241  -43.9241 C.3       7 UNK        -0.1800 
     39 N           3.9617  -18.1787  -42.1839 N.am      7 UNK        -0.5000 
     40 C           3.1402  -18.7331  -41.2813 C.2       6 UNK         0.5000 
     41 O           2.9113  -19.9409  -41.2191 O.2       6 UNK        -0.5000 
     42 CA          2.4277  -17.7758  -40.3082 C.3       6 UNK         0.1400 
     43 CB          3.2985  -17.5226  -39.0686 C.3       6 UNK        -0.1800 
     44 N           2.0506  -16.4914  -40.9070 N.am      6 UNK        -0.5000 
     45 C           1.1818  -16.3471  -41.9161 C.2       5 UNK         0.5000 
     46 O           0.6661  -17.2933  -42.5160 O.2       5 UNK        -0.5000 
     47 CA          0.8624  -14.9073  -42.3496 C.3       5 UNK         0.1400 
     48 CB          1.6270  -14.5488  -43.6336 C.3       5 UNK        -0.1800 
     49 N          -0.5707  -14.7722  -42.5914 N.am      5 UNK        -0.5000 
     50 C          -1.4886  -14.5452  -41.6393 C.2       4 UNK         0.5000 
     51 O          -1.2068  -14.2857  -40.4686 O.2       4 UNK        -0.5000 
     52 CA         -2.9725  -14.6470  -42.0555 C.3       4 UNK         0.1400 
     53 CB         -3.5000  -13.2817  -42.5216 C.3       4 UNK        -0.1800 
     54 N          -3.1672  -15.6240  -43.1252 N.am      4 UNK        -0.5000 
     55 C          -3.0234  -16.9459  -42.9739 C.2       3 UNK         0.5000 
     56 O          -3.0147  -17.4940  -41.8714 O.2       3 UNK        -0.5000 
     57 CA         -2.8139  -17.7986  -44.2475 C.3       3 UNK         0.1400 
     58 CB         -3.7326  -19.0313  -44.2666 C.3       3 UNK        -0.1800 
     59 N          -2.9294  -17.1038  -45.5386 N.am      3 UNK        -0.5000 
     60 C          -2.1364  -16.1276  -45.9962 C.2       2 UNK         0.5000 
     61 O          -1.3050  -15.5519  -45.2939 O.2       2 UNK        -0.5000 
     62 CA         -2.3153  -15.7383  -47.4745 C.3       2 UNK         0.1400 
     63 CB         -3.3274  -14.5897  -47.6403 C.3       2 UNK        -0.1800 
     64 N          -1.0291  -15.4517  -48.1220 N.am      2 UNK        -0.5000 
     65 C          -0.2122  -14.3985  -47.9675 C.2       1 UNK         0.5000 
     66 O          -0.4896  -13.3957  -47.3038 O.2       1 UNK        -0.5000 
     67 C           0.9564  -24.3656  -46.7683 C.2       11 UNK         0.5000 
     68 O           0.7721  -25.0765  -47.7571 O.2       11 UNK        -0.5000 
     69 N          -0.0167  -23.9804  -45.9280 N.am      12 UNK        -0.5000 
     70 CA         -1.4587  -24.1952  -46.0594 C.3       12 UNK         0.1400 
     71 CB         -1.8085  -25.6935  -45.9478 C.3       12 UNK        -0.1800 
     72 C          -2.0188  -23.5261  -47.3300 C.2       12 UNK         0.5000 
     73 O          -2.7997  -24.1377  -48.0560 O.2       12 UNK        -0.5000 
     74 N          -1.5844  -22.2831  -47.5859 N.am      13 UNK        -0.5000 
     75 CA         -1.8882  -21.5281  -48.8035 C.3       13 UNK         0.1400 
     76 CB         -0.8918  -20.3667  -48.9350 C.3       13 UNK        -0.1800 
     77 C          -3.3366  -21.0192  -48.9019 C.2       13 UNK         0.5000 
     78 O          -3.7826  -20.7134  -50.0081 O.2       13 UNK        -0.5000 
     79 N          -4.0368  -20.9433  -47.7605 N.am      14 UNK        -0.5000 
     80 CA         -5.3912  -20.4106  -47.5884 C.3       14 UNK         0.1400 
     81 CB         -6.4442  -21.3137  -48.2668 C.3       14 UNK        -0.1800 
     82 C          -5.4603  -18.9292  -48.0057 C.2       14 UNK         0.5000 
     83 O          -4.8127  -18.1041  -47.3596 O.2       14 UNK        -0.5000 
     84 N          -6.2237  -18.6080  -49.0573 N.am      15 UNK        -0.5000 
     85 CA         -6.3564  -17.2483  -49.5793 C.3       15 UNK         0.1400 
     86 CB         -7.6527  -17.1434  -50.3933 C.3       15 UNK        -0.1800 
     87 C          -5.1491  -16.8184  -50.4308 C.2       15 UNK         0.5000 
     88 O          -4.9013  -15.6183  -50.5449 O.2       15 UNK        -0.5000 
     89 N          -4.4342  -17.7931  -51.0142 N.am      16 UNK        -0.5000 
     90 CA         -3.2220  -17.6891  -51.8373 C.3       16 UNK         0.1400 
     91 CB         -2.0579  -17.0840  -51.0350 C.3       16 UNK        -0.1800 
     92 C          -3.4057  -16.9558  -53.1813 C.2       16 UNK         0.5000 
     93 O          -3.0380  -17.4989  -54.2217 O.2       16 UNK        -0.5000 
     94 N          -3.9591  -15.7390  -53.1431 N.am      17 UNK        -0.5000 
     95 CA         -4.2273  -14.8958  -54.3089 C.3       17 UNK         0.1400 
     96 CB         -4.3755  -13.4393  -53.8434 C.3       17 UNK        -0.1800 
     97 C          -5.4775  -15.3423  -55.0895 C.2       17 UNK         0.5000 
     98 O          -5.5491  -15.1174  -56.2984 O.2       17 UNK        -0.5000 
     99 N          -6.4316  -15.9597  -54.3826 N.am      18 UNK        -0.5000 
    100 CA        -7.6540  -16.5378  -54.9299 C.3       18 UNK         0.1400 
    101 CB        -8.8658  -15.9720  -54.1621 C.3       18 UNK        -0.1800 
    102 C         -7.5229  -18.0669  -54.8502 C.2       18 UNK         0.5000 
    103 O         -6.8775  -18.6624  -55.7137 O.2       18 UNK        -0.5000 
    104 N         -8.1095  -18.6740  -53.8107 N.am      19 UNK        -0.5000 
    105 CA        -7.9804  -20.0901  -53.4765 C.3       19 UNK         0.1400 
    106 CB        -9.0641  -20.4637  -52.4502 C.3       19 UNK        -0.1800 
    107 C         -6.5675  -20.3980  -52.9470 C.2       19 UNK         0.5000 
    108 O         -6.3047  -20.2148  -51.7566 O.2       19 UNK        -0.5000 
    109 N         -5.6820  -20.8303  -53.8504 N.am      20 UNK        -0.5000 
    110 CA        -4.3202  -21.2651  -53.5588 C.3       20 UNK         0.1400 
    111 CB        -3.4399  -21.0122  -54.7951 C.3       20 UNK        -0.1800 
    112 C         -4.3325  -22.7465  -53.1500 C.2       20 UNK         0.5000 
    113 O         -4.0266  -23.6203  -53.9649 O.2       20 UNK        -0.5000 
    114 N         -4.7064  -23.0120  -51.8924 N.am      21 UNK        -0.5000 
    115 CA        -4.8175  -24.3617  -51.3233 C.3       21 UNK         0.1400 
    116 CB        -5.5360  -24.2800  -49.9707 C.3       21 UNK        -0.1800 
    117 C         -3.4717  -25.1126  -51.2097 C.2       21 UNK         0.5000 
    118 O         -3.4672  -26.3373  -51.0777 O.2       21 UNK        -0.5000 
    119 N         -2.3635  -24.3710  -51.3170 N.am      22 UNK        -0.5000 
    120 CA        -0.9954  -24.8731  -51.4985 C.3       22 UNK         0.1400 
    121 C         -0.7340  -25.5645  -52.8719 C.2       22 UNK         0.5000 
    122 N         -1.5911  -25.4147  -53.8771 N.am      22 UNK        -0.7600 
    123 O          0.2664  -26.2600  -53.0241 O.2       22 UNK        -0.5000 
    124 C124        0.0487  -23.7584  -51.2211 C.3       23 UNK        -0.0398 
    125 S125       -0.2637  -22.2303  -52.1859 S.3       23 UNK        -0.2404 
    126 C126        1.3894  -21.8443  -52.8341 C.3       23 UNK        -0.0205 
    127 H127        2.5856  -10.6972  -50.6124 H         1 UNK         0.0600 
    128 H128        2.9605  -10.9236  -48.9016 H         1 UNK         0.0600 
    129 H129        1.4766  -10.0926  -49.3766 H         1 UNK         0.0600 
    130 H130        2.5560  -12.9818  -48.1891 H         1 UNK         0.3000 
    131 H131        1.8173  -15.0048  -47.9207 H         1 UNK         0.0600 
    132 H132        0.3324  -15.1295  -50.5847 H         1 UNK         0.0800 
    133 H133        2.0635  -15.0855  -50.5520 H         1 UNK         0.0800 
    134 H134        2.8504  -17.1486  -51.4622 H         1 UNK         0.0800 
    135 H135        3.6541  -17.2195  -49.9088 H         1 UNK         0.0800 
    136 H136        1.4510  -19.2011  -52.2039 H         1 UNK         0.1150 
    137 H137        3.2254  -22.9533  -51.1447 H         1 UNK         0.1150 
    138 H138        4.4207  -19.3701  -49.1142 H         1 UNK         0.1150 
    139 H139        4.9840  -23.0812  -49.5694 H         1 UNK         0.0800 
    140 H140        5.8961  -21.6233  -49.2732 H         1 UNK         0.0800 
    141 H141        2.0415  -21.8765  -47.4049 H         1 UNK         0.0800 
    142 H142        2.5328  -23.1149  -48.5253 H         1 UNK         0.0800 
    143 H143        3.0704  -24.6638  -46.6400 H         1 UNK         0.0600 
    144 H144        2.6623  -22.3702  -44.9607 H         1 UNK         0.3000 
    145 H145        2.0445  -24.1938  -41.9386 H         1 UNK         0.0600 
    146 H146        3.8614  -22.7112  -41.1233 H         1 UNK         0.0600 
    147 H147        4.4198  -22.4493  -42.7730 H         1 UNK         0.0600 
    148 H148        4.5135  -24.0502  -42.0559 H         1 UNK         0.0600 
    149 H149        2.1408  -21.3931  -42.5034 H         1 UNK         0.3000 
    150 H150       -1.3250  -21.0522  -43.4073 H         1 UNK         0.0600 
    151 H151       -1.3123  -20.9645  -40.9449 H         1 UNK         0.0600 
    152 H152       -1.1250  -19.3398  -41.5867 H         1 UNK         0.0600 
    153 H153        0.2676  -20.1950  -40.9342 H         1 UNK         0.0600 
    154 H154        0.7877  -19.1479  -43.2103 H         1 UNK         0.3000 
    155 H155        2.1127  -19.5746  -46.4992 H         1 UNK         0.0600 
    156 H156        0.1325  -18.0710  -46.8091 H         1 UNK         0.0600 
    157 H157        1.6195  -17.1511  -46.6152 H         1 UNK         0.0600 
    158 H158        0.4969  -17.3020  -45.2675 H         1 UNK         0.0600 
    159 H159        2.6797  -17.7551  -44.3533 H         1 UNK         0.3000 
    160 H160        5.1858  -19.7597  -42.7657 H         1 UNK         0.0600 
    161 H161        5.2152  -17.1533  -44.3850 H         1 UNK         0.0600 
    162 H162        6.2131  -18.5658  -44.7087 H         1 UNK         0.0600 
    163 H163        6.4304  -17.6674  -43.2151 H         1 UNK         0.0600 
    164 H164        4.0972  -17.1790  -42.1648 H         1 UNK         0.3000 
    165 H165        1.5095  -18.2677  -39.9811 H         1 UNK         0.0600 
    166 H166        2.7659  -16.9268  -38.3271 H         1 UNK         0.0600 
    167 H167        3.5771  -18.4619  -38.5887 H         1 UNK         0.0600 
    168 H168        4.2202  -16.9980  -39.3232 H         1 UNK         0.0600 
    169 H169        2.4401  -15.6656  -40.4753 H         1 UNK         0.3000 
    170 H170        1.1652  -14.2140  -41.5622 H         1 UNK         0.0600 
    171 H171        2.7043  -14.6307  -43.4849 H         1 UNK         0.0600 
    172 H172        1.3576  -15.2038  -44.4624 H         1 UNK         0.0600 
    173 H173        1.4172  -13.5244  -43.9417 H         1 UNK         0.0600 
    174 H174       -0.8827  -15.0280  -43.5254 H         1 UNK         0.3000 
    175 H175       -3.5492  -14.9615  -41.1831 H         1 UNK         0.0600 
    176 H176       -2.9650  -12.9228  -43.4019 H         1 UNK         0.0600 
    177 H177       -4.5602  -13.3326  -42.7701 H         1 UNK         0.0600 
    178 H178       -3.3852  -12.5315  -41.7382 H         1 UNK         0.0600 
    179 H179       -3.1189  -15.2676  -44.0691 H         1 UNK         0.3000 
    180 H180       -1.7866  -18.1609  -44.1815 H         1 UNK         0.0600 
    181 H181       -3.4696  -19.6999  -45.0857 H         1 UNK         0.0600 
    182 H182       -4.7788  -18.7473  -44.3841 H         1 UNK         0.0600 
    183 H183       -3.6471  -19.6079  -43.3446 H         1 UNK         0.0600 
    184 H184       -3.6319  -17.4807  -46.1750 H         1 UNK         0.3000 
    185 H185       -2.7124  -16.6056  -48.0028 H         1 UNK         0.0600 
    186 H186       -3.3863  -14.2622  -48.6782 H         1 UNK         0.0600 
    187 H187       -4.3261  -14.9127  -47.3442 H         1 UNK         0.0600 
    188 H188       -3.0711  -13.7248  -47.0281 H         1 UNK         0.0600 
    189 H189       -0.6578  -16.2191  -48.6664 H         1 UNK         0.3000 
    190 H190        0.2531  -23.3855  -45.1562 H         1 UNK         0.3000 
    191 H191       -1.9234  -23.6843  -45.2152 H         1 UNK         0.0600 
    192 H192       -2.8888  -25.8393  -45.9170 H         1 UNK         0.0600 
    193 H193       -1.3962  -26.1261  -45.0362 H         1 UNK         0.0600 
    194 H194       -1.4270  -26.2655  -46.7940 H         1 UNK         0.0600 
    195 H195       -0.9410  -21.8458  -46.9288 H         1 UNK         0.3000 
    196 H196       -1.7455  -22.1944  -49.6508 H         1 UNK         0.0600 
    197 H197       -1.0286  -19.6307  -48.1431 H         1 UNK         0.0600 
    198 H198       -1.0154  -19.8551  -49.8900 H         1 UNK         0.0600 
    199 H199        0.1394  -20.7193  -48.8953 H         1 UNK         0.0600 
    200 H200       -3.5611  -21.2148  -46.9133 H         1 UNK         0.3000 
    201 H201       -5.5950  -20.4277  -46.5170 H         1 UNK         0.0600 
    202 H202       -6.2852  -21.4054  -49.3408 H         1 UNK         0.0600 
    203 H203       -7.4525  -20.9275  -48.1131 H         1 UNK         0.0600 
    204 H204       -6.4225  -22.3162  -47.8404 H         1 UNK         0.0600 
    205 H205       -6.6529  -19.3490  -49.5969 H         1 UNK         0.3000 
    206 H206       -6.4297  -16.5543  -48.7390 H         1 UNK         0.0600 
    207 H207       -8.5217  -17.4033  -49.7887 H         1 UNK         0.0600 
    208 H208       -7.8027  -16.1269  -50.7593 H         1 UNK         0.0600 
    209 H209       -7.6324  -17.8068  -51.2553 H         1 UNK         0.0600 
    210 H210       -4.7550  -18.7451  -50.8655 H         1 UNK         0.3000 
    211 H211       -2.9409  -18.7152  -52.0748 H         1 UNK         0.0600 
    212 H212       -2.2398  -16.0425  -50.7686 H         1 UNK         0.0600 
    213 H213       -1.1337  -17.1169  -51.6131 H         1 UNK         0.0600 
    214 H214       -1.8874  -17.6417  -50.1153 H         1 UNK         0.0600 
    215 H215       -4.2488  -15.3877  -52.2324 H         1 UNK         0.3000 
    216 H216       -3.3727  -14.9528  -54.9865 H         1 UNK         0.0600 
    217 H217       -3.4698  -13.0907  -53.3467 H         1 UNK         0.0600 
    218 H218       -5.2064  -13.3223  -53.1463 H         1 UNK         0.0600 
    219 H219       -4.5587  -12.7749  -54.6889 H         1 UNK         0.0600 
    220 H220       -6.2531  -16.1257  -53.4036 H         1 UNK         0.3000 
    221 H221       -7.7734  -16.2790  -55.9840 H         1 UNK         0.0600 
    222 H222       -9.7949  -16.4357  -54.4965 H         1 UNK         0.0600 
    223 H223       -8.7843  -16.1201  -53.0853 H         1 UNK         0.0600 
    224 H224       -8.9633  -14.9001  -54.3354 H         1 UNK         0.0600 
    225 H225       -8.6284  -18.1087  -53.1561 H         1 UNK         0.3000 
    226 H226       -8.1547  -20.6826  -54.3772 H         1 UNK         0.0600 
    227 H227      -10.0629  -20.3066  -52.8577 H         1 UNK         0.0600 
    228 H228       -8.9888  -21.5157  -52.1719 H         1 UNK         0.0600 
    229 H229       -8.9808  -19.8776  -51.5343 H         1 UNK         0.0600 
    230 H230       -5.9759  -20.9064  -54.8141 H         1 UNK         0.3000 
    231 H231       -3.9141  -20.6854  -52.7293 H         1 UNK         0.0600 
    232 H232       -2.4065  -21.3036  -54.6025 H         1 UNK         0.0600 
    233 H233       -3.4355  -19.9576  -55.0668 H         1 UNK         0.0600 
    234 H234       -3.7854  -21.5738  -55.6639 H         1 UNK         0.0600 
    235 H235       -4.9201  -22.2318  -51.2801 H         1 UNK         0.3000 
    236 H236       -5.4451  -24.9505  -51.9954 H         1 UNK         0.0600 
    237 H237       -5.0040  -23.6290  -49.2794 H         1 UNK         0.0600 
    238 H238       -6.5486  -23.8933  -50.0855 H         1 UNK         0.0600 
    239 H239       -5.6127  -25.2626  -49.5037 H         1 UNK         0.0600 
    240 H240       -2.4765  -23.3766  -51.4410 H         1 UNK         0.3000 
    241 H241       -0.8437  -25.6483  -50.7449 H         1 UNK         0.0600 
    242 H242       -1.4050  -25.8737  -54.7543 H         1 UNK         0.3800 
    243 H243       -2.4144  -24.8294  -53.7866 H         1 UNK         0.3800 
    244 H244        1.0576  -24.1263  -51.4127 H         1 UNK         0.0800 
    245 H245        0.0415  -23.5036  -50.1611 H         1 UNK         0.0800 
    246 H246        1.2799  -21.1910  -53.7009 H         1 UNK         0.0800 
    247 H247        1.8730  -22.7515  -53.1994 H         1 UNK         0.0800 
@<TRIPOS>BOND
     1    1    2 1    
     2    1  127 1    
     3    1  128 1    
     4    1  129 1    
     5    2    3 2    
     6    2    4 am   BACKBONE|DICT|INTERRES
     7    4    5 1    
     8    4  130 1    
     9    5    6 1    
    10    5   65 1    
    11    5  131 1    
    12    6    7 1    
    13    6  132 1    
    14    6  133 1    
    15    7    8 1    
    16    8    9 1    
    17    8  134 1    
    18    8  135 1    
    19    9   10 ar   
    20    9   14 ar   
    21   10   11 ar   
    22   10  136 1    
    23   11   12 ar   
    24   11  126 1    
    25   12   13 ar   
    26   12  137 1    
    27   13   14 ar   
    28   13   15 1    
    29   14  138 1    
    30   15   16 1    
    31   15  139 1    
    32   15  140 1    
    33   16   17 1    
    34   17   18 1    
    35   17  141 1    
    36   17  142 1    
    37   18   19 1    
    38   18   67 1    
    39   18  143 1    
    40   19   20 am   BACKBONE|DICT|INTERRES
    41   19  144 1    
    42   20   21 2    
    43   20   22 1    
    44   22   23 1    
    45   22   24 1    
    46   22  145 1    
    47   23  146 1    
    48   23  147 1    
    49   23  148 1    
    50   24   25 am   BACKBONE|DICT|INTERRES
    51   24  149 1    
    52   25   26 2    
    53   25   27 1    
    54   27   28 1    
    55   27   29 1    
    56   27  150 1    
    57   28  151 1    
    58   28  152 1    
    59   28  153 1    
    60   29   30 am   BACKBONE|DICT|INTERRES
    61   29  154 1    
    62   30   31 2    
    63   30   32 1    
    64   32   33 1    
    65   32   34 1    
    66   32  155 1    
    67   33  156 1    
    68   33  157 1    
    69   33  158 1    
    70   34   35 am   BACKBONE|DICT|INTERRES
    71   34  159 1    
    72   35   36 2    
    73   35   37 1    
    74   37   38 1    
    75   37   39 1    
    76   37  160 1    
    77   38  161 1    
    78   38  162 1    
    79   38  163 1    
    80   39   40 am   BACKBONE|DICT|INTERRES
    81   39  164 1    
    82   40   41 2    
    83   40   42 1    
    84   42   43 1    
    85   42   44 1    
    86   42  165 1    
    87   43  166 1    
    88   43  167 1    
    89   43  168 1    
    90   44   45 am   BACKBONE|DICT|INTERRES
    91   44  169 1    
    92   45   46 2    
    93   45   47 1    
    94   47   48 1    
    95   47   49 1    
    96   47  170 1    
    97   48  171 1    
    98   48  172 1    
    99   48  173 1    
   100   49   50 am   BACKBONE|DICT|INTERRES
   101   49  174 1    
   102   50   51 2    
   103   50   52 1    
   104   52   53 1    
   105   52   54 1    
   106   52  175 1    
   107   53  176 1    
   108   53  177 1    
   109   53  178 1    
   110   54   55 am   BACKBONE|DICT|INTERRES
   111   54  179 1    
   112   55   56 2    
   113   55   57 1    
   114   57   58 1    
   115   57   59 1    
   116   57  180 1    
   117   58  181 1    
   118   58  182 1    
   119   58  183 1    
   120   59   60 am   BACKBONE|DICT|INTERRES
   121   59  184 1    
   122   60   61 2    
   123   60   62 1    
   124   62   63 1    
   125   62   64 1    
   126   62  185 1    
   127   63  186 1    
   128   63  187 1    
   129   63  188 1    
   130   64   65 am   BACKBONE|DICT|INTERRES
   131   64  189 1    
   132   65   66 2    
   133   67   68 2    
   134   67   69 am   BACKBONE|DICT|INTERRES
   135   69   70 1    
   136   69  190 1    
   137   70   71 1    
   138   70   72 1    
   139   70  191 1    
   140   71  192 1    
   141   71  193 1    
   142   71  194 1    
   143   72   73 2    
   144   72   74 am   BACKBONE|DICT|INTERRES
   145   74   75 1    
   146   74  195 1    
   147   75   76 1    
   148   75   77 1    
   149   75  196 1    
   150   76  197 1    
   151   76  198 1    
   152   76  199 1    
   153   77   78 2    
   154   77   79 am   BACKBONE|DICT|INTERRES
   155   79   80 1    
   156   79  200 1    
   157   80   81 1    
   158   80   82 1    
   159   80  201 1    
   160   81  202 1    
   161   81  203 1    
   162   81  204 1    
   163   82   83 2    
   164   82   84 am   BACKBONE|DICT|INTERRES
   165   84   85 1    
   166   84  205 1    
   167   85   86 1    
   168   85   87 1    
   169   85  206 1    
   170   86  207 1    
   171   86  208 1    
   172   86  209 1    
   173   87   88 2    
   174   87   89 am   BACKBONE|DICT|INTERRES
   175   89   90 1    
   176   89  210 1    
   177   90   91 1    
   178   90   92 1    
   179   90  211 1    
   180   91  212 1    
   181   91  213 1    
   182   91  214 1    
   183   92   93 2    
   184   92   94 am   BACKBONE|DICT|INTERRES
   185   94   95 1    
   186   94  215 1    
   187   95   96 1    
   188   95   97 1    
   189   95  216 1    
   190   96  217 1    
   191   96  218 1    
   192   96  219 1    
   193   97   98 2    
   194   97   99 am   BACKBONE|DICT|INTERRES
   195   99  100 1    
   196   99  220 1    
   197  100  101 1    
   198  100  102 1    
   199  100  221 1    
   200  101  222 1    
   201  101  223 1    
   202  101  224 1    
   203  102  103 2    
   204  102  104 am   BACKBONE|DICT|INTERRES
   205  104  105 1    
   206  104  225 1    
   207  105  106 1    
   208  105  107 1    
   209  105  226 1    
   210  106  227 1    
   211  106  228 1    
   212  106  229 1    
   213  107  108 2    
   214  107  109 am   BACKBONE|DICT|INTERRES
   215  109  110 1    
   216  109  230 1    
   217  110  111 1    
   218  110  112 1    
   219  110  231 1    
   220  111  232 1    
   221  111  233 1    
   222  111  234 1    
   223  112  113 2    
   224  112  114 am   BACKBONE|DICT|INTERRES
   225  114  115 1    
   226  114  235 1    
   227  115  116 1    
   228  115  117 1    
   229  115  236 1    
   230  116  237 1    
   231  116  238 1    
   232  116  239 1    
   233  117  118 2    
   234  117  119 am   BACKBONE|DICT|INTERRES
   235  119  120 1    
   236  119  240 1    
   237  120  121 1    
   238  120  124 1    
   239  120  241 1    
   240  121  122 am   BACKBONE|DICT|INTERRES
   241  121  123 2    
   242  122  242 1    
   243  122  243 1    
   244  124  125 1    
   245  124  244 1    
   246  124  245 1    
   247  125  126 1    
   248  126  246 1    
   249  126  247 1    
@<TRIPOS>SUBSTRUCTURE
     1 UNK         1 GROUP             0       ****    0 ROOT    
