@<TRIPOS>MOLECULE
3R540
247   249    1
SMALL
USER_CHARGES


@<TRIPOS>ATOM
      1 CA          6.0106  -20.2087  -45.0856 C.3       0 UNK        -0.1800 
      2 C           5.2537  -18.8885  -45.0765 C.2       0 UNK         0.5000 
      3 O           4.7330  -18.4888  -44.0361 O.2       0 UNK        -0.5000 
      4 N           5.1883  -18.2153  -46.2310 N.am      1 UNK        -0.5000 
      5 CA          4.5089  -16.9340  -46.4264 C.3       1 UNK         0.1400 
      6 C6          4.1166  -16.7422  -47.9094 C.3       23 UNK        -0.0398 
      7 S7          2.9999  -15.3254  -48.2065 S.3       23 UNK        -0.2404 
      8 C8          2.7628  -15.4249  -50.0119 C.3       23 UNK        -0.0205 
      9 C9          1.8352  -16.5711  -50.3801 C.ar      23 UNK        -0.0193 
     10 C10         0.4609  -16.3587  -50.5063 C.ar      23 UNK        -0.1150 
     11 C11        -0.4027  -17.4270  -50.7686 C.ar      23 UNK        -0.0193 
     12 C12         0.1170  -18.7227  -50.8636 C.ar      23 UNK        -0.1150 
     13 C13         1.4919  -18.9451  -50.7337 C.ar      23 UNK        -0.0193 
     14 C14         2.3472  -17.8580  -50.5475 C.ar      23 UNK        -0.1150 
     15 C15         2.0538  -20.3604  -50.7241 C.3       23 UNK        -0.0205 
     16 S16         3.0343  -20.7211  -49.2177 S.3       23 UNK        -0.2404 
     17 C17         1.8934  -20.2634  -47.8601 C.3       23 UNK        -0.0398 
     18 CA          1.1232  -21.4627  -47.2625 C.3       11 UNK         0.1400 
     19 N           0.4540  -21.1079  -46.0085 N.am      11 UNK        -0.5000 
     20 C          -0.1579  -21.9818  -45.1965 C.2       10 UNK         0.5000 
     21 O          -0.1529  -23.1992  -45.3749 O.2       10 UNK        -0.5000 
     22 CA         -0.9580  -21.3968  -44.0193 C.3       10 UNK         0.1400 
     23 CB         -0.0343  -21.0795  -42.8343 C.3       10 UNK        -0.1800 
     24 N          -1.7218  -20.2054  -44.3965 N.am      10 UNK        -0.5000 
     25 C          -2.7184  -20.1998  -45.2941 C.2       9 UNK         0.5000 
     26 O          -3.1345  -21.2141  -45.8520 O.2       9 UNK        -0.5000 
     27 CA         -3.3258  -18.8353  -45.6686 C.3       9 UNK         0.1400 
     28 CB         -4.3822  -18.4065  -44.6402 C.3       9 UNK        -0.1800 
     29 N          -2.3188  -17.7833  -45.8155 N.am      9 UNK        -0.5000 
     30 C          -1.3490  -17.7848  -46.7419 C.2       8 UNK         0.5000 
     31 O          -1.2311  -18.6594  -47.5997 O.2       8 UNK        -0.5000 
     32 CA         -0.3006  -16.6584  -46.6520 C.3       8 UNK         0.1400 
     33 CB         -0.8398  -15.3439  -47.2344 C.3       8 UNK        -0.1800 
     34 N           0.1474  -16.4320  -45.2772 N.am      8 UNK        -0.5000 
     35 C           0.7910  -17.3421  -44.5332 C.2       7 UNK         0.5000 
     36 O           1.1603  -18.4353  -44.9625 O.2       7 UNK        -0.5000 
     37 CA          0.9963  -16.9974  -43.0473 C.3       7 UNK         0.1400 
     38 CB          2.2379  -16.1230  -42.8380 C.3       7 UNK        -0.1800 
     39 N          -0.1694  -16.3207  -42.4812 N.am      7 UNK        -0.5000 
     40 C          -1.3274  -16.9303  -42.1943 C.2       6 UNK         0.5000 
     41 O          -1.5226  -18.1330  -42.3599 O.2       6 UNK        -0.5000 
     42 CA         -2.4690  -16.0427  -41.6655 C.3       6 UNK         0.1400 
     43 CB         -2.3737  -15.8942  -40.1399 C.3       6 UNK        -0.1800 
     44 N          -2.4830  -14.7150  -42.2800 N.am      6 UNK        -0.5000 
     45 C          -2.7348  -14.4809  -43.5756 C.2       5 UNK         0.5000 
     46 O          -3.0265  -15.3613  -44.3838 O.2       5 UNK        -0.5000 
     47 CA         -2.5818  -13.0260  -44.0565 C.3       5 UNK         0.1400 
     48 CB         -3.9046  -12.2625  -43.8961 C.3       5 UNK        -0.1800 
     49 N          -1.5130  -12.3022  -43.3604 N.am      5 UNK        -0.5000 
     50 C          -0.2140  -12.6193  -43.4336 C.2       4 UNK         0.5000 
     51 O           0.2222  -13.5678  -44.0911 O.2       4 UNK        -0.5000 
     52 CA          0.7448  -11.7751  -42.5858 C.3       4 UNK         0.1400 
     53 CB          0.9794  -12.4351  -41.2155 C.3       4 UNK        -0.1800 
     54 N           2.0110  -11.6387  -43.2944 N.am      4 UNK        -0.5000 
     55 C           2.8900  -10.6426  -43.1467 C.2       3 UNK         0.5000 
     56 O           2.7399   -9.7244  -42.3378 O.2       3 UNK        -0.5000 
     57 CA          4.1476  -10.6891  -44.0467 C.3       3 UNK         0.1400 
     58 CB          5.0573   -9.4608  -43.8600 C.3       3 UNK        -0.1800 
     59 N           4.9495  -11.8985  -43.8376 N.am      3 UNK        -0.5000 
     60 C           4.6314  -13.1200  -44.2806 C.2       2 UNK         0.5000 
     61 O           3.6047  -13.3528  -44.9244 O.2       2 UNK        -0.5000 
     62 CA          5.6037  -14.2638  -43.9190 C.3       2 UNK         0.1400 
     63 CB          5.6383  -14.4994  -42.3993 C.3       2 UNK        -0.1800 
     64 N           5.2000  -15.5077  -44.5713 N.am      2 UNK        -0.5000 
     65 C           5.3649  -15.7775  -45.8701 C.2       1 UNK         0.5000 
     66 O           6.1417  -15.1632  -46.6047 O.2       1 UNK        -0.5000 
     67 C           0.1330  -22.0752  -48.2750 C.2       11 UNK         0.5000 
     68 O           0.4269  -23.1253  -48.8449 O.2       11 UNK        -0.5000 
     69 N          -1.0352  -21.4405  -48.4515 N.am      12 UNK        -0.5000 
     70 CA         -2.1120  -21.9251  -49.3171 C.3       12 UNK         0.1400 
     71 CB         -3.2334  -20.8792  -49.3826 C.3       12 UNK        -0.1800 
     72 C          -2.6576  -23.2965  -48.8760 C.2       12 UNK         0.5000 
     73 O          -2.8708  -24.1636  -49.7225 O.2       12 UNK        -0.5000 
     74 N          -2.8278  -23.4886  -47.5610 N.am      13 UNK        -0.5000 
     75 CA         -3.2158  -24.7592  -46.9498 C.3       13 UNK         0.1400 
     76 CB         -3.5310  -24.5467  -45.4622 C.3       13 UNK        -0.1800 
     77 C          -2.1605  -25.8624  -47.1444 C.2       13 UNK         0.5000 
     78 O          -2.5237  -26.9799  -47.5110 O.2       13 UNK        -0.5000 
     79 N          -0.8770  -25.5264  -46.9495 N.am      14 UNK        -0.5000 
     80 CA          0.2623  -26.4208  -47.1803 C.3       14 UNK         0.1400 
     81 CB          1.5488  -25.7623  -46.6596 C.3       14 UNK        -0.1800 
     82 C           0.4172  -26.8306  -48.6582 C.2       14 UNK         0.5000 
     83 O           0.7618  -27.9787  -48.9399 O.2       14 UNK        -0.5000 
     84 N           0.1180  -25.8983  -49.5719 N.am      15 UNK        -0.5000 
     85 CA          0.0654  -26.1135  -51.0190 C.3       15 UNK         0.1400 
     86 CB          0.1393  -24.7469  -51.7207 C.3       15 UNK        -0.1800 
     87 C          -1.1842  -26.8913  -51.4867 C.2       15 UNK         0.5000 
     88 O          -1.2425  -27.2706  -52.6571 O.2       15 UNK        -0.5000 
     89 N          -2.1569  -27.1002  -50.5848 N.am      16 UNK        -0.5000 
     90 CA         -3.4693  -27.7168  -50.8061 C.3       16 UNK         0.1400 
     91 CB         -3.3266  -29.2077  -51.1771 C.3       16 UNK        -0.1800 
     92 C          -4.3351  -26.9163  -51.8023 C.2       16 UNK         0.5000 
     93 O          -5.0302  -27.4999  -52.6362 O.2       16 UNK        -0.5000 
     94 N          -4.2680  -25.5850  -51.6927 N.am      17 UNK        -0.5000 
     95 CA         -4.9311  -24.6161  -52.5596 C.3       17 UNK         0.1400 
     96 CB         -3.9162  -24.0909  -53.5920 C.3       17 UNK        -0.1800 
     97 C          -5.5568  -23.4905  -51.7170 C.2       17 UNK         0.5000 
     98 O          -5.5560  -22.3348  -52.1377 O.2       17 UNK        -0.5000 
     99 N          -6.0905  -23.8404  -50.5367 N.am      18 UNK        -0.5000 
    100 CA        -6.6704  -22.9148  -49.5540 C.3       18 UNK         0.1400 
    101 CB        -7.0645  -23.7046  -48.2968 C.3       18 UNK        -0.1800 
    102 C         -7.8721  -22.0937  -50.0669 C.2       18 UNK         0.5000 
    103 O         -8.1399  -21.0158  -49.5356 O.2       18 UNK        -0.5000 
    104 N         -8.5702  -22.6139  -51.0847 N.am      19 UNK        -0.5000 
    105 CA        -9.6806  -21.9460  -51.7628 C.3       19 UNK         0.1400 
    106 CB       -10.5345  -23.0113  -52.4688 C.3       19 UNK        -0.1800 
    107 C         -9.2269  -20.8681  -52.7696 C.2       19 UNK         0.5000 
    108 O        -10.0454  -20.0300  -53.1517 O.2       19 UNK        -0.5000 
    109 N         -7.9589  -20.9098  -53.2019 N.am      20 UNK        -0.5000 
    110 CA        -7.3737  -19.9543  -54.1402 C.3       20 UNK         0.1400 
    111 CB        -6.2971  -20.6695  -54.9738 C.3       20 UNK        -0.1800 
    112 C         -6.7707  -18.7498  -53.3972 C.2       20 UNK         0.5000 
    113 O         -6.4819  -18.8310  -52.2010 O.2       20 UNK        -0.5000 
    114 N         -6.5580  -17.6594  -54.1389 N.am      21 UNK        -0.5000 
    115 CA        -5.9308  -16.4312  -53.6607 C.3       21 UNK         0.1400 
    116 CB        -7.0242  -15.4512  -53.1927 C.3       21 UNK        -0.1800 
    117 C         -5.0548  -15.8638  -54.7945 C.2       21 UNK         0.5000 
    118 O         -5.4582  -14.8940  -55.4360 O.2       21 UNK        -0.5000 
    119 N         -3.8940  -16.4556  -55.1078 N.am      22 UNK        -0.5000 
    120 CA        -3.2527  -17.6338  -54.4878 C.3       22 UNK         0.1400 
    121 C         -2.9948  -18.7822  -55.5079 C.2       22 UNK         0.5000 
    122 N         -3.4696  -18.6956  -56.7451 N.am      22 UNK        -0.7600 
    123 O         -2.3719  -19.7836  -55.1685 O.2       22 UNK        -0.5000 
    124 C124       -1.9560  -17.2393  -53.7329 C.3       23 UNK        -0.0398 
    125 S125       -2.2827  -16.1117  -52.3340 S.3       23 UNK        -0.2404 
    126 C126       -1.8985  -17.1798  -50.9101 C.3       23 UNK        -0.0205 
    127 H127        6.4088  -20.4420  -46.0734 H         1 UNK         0.0600 
    128 H128        5.3484  -21.0210  -44.7860 H         1 UNK         0.0600 
    129 H129        6.8430  -20.1687  -44.3831 H         1 UNK         0.0600 
    130 H130        5.6695  -18.5823  -47.0396 H         1 UNK         0.3000 
    131 H131        3.5764  -16.9601  -45.8574 H         1 UNK         0.0600 
    132 H132        4.9990  -16.6491  -48.5447 H         1 UNK         0.0800 
    133 H133        3.5964  -17.6425  -48.2303 H         1 UNK         0.0800 
    134 H134        2.3454  -14.4810  -50.3653 H         1 UNK         0.0800 
    135 H135        3.7275  -15.5381  -50.5089 H         1 UNK         0.0800 
    136 H136        0.0593  -15.3618  -50.3918 H         1 UNK         0.1150 
    137 H137       -0.5506  -19.5589  -51.0158 H         1 UNK         0.1150 
    138 H138        3.4106  -18.0287  -50.4588 H         1 UNK         0.1150 
    139 H139        1.2534  -21.0959  -50.8144 H         1 UNK         0.0800 
    140 H140        2.6908  -20.4934  -51.5993 H         1 UNK         0.0800 
    141 H141        1.2080  -19.4774  -48.1748 H         1 UNK         0.0800 
    142 H142        2.5069  -19.8099  -47.0801 H         1 UNK         0.0800 
    143 H143        1.8543  -22.2360  -47.0171 H         1 UNK         0.0600 
    144 H144        0.4428  -20.1235  -45.7595 H         1 UNK         0.3000 
    145 H145       -1.6715  -22.1569  -43.6945 H         1 UNK         0.0600 
    146 H146       -0.6038  -20.7324  -41.9722 H         1 UNK         0.0600 
    147 H147        0.5176  -21.9671  -42.5227 H         1 UNK         0.0600 
    148 H148        0.6967  -20.3113  -43.0849 H         1 UNK         0.0600 
    149 H149       -1.4841  -19.3416  -43.9194 H         1 UNK         0.3000 
    150 H150       -3.8232  -18.9506  -46.6337 H         1 UNK         0.0600 
    151 H151       -5.1610  -19.1638  -44.5425 H         1 UNK         0.0600 
    152 H152       -4.8676  -17.4770  -44.9379 H         1 UNK         0.0600 
    153 H153       -3.9461  -18.2551  -43.6531 H         1 UNK         0.0600 
    154 H154       -2.3876  -16.9953  -45.1776 H         1 UNK         0.3000 
    155 H155        0.5644  -16.9647  -47.2441 H         1 UNK         0.0600 
    156 H156       -1.6859  -14.9633  -46.6635 H         1 UNK         0.0600 
    157 H157       -1.1761  -15.4790  -48.2613 H         1 UNK         0.0600 
    158 H158       -0.0680  -14.5739  -47.2431 H         1 UNK         0.0600 
    159 H159       -0.0768  -15.5350  -44.8616 H         1 UNK         0.3000 
    160 H160        1.1490  -17.9313  -42.5023 H         1 UNK         0.0600 
    161 H161        2.2026  -15.2114  -43.4343 H         1 UNK         0.0600 
    162 H162        3.1352  -16.6696  -43.1178 H         1 UNK         0.0600 
    163 H163        2.3496  -15.8382  -41.7918 H         1 UNK         0.0600 
    164 H164       -0.1058  -15.3193  -42.3741 H         1 UNK         0.3000 
    165 H165       -3.4134  -16.5367  -41.9030 H         1 UNK         0.0600 
    166 H166       -3.2189  -15.3302  -39.7450 H         1 UNK         0.0600 
    167 H167       -2.3794  -16.8700  -39.6523 H         1 UNK         0.0600 
    168 H168       -1.4581  -15.3826  -39.8402 H         1 UNK         0.0600 
    169 H169       -2.2572  -13.9323  -41.6845 H         1 UNK         0.3000 
    170 H170       -2.3310  -13.0548  -45.1189 H         1 UNK         0.0600 
    171 H171       -4.7140  -12.7702  -44.4225 H         1 UNK         0.0600 
    172 H172       -4.1971  -12.1765  -42.8489 H         1 UNK         0.0600 
    173 H173       -3.8318  -11.2562  -44.3089 H         1 UNK         0.0600 
    174 H174       -1.7973  -11.5162  -42.7933 H         1 UNK         0.3000 
    175 H175        0.3038  -10.7862  -42.4433 H         1 UNK         0.0600 
    176 H176        1.4465  -13.4154  -41.3174 H         1 UNK         0.0600 
    177 H177        1.6262  -11.8224  -40.5874 H         1 UNK         0.0600 
    178 H178        0.0405  -12.5705  -40.6774 H         1 UNK         0.0600 
    179 H179        2.2074  -12.3676  -43.9782 H         1 UNK         0.3000 
    180 H180        3.7970  -10.6806  -45.0810 H         1 UNK         0.0600 
    181 H181        5.4597   -9.4068  -42.8477 H         1 UNK         0.0600 
    182 H182        4.5102   -8.5358  -44.0471 H         1 UNK         0.0600 
    183 H183        5.8975   -9.4833  -44.5542 H         1 UNK         0.0600 
    184 H184        5.7873  -11.7833  -43.2859 H         1 UNK         0.3000 
    185 H185        6.6043  -13.9894  -44.2589 H         1 UNK         0.0600 
    186 H186        6.2769  -15.3459  -42.1459 H         1 UNK         0.0600 
    187 H187        6.0346  -13.6304  -41.8731 H         1 UNK         0.0600 
    188 H188        4.6444  -14.6981  -41.9975 H         1 UNK         0.0600 
    189 H189        4.5939  -16.1153  -44.0386 H         1 UNK         0.3000 
    190 H190       -1.1907  -20.5540  -47.9784 H         1 UNK         0.3000 
    191 H191       -1.6964  -22.0376  -50.3204 H         1 UNK         0.0600 
    192 H192       -3.7812  -20.8096  -48.4430 H         1 UNK         0.0600 
    193 H193       -3.9492  -21.1273  -50.1665 H         1 UNK         0.0600 
    194 H194       -2.8380  -19.8903  -49.6071 H         1 UNK         0.0600 
    195 H195       -2.6917  -22.7013  -46.9317 H         1 UNK         0.3000 
    196 H196       -4.1281  -25.0987  -47.4420 H         1 UNK         0.0600 
    197 H197       -3.8503  -25.4782  -44.9935 H         1 UNK         0.0600 
    198 H198       -4.3356  -23.8230  -45.3309 H         1 UNK         0.0600 
    199 H199       -2.6624  -24.1831  -44.9133 H         1 UNK         0.0600 
    200 H200       -0.6597  -24.5952  -46.6043 H         1 UNK         0.3000 
    201 H201        0.0909  -27.3313  -46.6026 H         1 UNK         0.0600 
    202 H202        1.4747  -25.5408  -45.5949 H         1 UNK         0.0600 
    203 H203        1.7634  -24.8291  -47.1807 H         1 UNK         0.0600 
    204 H204        2.4078  -26.4202  -46.7964 H         1 UNK         0.0600 
    205 H205       -0.0742  -24.9530  -49.2508 H         1 UNK         0.3000 
    206 H206        0.9409  -26.6957  -51.3130 H         1 UNK         0.0600 
    207 H207        1.0420  -24.2052  -51.4371 H         1 UNK         0.0600 
    208 H208        0.1565  -24.8614  -52.8051 H         1 UNK         0.0600 
    209 H209       -0.7181  -24.1215  -51.4710 H         1 UNK         0.0600 
    210 H210       -2.0079  -26.7420  -49.6499 H         1 UNK         0.3000 
    211 H211       -3.9901  -27.6677  -49.8489 H         1 UNK         0.0600 
    212 H212       -2.8703  -29.3419  -52.1581 H         1 UNK         0.0600 
    213 H213       -4.3003  -29.6983  -51.2008 H         1 UNK         0.0600 
    214 H214       -2.7150  -29.7375  -50.4467 H         1 UNK         0.0600 
    215 H215       -3.6838  -25.1786  -50.9610 H         1 UNK         0.3000 
    216 H216       -5.7545  -25.0916  -53.0958 H         1 UNK         0.0600 
    217 H217       -4.3867  -23.4013  -54.2939 H         1 UNK         0.0600 
    218 H218       -3.4906  -24.9072  -54.1759 H         1 UNK         0.0600 
    219 H219       -3.0937  -23.5621  -53.1085 H         1 UNK         0.0600 
    220 H220       -6.0504  -24.8131  -50.2704 H         1 UNK         0.3000 
    221 H221       -5.8932  -22.2025  -49.2742 H         1 UNK         0.0600 
    222 H222       -7.8139  -24.4654  -48.5185 H         1 UNK         0.0600 
    223 H223       -6.2025  -24.1999  -47.8538 H         1 UNK         0.0600 
    224 H224       -7.4814  -23.0449  -47.5345 H         1 UNK         0.0600 
    225 H225       -8.2861  -23.5103  -51.4507 H         1 UNK         0.3000 
    226 H226      -10.3043  -21.4533  -51.0138 H         1 UNK         0.0600 
    227 H227      -10.9163  -23.7454  -51.7589 H         1 UNK         0.0600 
    228 H228      -11.3967  -22.5590  -52.9607 H         1 UNK         0.0600 
    229 H229       -9.9643  -23.5443  -53.2307 H         1 UNK         0.0600 
    230 H230       -7.3045  -21.5498  -52.7645 H         1 UNK         0.3000 
    231 H231       -8.1475  -19.5933  -54.8211 H         1 UNK         0.0600 
    232 H232       -5.9419  -20.0302  -55.7822 H         1 UNK         0.0600 
    233 H233       -6.6872  -21.5793  -55.4302 H         1 UNK         0.0600 
    234 H234       -5.4300  -20.9414  -54.3712 H         1 UNK         0.0600 
    235 H235       -6.7952  -17.6726  -55.1216 H         1 UNK         0.3000 
    236 H236       -5.2849  -16.6277  -52.8034 H         1 UNK         0.0600 
    237 H237       -7.5829  -15.8604  -52.3508 H         1 UNK         0.0600 
    238 H238       -6.5873  -14.5074  -52.8642 H         1 UNK         0.0600 
    239 H239       -7.7364  -15.2280  -53.9880 H         1 UNK         0.0600 
    240 H240       -3.3606  -16.0539  -55.8645 H         1 UNK         0.3000 
    241 H241       -3.9136  -18.0929  -53.7556 H         1 UNK         0.0600 
    242 H242       -3.2971  -19.4496  -57.3916 H         1 UNK         0.3800 
    243 H243       -4.0016  -17.8944  -57.0455 H         1 UNK         0.3800 
    244 H244       -1.4395  -18.1246  -53.3589 H         1 UNK         0.0800 
    245 H245       -1.2554  -16.7501  -54.4113 H         1 UNK         0.0800 
    246 H246       -2.4449  -18.1170  -51.0163 H         1 UNK         0.0800 
    247 H247       -2.2711  -16.7102  -49.9995 H         1 UNK         0.0800 
@<TRIPOS>BOND
     1    1    2 1    
     2    1  127 1    
     3    1  128 1    
     4    1  129 1    
     5    2    3 2    
     6    2    4 am   BACKBONE|DICT|INTERRES
     7    4    5 1    
     8    4  130 1    
     9    5    6 1    
    10    5   65 1    
    11    5  131 1    
    12    6    7 1    
    13    6  132 1    
    14    6  133 1    
    15    7    8 1    
    16    8    9 1    
    17    8  134 1    
    18    8  135 1    
    19    9   10 ar   
    20    9   14 ar   
    21   10   11 ar   
    22   10  136 1    
    23   11   12 ar   
    24   11  126 1    
    25   12   13 ar   
    26   12  137 1    
    27   13   14 ar   
    28   13   15 1    
    29   14  138 1    
    30   15   16 1    
    31   15  139 1    
    32   15  140 1    
    33   16   17 1    
    34   17   18 1    
    35   17  141 1    
    36   17  142 1    
    37   18   19 1    
    38   18   67 1    
    39   18  143 1    
    40   19   20 am   BACKBONE|DICT|INTERRES
    41   19  144 1    
    42   20   21 2    
    43   20   22 1    
    44   22   23 1    
    45   22   24 1    
    46   22  145 1    
    47   23  146 1    
    48   23  147 1    
    49   23  148 1    
    50   24   25 am   BACKBONE|DICT|INTERRES
    51   24  149 1    
    52   25   26 2    
    53   25   27 1    
    54   27   28 1    
    55   27   29 1    
    56   27  150 1    
    57   28  151 1    
    58   28  152 1    
    59   28  153 1    
    60   29   30 am   BACKBONE|DICT|INTERRES
    61   29  154 1    
    62   30   31 2    
    63   30   32 1    
    64   32   33 1    
    65   32   34 1    
    66   32  155 1    
    67   33  156 1    
    68   33  157 1    
    69   33  158 1    
    70   34   35 am   BACKBONE|DICT|INTERRES
    71   34  159 1    
    72   35   36 2    
    73   35   37 1    
    74   37   38 1    
    75   37   39 1    
    76   37  160 1    
    77   38  161 1    
    78   38  162 1    
    79   38  163 1    
    80   39   40 am   BACKBONE|DICT|INTERRES
    81   39  164 1    
    82   40   41 2    
    83   40   42 1    
    84   42   43 1    
    85   42   44 1    
    86   42  165 1    
    87   43  166 1    
    88   43  167 1    
    89   43  168 1    
    90   44   45 am   BACKBONE|DICT|INTERRES
    91   44  169 1    
    92   45   46 2    
    93   45   47 1    
    94   47   48 1    
    95   47   49 1    
    96   47  170 1    
    97   48  171 1    
    98   48  172 1    
    99   48  173 1    
   100   49   50 am   BACKBONE|DICT|INTERRES
   101   49  174 1    
   102   50   51 2    
   103   50   52 1    
   104   52   53 1    
   105   52   54 1    
   106   52  175 1    
   107   53  176 1    
   108   53  177 1    
   109   53  178 1    
   110   54   55 am   BACKBONE|DICT|INTERRES
   111   54  179 1    
   112   55   56 2    
   113   55   57 1    
   114   57   58 1    
   115   57   59 1    
   116   57  180 1    
   117   58  181 1    
   118   58  182 1    
   119   58  183 1    
   120   59   60 am   BACKBONE|DICT|INTERRES
   121   59  184 1    
   122   60   61 2    
   123   60   62 1    
   124   62   63 1    
   125   62   64 1    
   126   62  185 1    
   127   63  186 1    
   128   63  187 1    
   129   63  188 1    
   130   64   65 am   BACKBONE|DICT|INTERRES
   131   64  189 1    
   132   65   66 2    
   133   67   68 2    
   134   67   69 am   BACKBONE|DICT|INTERRES
   135   69   70 1    
   136   69  190 1    
   137   70   71 1    
   138   70   72 1    
   139   70  191 1    
   140   71  192 1    
   141   71  193 1    
   142   71  194 1    
   143   72   73 2    
   144   72   74 am   BACKBONE|DICT|INTERRES
   145   74   75 1    
   146   74  195 1    
   147   75   76 1    
   148   75   77 1    
   149   75  196 1    
   150   76  197 1    
   151   76  198 1    
   152   76  199 1    
   153   77   78 2    
   154   77   79 am   BACKBONE|DICT|INTERRES
   155   79   80 1    
   156   79  200 1    
   157   80   81 1    
   158   80   82 1    
   159   80  201 1    
   160   81  202 1    
   161   81  203 1    
   162   81  204 1    
   163   82   83 2    
   164   82   84 am   BACKBONE|DICT|INTERRES
   165   84   85 1    
   166   84  205 1    
   167   85   86 1    
   168   85   87 1    
   169   85  206 1    
   170   86  207 1    
   171   86  208 1    
   172   86  209 1    
   173   87   88 2    
   174   87   89 am   BACKBONE|DICT|INTERRES
   175   89   90 1    
   176   89  210 1    
   177   90   91 1    
   178   90   92 1    
   179   90  211 1    
   180   91  212 1    
   181   91  213 1    
   182   91  214 1    
   183   92   93 2    
   184   92   94 am   BACKBONE|DICT|INTERRES
   185   94   95 1    
   186   94  215 1    
   187   95   96 1    
   188   95   97 1    
   189   95  216 1    
   190   96  217 1    
   191   96  218 1    
   192   96  219 1    
   193   97   98 2    
   194   97   99 am   BACKBONE|DICT|INTERRES
   195   99  100 1    
   196   99  220 1    
   197  100  101 1    
   198  100  102 1    
   199  100  221 1    
   200  101  222 1    
   201  101  223 1    
   202  101  224 1    
   203  102  103 2    
   204  102  104 am   BACKBONE|DICT|INTERRES
   205  104  105 1    
   206  104  225 1    
   207  105  106 1    
   208  105  107 1    
   209  105  226 1    
   210  106  227 1    
   211  106  228 1    
   212  106  229 1    
   213  107  108 2    
   214  107  109 am   BACKBONE|DICT|INTERRES
   215  109  110 1    
   216  109  230 1    
   217  110  111 1    
   218  110  112 1    
   219  110  231 1    
   220  111  232 1    
   221  111  233 1    
   222  111  234 1    
   223  112  113 2    
   224  112  114 am   BACKBONE|DICT|INTERRES
   225  114  115 1    
   226  114  235 1    
   227  115  116 1    
   228  115  117 1    
   229  115  236 1    
   230  116  237 1    
   231  116  238 1    
   232  116  239 1    
   233  117  118 2    
   234  117  119 am   BACKBONE|DICT|INTERRES
   235  119  120 1    
   236  119  240 1    
   237  120  121 1    
   238  120  124 1    
   239  120  241 1    
   240  121  122 am   BACKBONE|DICT|INTERRES
   241  121  123 2    
   242  122  242 1    
   243  122  243 1    
   244  124  125 1    
   245  124  244 1    
   246  124  245 1    
   247  125  126 1    
   248  126  246 1    
   249  126  247 1    
@<TRIPOS>SUBSTRUCTURE
     1 UNK         1 GROUP             0       ****    0 ROOT    
