@<TRIPOS>MOLECULE
3R540
247   249    1
SMALL
USER_CHARGES


@<TRIPOS>ATOM
      1 CA         -4.4624  -13.7522  -47.0535 C.3       0 UNK        -0.1800 
      2 C          -3.0196  -14.0406  -46.6661 C.2       0 UNK         0.5000 
      3 O          -2.4547  -13.3346  -45.8329 O.2       0 UNK        -0.5000 
      4 N          -2.4253  -15.0888  -47.2496 N.am      1 UNK        -0.5000 
      5 CA         -1.0392  -15.5254  -47.0213 C.3       1 UNK         0.1400 
      6 C6         -0.6011  -16.5908  -48.0567 C.3       23 UNK        -0.0398 
      7 S7         -1.6666  -18.0771  -48.0563 S.3       23 UNK        -0.2404 
      8 C8         -1.8854  -18.3762  -49.8426 C.3       23 UNK        -0.0205 
      9 C9         -0.7002  -19.0243  -50.5584 C.ar      23 UNK        -0.0193 
     10 C10        -0.6399  -18.9542  -51.9540 C.ar      23 UNK        -0.1150 
     11 C11         0.4010  -19.5659  -52.6594 C.ar      23 UNK        -0.0193 
     12 C12         1.3786  -20.2769  -51.9579 C.ar      23 UNK        -0.1150 
     13 C13         1.3265  -20.3719  -50.5648 C.ar      23 UNK        -0.0193 
     14 C14         0.2952  -19.7318  -49.8730 C.ar      23 UNK        -0.1150 
     15 C15         2.3828  -21.1691  -49.8129 C.3       23 UNK        -0.0205 
     16 S16         1.7297  -22.7591  -49.2044 S.3       23 UNK        -0.2404 
     17 C17         1.3545  -22.3340  -47.4732 C.3       23 UNK        -0.0398 
     18 CA          0.4220  -23.3482  -46.7698 C.3       11 UNK         0.1400 
     19 N           0.6487  -23.3497  -45.3239 N.am      11 UNK        -0.5000 
     20 C           0.2940  -24.3323  -44.4859 C.2       10 UNK         0.5000 
     21 O          -0.2231  -25.3870  -44.8492 O.2       10 UNK        -0.5000 
     22 CA          0.5372  -24.0799  -42.9847 C.3       10 UNK         0.1400 
     23 CB          1.9273  -24.5860  -42.5725 C.3       10 UNK        -0.1800 
     24 N           0.4114  -22.6667  -42.6187 N.am      10 UNK        -0.5000 
     25 C          -0.7409  -21.9825  -42.6392 C.2       9 UNK         0.5000 
     26 O          -1.8263  -22.4869  -42.9218 O.2       9 UNK        -0.5000 
     27 CA         -0.6591  -20.4704  -42.3616 C.3       9 UNK         0.1400 
     28 CB         -0.7784  -20.1769  -40.8600 C.3       9 UNK        -0.1800 
     29 N           0.5583  -19.8448  -42.8835 N.am      9 UNK        -0.5000 
     30 C           0.9001  -19.7881  -44.1774 C.2       8 UNK         0.5000 
     31 O           0.2376  -20.3183  -45.0709 O.2       8 UNK        -0.5000 
     32 CA          2.1921  -19.0193  -44.5167 C.3       8 UNK         0.1400 
     33 CB          2.3655  -18.7919  -46.0280 C.3       8 UNK        -0.1800 
     34 N           2.2363  -17.7234  -43.8408 N.am      8 UNK        -0.5000 
     35 C           2.7208  -17.5021  -42.6132 C.2       7 UNK         0.5000 
     36 O           3.1126  -18.4097  -41.8774 O.2       7 UNK        -0.5000 
     37 CA          2.7430  -16.0402  -42.1169 C.3       7 UNK         0.1400 
     38 CB          3.8106  -15.7962  -41.0308 C.3       7 UNK        -0.1800 
     39 N           2.8661  -15.0429  -43.1855 N.am      7 UNK        -0.5000 
     40 C           3.8617  -14.8986  -44.0734 C.2       6 UNK         0.5000 
     41 O           4.8398  -15.6442  -44.1362 O.2       6 UNK        -0.5000 
     42 CA          3.7725  -13.7010  -45.0359 C.3       6 UNK         0.1400 
     43 CB          2.9387  -14.0392  -46.2817 C.3       6 UNK        -0.1800 
     44 N           3.2108  -12.5182  -44.3801 N.am      6 UNK        -0.5000 
     45 C           3.7576  -11.2948  -44.4006 C.2       5 UNK         0.5000 
     46 O           4.7808  -11.0128  -45.0262 O.2       5 UNK        -0.5000 
     47 CA          3.0538  -10.1892  -43.5830 C.3       5 UNK         0.1400 
     48 CB          2.1381   -9.3536  -44.4908 C.3       5 UNK        -0.1800 
     49 N           2.2646  -10.6995  -42.4606 N.am      5 UNK        -0.5000 
     50 C           2.7631  -11.3335  -41.3909 C.2       4 UNK         0.5000 
     51 O           3.9694  -11.4533  -41.1745 O.2       4 UNK        -0.5000 
     52 CA          1.7569  -11.9632  -40.4032 C.3       4 UNK         0.1400 
     53 CB          1.6908  -11.1345  -39.1107 C.3       4 UNK        -0.1800 
     54 N           0.3874  -12.1671  -40.8982 N.am      4 UNK        -0.5000 
     55 C           0.0220  -12.8538  -41.9890 C.2       3 UNK         0.5000 
     56 O           0.8128  -13.2651  -42.8407 O.2       3 UNK        -0.5000 
     57 CA         -1.4864  -13.0887  -42.1752 C.3       3 UNK         0.1400 
     58 CB         -2.1235  -11.8972  -42.9050 C.3       3 UNK        -0.1800 
     59 N          -1.7474  -14.3170  -42.9284 N.am      3 UNK        -0.5000 
     60 C          -1.4995  -15.5548  -42.4704 C.2       2 UNK         0.5000 
     61 O          -1.0898  -15.7882  -41.3325 O.2       2 UNK        -0.5000 
     62 CA         -1.7535  -16.7405  -43.4228 C.3       2 UNK         0.1400 
     63 CB         -3.0586  -17.4594  -43.0494 C.3       2 UNK        -0.1800 
     64 N          -1.8130  -16.3580  -44.8320 N.am      2 UNK        -0.5000 
     65 C          -0.7581  -15.9931  -45.5732 C.2       1 UNK         0.5000 
     66 O           0.3987  -16.0023  -45.1533 O.2       1 UNK        -0.5000 
     67 C          -1.0674  -23.0881  -47.0750 C.2       11 UNK         0.5000 
     68 O          -1.6645  -23.8032  -47.8806 O.2       11 UNK        -0.5000 
     69 N          -1.6642  -22.1165  -46.3673 N.am      12 UNK        -0.5000 
     70 CA         -3.0963  -21.8155  -46.4081 C.3       12 UNK         0.1400 
     71 CB         -3.3916  -20.5879  -45.5345 C.3       12 UNK        -0.1800 
     72 C          -3.9618  -23.0174  -45.9814 C.2       12 UNK         0.5000 
     73 O          -4.9313  -23.3400  -46.6685 O.2       12 UNK        -0.5000 
     74 N          -3.5527  -23.6983  -44.8998 N.am      13 UNK        -0.5000 
     75 CA         -4.1591  -24.9337  -44.3933 C.3       13 UNK         0.1400 
     76 CB         -3.5542  -25.2719  -43.0229 C.3       13 UNK        -0.1800 
     77 C          -4.0222  -26.1345  -45.3517 C.2       13 UNK         0.5000 
     78 O          -4.8682  -27.0283  -45.3207 O.2       13 UNK        -0.5000 
     79 N          -2.9970  -26.1170  -46.2153 N.am      14 UNK        -0.5000 
     80 CA         -2.7910  -27.0684  -47.3119 C.3       14 UNK         0.1400 
     81 CB         -1.2855  -27.1890  -47.6057 C.3       14 UNK        -0.1800 
     82 C          -3.5985  -26.7060  -48.5803 C.2       14 UNK         0.5000 
     83 O          -3.3700  -27.3026  -49.6329 O.2       14 UNK        -0.5000 
     84 N          -4.5326  -25.7519  -48.4533 N.am      15 UNK        -0.5000 
     85 CA         -5.5005  -25.2755  -49.4417 C.3       15 UNK         0.1400 
     86 CB         -6.3330  -26.4253  -50.0468 C.3       15 UNK        -0.1800 
     87 C          -4.9131  -24.3391  -50.5108 C.2       15 UNK         0.5000 
     88 O          -5.6114  -24.0353  -51.4789 O.2       15 UNK        -0.5000 
     89 N          -3.6939  -23.8151  -50.3066 N.am      16 UNK        -0.5000 
     90 CA         -3.0820  -22.8189  -51.1974 C.3       16 UNK         0.1400 
     91 CB         -1.5978  -22.6499  -50.8524 C.3       16 UNK        -0.1800 
     92 C          -3.8020  -21.4544  -51.1714 C.2       16 UNK         0.5000 
     93 O          -3.6255  -20.6593  -52.0907 O.2       16 UNK        -0.5000 
     94 N          -4.6224  -21.2120  -50.1384 N.am      17 UNK        -0.5000 
     95 CA         -5.5282  -20.0659  -50.0496 C.3       17 UNK         0.1400 
     96 CB         -6.0239  -19.9330  -48.6023 C.3       17 UNK        -0.1800 
     97 C          -6.7105  -20.1583  -51.0353 C.2       17 UNK         0.5000 
     98 O          -7.2265  -19.1206  -51.4511 O.2       17 UNK        -0.5000 
     99 N          -7.1084  -21.3854  -51.4003 N.am      18 UNK        -0.5000 
    100 CA        -8.1075  -21.6580  -52.4313 C.3       18 UNK         0.1400 
    101 CB        -8.9123  -22.9123  -52.0527 C.3       18 UNK        -0.1800 
    102 C         -7.4164  -21.8284  -53.7926 C.2       18 UNK         0.5000 
    103 O         -7.7725  -21.1458  -54.7537 O.2       18 UNK        -0.5000 
    104 N         -6.4013  -22.7007  -53.8394 N.am      19 UNK        -0.5000 
    105 CA        -5.5616  -22.9769  -55.0039 C.3       19 UNK         0.1400 
    106 CB        -5.0407  -24.4218  -54.8998 C.3       19 UNK        -0.1800 
    107 C         -4.4240  -21.9431  -55.1289 C.2       19 UNK         0.5000 
    108 O         -3.2493  -22.3121  -55.1963 O.2       19 UNK        -0.5000 
    109 N         -4.7901  -20.6557  -55.1529 N.am      20 UNK        -0.5000 
    110 CA        -3.8880  -19.5022  -55.1813 C.3       20 UNK         0.1400 
    111 CB        -4.6323  -18.2808  -54.6139 C.3       20 UNK        -0.1800 
    112 C         -3.3005  -19.2493  -56.5857 C.2       20 UNK         0.5000 
    113 O         -3.3988  -18.1415  -57.1177 O.2       20 UNK        -0.5000 
    114 N         -2.6881  -20.2905  -57.1640 N.am      21 UNK        -0.5000 
    115 CA        -2.1026  -20.3173  -58.5080 C.3       21 UNK         0.1400 
    116 CB        -1.6512  -21.7523  -58.8191 C.3       21 UNK        -0.1800 
    117 C         -0.9384  -19.3273  -58.7112 C.2       21 UNK         0.5000 
    118 O         -0.6555  -18.9498  -59.8489 O.2       21 UNK        -0.5000 
    119 N         -0.3015  -18.9146  -57.6089 N.am      22 UNK        -0.5000 
    120 CA         0.7110  -17.8524  -57.5659 C.3       22 UNK         0.1400 
    121 C          0.1482  -16.4053  -57.7186 C.2       22 UNK         0.5000 
    122 N         -1.1622  -16.1843  -57.6869 N.am      22 UNK        -0.7600 
    123 O          0.9191  -15.4641  -57.8865 O.2       22 UNK        -0.5000 
    124 C124        1.6357  -18.0063  -56.3307 C.3       23 UNK        -0.0398 
    125 S125        0.8108  -17.7642  -54.7147 S.3       23 UNK        -0.2404 
    126 C126        0.4662  -19.4706  -54.1771 C.3       23 UNK        -0.0205 
    127 H127       -4.5422  -12.7533  -47.4822 H         1 UNK         0.0600 
    128 H128       -5.1032  -13.7987  -46.1730 H         1 UNK         0.0600 
    129 H129       -4.8368  -14.4681  -47.7857 H         1 UNK         0.0600 
    130 H130       -2.9467  -15.6492  -47.9089 H         1 UNK         0.3000 
    131 H131       -0.4070  -14.6485  -47.1762 H         1 UNK         0.0600 
    132 H132       -0.6131  -16.1431  -49.0510 H         1 UNK         0.0800 
    133 H133        0.4338  -16.8926  -47.8943 H         1 UNK         0.0800 
    134 H134       -2.1611  -17.4428  -50.3355 H         1 UNK         0.0800 
    135 H135       -2.7349  -19.0438  -49.9553 H         1 UNK         0.0800 
    136 H136       -1.4094  -18.4238  -52.4976 H         1 UNK         0.1150 
    137 H137        2.1786  -20.7638  -52.4976 H         1 UNK         0.1150 
    138 H138        0.2591  -19.8090  -48.7988 H         1 UNK         0.1150 
    139 H139        2.7775  -20.5752  -48.9875 H         1 UNK         0.0800 
    140 H140        3.2326  -21.3753  -50.4652 H         1 UNK         0.0800 
    141 H141        0.9495  -21.3257  -47.4104 H         1 UNK         0.0800 
    142 H142        2.3155  -22.2971  -46.9579 H         1 UNK         0.0800 
    143 H143        0.6649  -24.3482  -47.1365 H         1 UNK         0.0600 
    144 H144        1.0015  -22.4901  -44.9291 H         1 UNK         0.3000 
    145 H145       -0.2115  -24.6456  -42.4263 H         1 UNK         0.0600 
    146 H146        2.0440  -25.6438  -42.8124 H         1 UNK         0.0600 
    147 H147        2.0839  -24.4785  -41.4991 H         1 UNK         0.0600 
    148 H148        2.7229  -24.0435  -43.0848 H         1 UNK         0.0600 
    149 H149        1.2596  -22.1783  -42.3718 H         1 UNK         0.3000 
    150 H150       -1.5078  -20.0049  -42.8649 H         1 UNK         0.0600 
    151 H151        0.0650  -20.5843  -40.3013 H         1 UNK         0.0600 
    152 H152       -1.6890  -20.6140  -40.4478 H         1 UNK         0.0600 
    153 H153       -0.8203  -19.1037  -40.6714 H         1 UNK         0.0600 
    154 H154        1.1803  -19.4119  -42.2120 H         1 UNK         0.3000 
    155 H155        3.0313  -19.6298  -44.1778 H         1 UNK         0.0600 
    156 H156        1.4925  -18.3051  -46.4599 H         1 UNK         0.0600 
    157 H157        2.5095  -19.7362  -46.5511 H         1 UNK         0.0600 
    158 H158        3.2361  -18.1707  -46.2391 H         1 UNK         0.0600 
    159 H159        1.8193  -16.9444  -44.3460 H         1 UNK         0.3000 
    160 H160        1.7673  -15.8665  -41.6613 H         1 UNK         0.0600 
    161 H161        4.8136  -16.0229  -41.3937 H         1 UNK         0.0600 
    162 H162        3.6302  -16.4207  -40.1551 H         1 UNK         0.0600 
    163 H163        3.8033  -14.7593  -40.6953 H         1 UNK         0.0600 
    164 H164        2.0788  -14.3985  -43.2347 H         1 UNK         0.3000 
    165 H165        4.7948  -13.5000  -45.3630 H         1 UNK         0.0600 
    166 H166        3.2307  -14.9997  -46.7087 H         1 UNK         0.0600 
    167 H167        1.8759  -14.0870  -46.0489 H         1 UNK         0.0600 
    168 H168        3.0718  -13.2830  -47.0553 H         1 UNK         0.0600 
    169 H169        2.3703  -12.6612  -43.8287 H         1 UNK         0.3000 
    170 H170        3.8289   -9.5342  -43.1799 H         1 UNK         0.0600 
    171 H171        1.6941   -8.5208  -43.9452 H         1 UNK         0.0600 
    172 H172        1.3280   -9.9545  -44.9064 H         1 UNK         0.0600 
    173 H173        2.6966   -8.9316  -45.3274 H         1 UNK         0.0600 
    174 H174        1.2611  -10.6571  -42.5572 H         1 UNK         0.3000 
    175 H175        2.1491  -12.9500  -40.1506 H         1 UNK         0.0600 
    176 H176        2.6844  -10.9893  -38.6843 H         1 UNK         0.0600 
    177 H177        1.2631  -10.1472  -39.2897 H         1 UNK         0.0600 
    178 H178        1.0857  -11.6314  -38.3521 H         1 UNK         0.0600 
    179 H179       -0.3429  -11.8351  -40.2847 H         1 UNK         0.3000 
    180 H180       -1.9525  -13.1883  -41.1927 H         1 UNK         0.0600 
    181 H181       -1.6431  -11.7113  -43.8664 H         1 UNK         0.0600 
    182 H182       -2.0356  -10.9842  -42.3151 H         1 UNK         0.0600 
    183 H183       -3.1851  -12.0652  -43.0876 H         1 UNK         0.0600 
    184 H184       -2.0240  -14.1966  -43.8955 H         1 UNK         0.3000 
    185 H185       -0.9274  -17.4415  -43.2946 H         1 UNK         0.0600 
    186 H186       -3.0285  -17.8138  -42.0181 H         1 UNK         0.0600 
    187 H187       -3.9222  -16.8003  -43.1458 H         1 UNK         0.0600 
    188 H188       -3.2277  -18.3277  -43.6849 H         1 UNK         0.0600 
    189 H189       -2.7265  -16.3279  -45.2596 H         1 UNK         0.3000 
    190 H190       -1.0931  -21.5401  -45.7557 H         1 UNK         0.3000 
    191 H191       -3.3478  -21.5674  -47.4409 H         1 UNK         0.0600 
    192 H192       -2.7870  -19.7326  -45.8348 H         1 UNK         0.0600 
    193 H193       -4.4384  -20.2937  -45.6154 H         1 UNK         0.0600 
    194 H194       -3.1901  -20.7834  -44.4820 H         1 UNK         0.0600 
    195 H195       -2.7800  -23.3241  -44.3553 H         1 UNK         0.3000 
    196 H196       -5.2260  -24.7459  -44.2571 H         1 UNK         0.0600 
    197 H197       -4.0096  -26.1703  -42.6042 H         1 UNK         0.0600 
    198 H198       -3.7160  -24.4638  -42.3094 H         1 UNK         0.0600 
    199 H199       -2.4809  -25.4494  -43.0921 H         1 UNK         0.0600 
    200 H200       -2.3417  -25.3477  -46.1708 H         1 UNK         0.3000 
    201 H201       -3.1398  -28.0515  -46.9896 H         1 UNK         0.0600 
    202 H202       -1.0912  -27.9725  -48.3390 H         1 UNK         0.0600 
    203 H203       -0.7274  -27.4460  -46.7053 H         1 UNK         0.0600 
    204 H204       -0.8718  -26.2632  -48.0031 H         1 UNK         0.0600 
    205 H205       -4.5899  -25.2790  -47.5595 H         1 UNK         0.3000 
    206 H206       -6.1944  -24.6540  -48.8742 H         1 UNK         0.0600 
    207 H207       -6.7395  -27.0717  -49.2690 H         1 UNK         0.0600 
    208 H208       -7.1777  -26.0368  -50.6170 H         1 UNK         0.0600 
    209 H209       -5.7438  -27.0419  -50.7257 H         1 UNK         0.0600 
    210 H210       -3.1649  -24.0787  -49.4825 H         1 UNK         0.3000 
    211 H211       -3.1458  -23.2006  -52.2186 H         1 UNK         0.0600 
    212 H212       -1.0901  -22.0634  -51.6185 H         1 UNK         0.0600 
    213 H213       -1.0868  -23.6104  -50.7864 H         1 UNK         0.0600 
    214 H214       -1.4623  -22.1270  -49.9060 H         1 UNK         0.0600 
    215 H215       -4.6995  -21.9127  -49.4168 H         1 UNK         0.3000 
    216 H216       -4.9758  -19.1597  -50.3028 H         1 UNK         0.0600 
    217 H217       -5.1943  -19.7402  -47.9225 H         1 UNK         0.0600 
    218 H218       -6.5350  -20.8356  -48.2649 H         1 UNK         0.0600 
    219 H219       -6.7225  -19.1013  -48.5023 H         1 UNK         0.0600 
    220 H220       -6.5934  -22.1857  -51.0581 H         1 UNK         0.3000 
    221 H221       -8.8072  -20.8228  -52.5067 H         1 UNK         0.0600 
    222 H222       -8.2786  -23.7942  -51.9544 H         1 UNK         0.0600 
    223 H223       -9.4344  -22.7712  -51.1063 H         1 UNK         0.0600 
    224 H224       -9.6658  -23.1334  -52.8096 H         1 UNK         0.0600 
    225 H225       -6.1506  -23.2017  -52.9892 H         1 UNK         0.3000 
    226 H226       -6.1671  -22.9058  -55.9097 H         1 UNK         0.0600 
    227 H227       -5.8641  -25.1334  -54.8374 H         1 UNK         0.0600 
    228 H228       -4.4467  -24.6889  -55.7747 H         1 UNK         0.0600 
    229 H229       -4.4126  -24.5611  -54.0191 H         1 UNK         0.0600 
    230 H230       -5.7816  -20.4523  -55.1144 H         1 UNK         0.3000 
    231 H231       -3.0434  -19.7060  -54.5204 H         1 UNK         0.0600 
    232 H232       -5.4959  -18.0156  -55.2248 H         1 UNK         0.0600 
    233 H233       -3.9779  -17.4094  -54.5675 H         1 UNK         0.0600 
    234 H234       -4.9843  -18.4737  -53.5999 H         1 UNK         0.0600 
    235 H235       -2.6643  -21.1596  -56.6377 H         1 UNK         0.3000 
    236 H236       -2.8878  -20.0427  -59.2152 H         1 UNK         0.0600 
    237 H237       -0.8841  -22.0915  -58.1217 H         1 UNK         0.0600 
    238 H238       -2.4872  -22.4499  -58.7635 H         1 UNK         0.0600 
    239 H239       -1.2361  -21.8236  -59.8254 H         1 UNK         0.0600 
    240 H240       -0.6158  -19.2653  -56.7181 H         1 UNK         0.3000 
    241 H241        1.3492  -17.9953  -58.4401 H         1 UNK         0.0600 
    242 H242       -1.8238  -16.9394  -57.5432 H         1 UNK         0.3800 
    243 H243       -1.5040  -15.2427  -57.7944 H         1 UNK         0.3800 
    244 H244        2.1181  -18.9839  -56.3527 H         1 UNK         0.0800 
    245 H245        2.4540  -17.2871  -56.3930 H         1 UNK         0.0800 
    246 H246       -0.4806  -19.8057  -54.6015 H         1 UNK         0.0800 
    247 H247        1.2333  -20.1444  -54.5611 H         1 UNK         0.0800 
@<TRIPOS>BOND
     1    1    2 1    
     2    1  127 1    
     3    1  128 1    
     4    1  129 1    
     5    2    3 2    
     6    2    4 am   BACKBONE|DICT|INTERRES
     7    4    5 1    
     8    4  130 1    
     9    5    6 1    
    10    5   65 1    
    11    5  131 1    
    12    6    7 1    
    13    6  132 1    
    14    6  133 1    
    15    7    8 1    
    16    8    9 1    
    17    8  134 1    
    18    8  135 1    
    19    9   10 ar   
    20    9   14 ar   
    21   10   11 ar   
    22   10  136 1    
    23   11   12 ar   
    24   11  126 1    
    25   12   13 ar   
    26   12  137 1    
    27   13   14 ar   
    28   13   15 1    
    29   14  138 1    
    30   15   16 1    
    31   15  139 1    
    32   15  140 1    
    33   16   17 1    
    34   17   18 1    
    35   17  141 1    
    36   17  142 1    
    37   18   19 1    
    38   18   67 1    
    39   18  143 1    
    40   19   20 am   BACKBONE|DICT|INTERRES
    41   19  144 1    
    42   20   21 2    
    43   20   22 1    
    44   22   23 1    
    45   22   24 1    
    46   22  145 1    
    47   23  146 1    
    48   23  147 1    
    49   23  148 1    
    50   24   25 am   BACKBONE|DICT|INTERRES
    51   24  149 1    
    52   25   26 2    
    53   25   27 1    
    54   27   28 1    
    55   27   29 1    
    56   27  150 1    
    57   28  151 1    
    58   28  152 1    
    59   28  153 1    
    60   29   30 am   BACKBONE|DICT|INTERRES
    61   29  154 1    
    62   30   31 2    
    63   30   32 1    
    64   32   33 1    
    65   32   34 1    
    66   32  155 1    
    67   33  156 1    
    68   33  157 1    
    69   33  158 1    
    70   34   35 am   BACKBONE|DICT|INTERRES
    71   34  159 1    
    72   35   36 2    
    73   35   37 1    
    74   37   38 1    
    75   37   39 1    
    76   37  160 1    
    77   38  161 1    
    78   38  162 1    
    79   38  163 1    
    80   39   40 am   BACKBONE|DICT|INTERRES
    81   39  164 1    
    82   40   41 2    
    83   40   42 1    
    84   42   43 1    
    85   42   44 1    
    86   42  165 1    
    87   43  166 1    
    88   43  167 1    
    89   43  168 1    
    90   44   45 am   BACKBONE|DICT|INTERRES
    91   44  169 1    
    92   45   46 2    
    93   45   47 1    
    94   47   48 1    
    95   47   49 1    
    96   47  170 1    
    97   48  171 1    
    98   48  172 1    
    99   48  173 1    
   100   49   50 am   BACKBONE|DICT|INTERRES
   101   49  174 1    
   102   50   51 2    
   103   50   52 1    
   104   52   53 1    
   105   52   54 1    
   106   52  175 1    
   107   53  176 1    
   108   53  177 1    
   109   53  178 1    
   110   54   55 am   BACKBONE|DICT|INTERRES
   111   54  179 1    
   112   55   56 2    
   113   55   57 1    
   114   57   58 1    
   115   57   59 1    
   116   57  180 1    
   117   58  181 1    
   118   58  182 1    
   119   58  183 1    
   120   59   60 am   BACKBONE|DICT|INTERRES
   121   59  184 1    
   122   60   61 2    
   123   60   62 1    
   124   62   63 1    
   125   62   64 1    
   126   62  185 1    
   127   63  186 1    
   128   63  187 1    
   129   63  188 1    
   130   64   65 am   BACKBONE|DICT|INTERRES
   131   64  189 1    
   132   65   66 2    
   133   67   68 2    
   134   67   69 am   BACKBONE|DICT|INTERRES
   135   69   70 1    
   136   69  190 1    
   137   70   71 1    
   138   70   72 1    
   139   70  191 1    
   140   71  192 1    
   141   71  193 1    
   142   71  194 1    
   143   72   73 2    
   144   72   74 am   BACKBONE|DICT|INTERRES
   145   74   75 1    
   146   74  195 1    
   147   75   76 1    
   148   75   77 1    
   149   75  196 1    
   150   76  197 1    
   151   76  198 1    
   152   76  199 1    
   153   77   78 2    
   154   77   79 am   BACKBONE|DICT|INTERRES
   155   79   80 1    
   156   79  200 1    
   157   80   81 1    
   158   80   82 1    
   159   80  201 1    
   160   81  202 1    
   161   81  203 1    
   162   81  204 1    
   163   82   83 2    
   164   82   84 am   BACKBONE|DICT|INTERRES
   165   84   85 1    
   166   84  205 1    
   167   85   86 1    
   168   85   87 1    
   169   85  206 1    
   170   86  207 1    
   171   86  208 1    
   172   86  209 1    
   173   87   88 2    
   174   87   89 am   BACKBONE|DICT|INTERRES
   175   89   90 1    
   176   89  210 1    
   177   90   91 1    
   178   90   92 1    
   179   90  211 1    
   180   91  212 1    
   181   91  213 1    
   182   91  214 1    
   183   92   93 2    
   184   92   94 am   BACKBONE|DICT|INTERRES
   185   94   95 1    
   186   94  215 1    
   187   95   96 1    
   188   95   97 1    
   189   95  216 1    
   190   96  217 1    
   191   96  218 1    
   192   96  219 1    
   193   97   98 2    
   194   97   99 am   BACKBONE|DICT|INTERRES
   195   99  100 1    
   196   99  220 1    
   197  100  101 1    
   198  100  102 1    
   199  100  221 1    
   200  101  222 1    
   201  101  223 1    
   202  101  224 1    
   203  102  103 2    
   204  102  104 am   BACKBONE|DICT|INTERRES
   205  104  105 1    
   206  104  225 1    
   207  105  106 1    
   208  105  107 1    
   209  105  226 1    
   210  106  227 1    
   211  106  228 1    
   212  106  229 1    
   213  107  108 2    
   214  107  109 am   BACKBONE|DICT|INTERRES
   215  109  110 1    
   216  109  230 1    
   217  110  111 1    
   218  110  112 1    
   219  110  231 1    
   220  111  232 1    
   221  111  233 1    
   222  111  234 1    
   223  112  113 2    
   224  112  114 am   BACKBONE|DICT|INTERRES
   225  114  115 1    
   226  114  235 1    
   227  115  116 1    
   228  115  117 1    
   229  115  236 1    
   230  116  237 1    
   231  116  238 1    
   232  116  239 1    
   233  117  118 2    
   234  117  119 am   BACKBONE|DICT|INTERRES
   235  119  120 1    
   236  119  240 1    
   237  120  121 1    
   238  120  124 1    
   239  120  241 1    
   240  121  122 am   BACKBONE|DICT|INTERRES
   241  121  123 2    
   242  122  242 1    
   243  122  243 1    
   244  124  125 1    
   245  124  244 1    
   246  124  245 1    
   247  125  126 1    
   248  126  246 1    
   249  126  247 1    
@<TRIPOS>SUBSTRUCTURE
     1 UNK         1 GROUP             0       ****    0 ROOT    
