@<TRIPOS>MOLECULE
3R540
247   249    1
SMALL
USER_CHARGES


@<TRIPOS>ATOM
      1 CA         -1.7727  -14.3649  -50.6101 C.3       0 UNK        -0.1800 
      2 C          -1.6045  -14.4333  -49.1015 C.2       0 UNK         0.5000 
      3 O          -0.4777  -14.4135  -48.6081 O.2       0 UNK        -0.5000 
      4 N          -2.7219  -14.4908  -48.3653 N.am      1 UNK        -0.5000 
      5 CA         -2.7748  -14.5856  -46.8990 C.3       1 UNK         0.1400 
      6 C6         -4.2292  -14.7947  -46.3978 C.3       23 UNK        -0.0398 
      7 S7         -4.7084  -16.5482  -46.2791 S.3       23 UNK        -0.2404 
      8 C8         -4.9453  -17.0295  -48.0183 C.3       23 UNK        -0.0205 
      9 C9         -5.5355  -18.4296  -48.1380 C.ar      23 UNK        -0.0193 
     10 C10        -6.7063  -18.6429  -48.8727 C.ar      23 UNK        -0.1150 
     11 C11        -7.2537  -19.9253  -48.9855 C.ar      23 UNK        -0.0193 
     12 C12        -6.6268  -20.9999  -48.3480 C.ar      23 UNK        -0.1150 
     13 C13        -5.4512  -20.8031  -47.6182 C.ar      23 UNK        -0.0193 
     14 C14        -4.9060  -19.5190  -47.5263 C.ar      23 UNK        -0.1150 
     15 C15        -4.7527  -21.9762  -46.9508 C.3       23 UNK        -0.0205 
     16 S16        -4.7953  -21.8348  -45.1357 S.3       23 UNK        -0.2404 
     17 C17        -3.9196  -23.3554  -44.6411 C.3       23 UNK        -0.0398 
     18 CA         -2.4007  -23.3055  -44.9794 C.3       11 UNK         0.1400 
     19 N          -1.5178  -23.2212  -43.8096 N.am      11 UNK        -0.5000 
     20 C          -1.3761  -24.0678  -42.7817 C.2       10 UNK         0.5000 
     21 O          -2.0214  -25.1087  -42.6606 O.2       10 UNK        -0.5000 
     22 CA         -0.2990  -23.7088  -41.7439 C.3       10 UNK         0.1400 
     23 CB          1.0835  -24.1630  -42.2368 C.3       10 UNK        -0.1800 
     24 N          -0.2629  -22.2692  -41.4875 N.am      10 UNK        -0.5000 
     25 C          -0.9527  -21.6536  -40.5178 C.2       9 UNK         0.5000 
     26 O          -1.6301  -22.2459  -39.6766 O.2       9 UNK        -0.5000 
     27 CA         -0.8902  -20.1126  -40.4882 C.3       9 UNK         0.1400 
     28 CB          0.2862  -19.6354  -39.6232 C.3       9 UNK        -0.1800 
     29 N          -0.7808  -19.5119  -41.8183 N.am      9 UNK        -0.5000 
     30 C          -1.7103  -19.6047  -42.7798 C.2       8 UNK         0.5000 
     31 O          -2.7998  -20.1544  -42.6247 O.2       8 UNK        -0.5000 
     32 CA         -1.3548  -19.0035  -44.1525 C.3       8 UNK         0.1400 
     33 CB         -1.8374  -17.5497  -44.2212 C.3       8 UNK        -0.1800 
     34 N           0.0760  -19.0486  -44.4701 N.am      8 UNK        -0.5000 
     35 C           0.8175  -20.1620  -44.5654 C.2       7 UNK         0.5000 
     36 O           0.3753  -21.2966  -44.3942 O.2       7 UNK        -0.5000 
     37 CA          2.3158  -19.9747  -44.8418 C.3       7 UNK         0.1400 
     38 CB          2.5739  -19.7669  -46.3419 C.3       7 UNK        -0.1800 
     39 N           2.8503  -18.8517  -44.0717 N.am      7 UNK        -0.5000 
     40 C           3.1605  -18.9223  -42.7684 C.2       6 UNK         0.5000 
     41 O           3.1041  -19.9617  -42.1112 O.2       6 UNK        -0.5000 
     42 CA          3.5835  -17.6139  -42.0718 C.3       6 UNK         0.1400 
     43 CB          5.1039  -17.4192  -42.1702 C.3       6 UNK        -0.1800 
     44 N           2.9123  -16.4306  -42.6119 N.am      6 UNK        -0.5000 
     45 C           1.6034  -16.1704  -42.4833 C.2       5 UNK         0.5000 
     46 O           0.8272  -16.8833  -41.8473 O.2       5 UNK        -0.5000 
     47 CA          1.0655  -14.9338  -43.2348 C.3       5 UNK         0.1400 
     48 CB          1.1177  -13.6888  -42.3378 C.3       5 UNK        -0.1800 
     49 N           1.7649  -14.6508  -44.4934 N.am      5 UNK        -0.5000 
     50 C           1.8677  -15.5043  -45.5203 C.2       4 UNK         0.5000 
     51 O           1.3889  -16.6394  -45.5063 O.2       4 UNK        -0.5000 
     52 CA          2.6570  -15.0033  -46.7373 C.3       4 UNK         0.1400 
     53 CB          2.7994  -16.0657  -47.8387 C.3       4 UNK        -0.1800 
     54 N           1.9969  -13.8325  -47.3021 N.am      4 UNK        -0.5000 
     55 C           2.5601  -12.6306  -47.4660 C.2       3 UNK         0.5000 
     56 O           3.6926  -12.3412  -47.0784 O.2       3 UNK        -0.5000 
     57 CA          1.7127  -11.5718  -48.1876 C.3       3 UNK         0.1400 
     58 CB          1.7221  -11.8143  -49.7060 C.3       3 UNK        -0.1800 
     59 N           0.3319  -11.5644  -47.7089 N.am      3 UNK        -0.5000 
     60 C          -0.0972  -10.8785  -46.6409 C.2       2 UNK         0.5000 
     61 O           0.6359  -10.1848  -45.9351 O.2       2 UNK        -0.5000 
     62 CA         -1.6011  -10.9584  -46.3138 C.3       2 UNK         0.1400 
     63 CB         -2.3429   -9.7534  -46.9127 C.3       2 UNK        -0.1800 
     64 N          -2.2248  -12.1883  -46.8036 N.am      2 UNK        -0.5000 
     65 C          -2.1209  -13.3768  -46.1938 C.2       1 UNK         0.5000 
     66 O          -1.5301  -13.5451  -45.1274 O.2       1 UNK        -0.5000 
     67 C          -1.9931  -24.4091  -45.9805 C.2       11 UNK         0.5000 
     68 O          -2.0711  -24.1877  -47.1871 O.2       11 UNK        -0.5000 
     69 N          -1.5285  -25.5597  -45.4800 N.am      12 UNK        -0.5000 
     70 CA         -0.9987  -26.6746  -46.2684 C.3       12 UNK         0.1400 
     71 CB         -0.9536  -27.9235  -45.3743 C.3       12 UNK        -0.1800 
     72 C           0.3934  -26.3933  -46.8736 C.2       12 UNK         0.5000 
     73 O           0.8356  -27.1466  -47.7416 O.2       12 UNK        -0.5000 
     74 N           1.0654  -25.3353  -46.3959 N.am      13 UNK        -0.5000 
     75 CA          2.4122  -24.9284  -46.7978 C.3       13 UNK         0.1400 
     76 CB          2.8938  -23.8093  -45.8615 C.3       13 UNK        -0.1800 
     77 C           2.5286  -24.4841  -48.2683 C.2       13 UNK         0.5000 
     78 O           3.5714  -24.7174  -48.8812 O.2       13 UNK        -0.5000 
     79 N           1.4747  -23.8599  -48.8086 N.am      14 UNK        -0.5000 
     80 CA          1.4133  -23.3608  -50.1790 C.3       14 UNK         0.1400 
     81 CB          2.2873  -22.1030  -50.3301 C.3       14 UNK        -0.1800 
     82 C          -0.0429  -23.0539  -50.5464 C.2       14 UNK         0.5000 
     83 O          -0.8132  -22.6309  -49.6806 O.2       14 UNK        -0.5000 
     84 N          -0.3779  -23.2523  -51.8284 N.am      15 UNK        -0.5000 
     85 CA         -1.6939  -23.0193  -52.4259 C.3       15 UNK         0.1400 
     86 CB         -1.6413  -23.4203  -53.9093 C.3       15 UNK        -0.1800 
     87 C          -2.1529  -21.5602  -52.2554 C.2       15 UNK         0.5000 
     88 O          -1.5851  -20.6620  -52.8809 O.2       15 UNK        -0.5000 
     89 N          -3.1442  -21.3594  -51.3773 N.am      16 UNK        -0.5000 
     90 CA         -3.6863  -20.0712  -50.9383 C.3       16 UNK         0.1400 
     91 CB         -4.5161  -19.4077  -52.0504 C.3       16 UNK        -0.1800 
     92 C          -2.6068  -19.1380  -50.3559 C.2       16 UNK         0.5000 
     93 O          -2.6047  -17.9383  -50.6460 O.2       16 UNK        -0.5000 
     94 N          -1.6698  -19.7273  -49.5960 N.am      17 UNK        -0.5000 
     95 CA         -0.4983  -19.1341  -48.9381 C.3       17 UNK         0.1400 
     96 CB         -0.9290  -18.0824  -47.9027 C.3       17 UNK        -0.1800 
     97 C           0.5681  -18.5759  -49.9049 C.2       17 UNK         0.5000 
     98 O           1.7571  -18.8091  -49.6942 O.2       17 UNK        -0.5000 
     99 N           0.1277  -17.8775  -50.9531 N.am      18 UNK        -0.5000 
    100 CA         0.9384  -17.3369  -52.0401 C.3       18 UNK         0.1400 
    101 CB         1.6942  -16.0814  -51.5616 C.3       18 UNK        -0.1800 
    102 C          0.1129  -17.0332  -53.3061 C.2       18 UNK         0.5000 
    103 O          0.7147  -16.7768  -54.3498 O.2       18 UNK        -0.5000 
    104 N         -1.2287  -17.0359  -53.2206 N.am      19 UNK        -0.5000 
    105 CA        -2.1105  -16.6113  -54.3133 C.3       19 UNK         0.1400 
    106 CB        -3.4496  -16.1336  -53.7292 C.3       19 UNK        -0.1800 
    107 C         -2.3183  -17.6634  -55.4234 C.2       19 UNK         0.5000 
    108 O         -2.8490  -17.3064  -56.4760 O.2       19 UNK        -0.5000 
    109 N         -1.8936  -18.9157  -55.1906 N.am      20 UNK        -0.5000 
    110 CA        -1.9559  -20.0581  -56.1111 C.3       20 UNK         0.1400 
    111 CB        -1.0662  -19.8222  -57.3501 C.3       20 UNK        -0.1800 
    112 C         -3.4063  -20.4473  -56.4613 C.2       20 UNK         0.5000 
    113 O         -3.7786  -20.4991  -57.6353 O.2       20 UNK        -0.5000 
    114 N         -4.2028  -20.6978  -55.4183 N.am      21 UNK        -0.5000 
    115 CA        -5.6176  -21.0531  -55.4888 C.3       21 UNK         0.1400 
    116 CB        -6.4590  -19.7605  -55.5091 C.3       21 UNK        -0.1800 
    117 C         -5.9713  -21.9699  -54.3036 C.2       21 UNK         0.5000 
    118 O         -5.0698  -22.4554  -53.6174 O.2       21 UNK        -0.5000 
    119 N         -7.2734  -22.1761  -54.0687 N.am      22 UNK        -0.5000 
    120 CA        -7.8410  -22.8740  -52.8963 C.3       22 UNK         0.1400 
    121 C         -7.5313  -24.4022  -52.8159 C.2       22 UNK         0.5000 
    122 N         -7.0865  -25.0448  -53.8886 N.am      22 UNK        -0.7600 
    123 O         -7.7310  -25.0281  -51.7782 O.2       22 UNK        -0.5000 
    124 C124       -7.5522  -22.1336  -51.5559 C.3       23 UNK        -0.0398 
    125 S125       -8.1860  -20.4187  -51.5528 S.3       23 UNK        -0.2404 
    126 C126       -8.5296  -20.1446  -49.7854 C.3       23 UNK        -0.0205 
    127 H127       -1.4873  -15.3164  -51.0534 H         1 UNK         0.0600 
    128 H128       -2.8036  -14.1513  -50.8921 H         1 UNK         0.0600 
    129 H129       -1.1358  -13.5856  -51.0282 H         1 UNK         0.0600 
    130 H130       -3.6143  -14.4929  -48.8368 H         1 UNK         0.3000 
    131 H131       -2.1741  -15.4514  -46.6178 H         1 UNK         0.0600 
    132 H132       -4.9482  -14.2558  -47.0168 H         1 UNK         0.0800 
    133 H133       -4.3612  -14.3953  -45.3899 H         1 UNK         0.0800 
    134 H134       -3.9852  -17.0053  -48.5331 H         1 UNK         0.0800 
    135 H135       -5.5880  -16.2972  -48.5089 H         1 UNK         0.0800 
    136 H136       -7.1944  -17.8113  -49.3613 H         1 UNK         0.1150 
    137 H137       -7.0510  -21.9908  -48.4273 H         1 UNK         0.1150 
    138 H138       -3.9950  -19.3654  -46.9650 H         1 UNK         0.1150 
    139 H139       -5.2089  -22.9212  -47.2498 H         1 UNK         0.0800 
    140 H140       -3.7197  -22.0062  -47.2987 H         1 UNK         0.0800 
    141 H141       -4.4258  -24.2054  -45.1030 H         1 UNK         0.0800 
    142 H142       -4.0774  -23.4809  -43.5694 H         1 UNK         0.0800 
    143 H143       -2.1896  -22.3722  -45.5039 H         1 UNK         0.0600 
    144 H144       -0.8680  -22.4385  -43.8553 H         1 UNK         0.3000 
    145 H145       -0.5245  -24.2496  -40.8223 H         1 UNK         0.0600 
    146 H146        1.8471  -23.9871  -41.4789 H         1 UNK         0.0600 
    147 H147        1.0901  -25.2299  -42.4643 H         1 UNK         0.0600 
    148 H148        1.3826  -23.6303  -43.1395 H         1 UNK         0.0600 
    149 H149        0.2459  -21.7013  -42.1519 H         1 UNK         0.3000 
    150 H150       -1.8161  -19.7524  -40.0353 H         1 UNK         0.0600 
    151 H151        0.2172  -20.0392  -38.6124 H         1 UNK         0.0600 
    152 H152        0.2989  -18.5485  -39.5392 H         1 UNK         0.0600 
    153 H153        1.2441  -19.9502  -40.0384 H         1 UNK         0.0600 
    154 H154        0.0500  -18.9642  -42.0058 H         1 UNK         0.3000 
    155 H155       -1.8805  -19.5814  -44.9154 H         1 UNK         0.0600 
    156 H156       -1.4119  -16.9478  -43.4196 H         1 UNK         0.0600 
    157 H157       -2.9215  -17.4982  -44.1214 H         1 UNK         0.0600 
    158 H158       -1.5674  -17.0854  -45.1674 H         1 UNK         0.0600 
    159 H159        0.5240  -18.1581  -44.6671 H         1 UNK         0.3000 
    160 H160        2.8323  -20.8879  -44.5381 H         1 UNK         0.0600 
    161 H161        3.6357  -19.6300  -46.5461 H         1 UNK         0.0600 
    162 H162        2.0431  -18.8987  -46.7309 H         1 UNK         0.0600 
    163 H163        2.2415  -20.6313  -46.9180 H         1 UNK         0.0600 
    164 H164        2.8469  -17.9497  -44.5284 H         1 UNK         0.3000 
    165 H165        3.3178  -17.7016  -41.0161 H         1 UNK         0.0600 
    166 H166        5.4256  -16.5378  -41.6151 H         1 UNK         0.0600 
    167 H167        5.6347  -18.2760  -41.7530 H         1 UNK         0.0600 
    168 H168        5.4296  -17.3032  -43.2047 H         1 UNK         0.0600 
    169 H169        3.4779  -15.7895  -43.1480 H         1 UNK         0.3000 
    170 H170        0.0210  -15.1281  -43.4810 H         1 UNK         0.0600 
    171 H171        0.5859  -13.8601  -41.4010 H         1 UNK         0.0600 
    172 H172        2.1432  -13.4133  -42.0892 H         1 UNK         0.0600 
    173 H173        0.6469  -12.8345  -42.8252 H         1 UNK         0.0600 
    174 H174        2.1683  -13.7303  -44.5904 H         1 UNK         0.3000 
    175 H175        3.6591  -14.7558  -46.3819 H         1 UNK         0.0600 
    176 H176        1.8285  -16.3541  -48.2422 H         1 UNK         0.0600 
    177 H177        3.4063  -15.6930  -48.6634 H         1 UNK         0.0600 
    178 H178        3.2860  -16.9653  -47.4617 H         1 UNK         0.0600 
    179 H179        1.0562  -13.9889  -47.6600 H         1 UNK         0.3000 
    180 H180        2.1640  -10.5943  -48.0031 H         1 UNK         0.0600 
    181 H181        1.2883  -12.7802  -49.9674 H         1 UNK         0.0600 
    182 H182        2.7405  -11.7977  -50.0962 H         1 UNK         0.0600 
    183 H183        1.1603  -11.0420  -50.2317 H         1 UNK         0.0600 
    184 H184       -0.3170  -12.1690  -48.1920 H         1 UNK         0.3000 
    185 H185       -1.7068  -10.9154  -45.2275 H         1 UNK         0.0600 
    186 H186       -1.9219   -8.8152  -46.5486 H         1 UNK         0.0600 
    187 H187       -2.2792   -9.7408  -48.0015 H         1 UNK         0.0600 
    188 H188       -3.3977   -9.7629  -46.6374 H         1 UNK         0.0600 
    189 H189       -2.7317  -12.1308  -47.6748 H         1 UNK         0.3000 
    190 H190       -1.5450  -25.6733  -44.4712 H         1 UNK         0.3000 
    191 H191       -1.6827  -26.8689  -47.0971 H         1 UNK         0.0600 
    192 H192       -0.2892  -27.7825  -44.5207 H         1 UNK         0.0600 
    193 H193       -0.5961  -28.7917  -45.9296 H         1 UNK         0.0600 
    194 H194       -1.9440  -28.1703  -44.9913 H         1 UNK         0.0600 
    195 H195        0.6184  -24.7777  -45.6847 H         1 UNK         0.3000 
    196 H196        3.0721  -25.7885  -46.6664 H         1 UNK         0.0600 
    197 H197        2.2068  -22.9629  -45.8640 H         1 UNK         0.0600 
    198 H198        3.8748  -23.4380  -46.1614 H         1 UNK         0.0600 
    199 H199        2.9863  -24.1673  -44.8365 H         1 UNK         0.0600 
    200 H200        0.6270  -23.7292  -48.2698 H         1 UNK         0.3000 
    201 H201        1.7797  -24.1386  -50.8524 H         1 UNK         0.0600 
    202 H202        2.1267  -21.6157  -51.2928 H         1 UNK         0.0600 
    203 H203        3.3481  -22.3437  -50.2636 H         1 UNK         0.0600 
    204 H204        2.0641  -21.3770  -49.5493 H         1 UNK         0.0600 
    205 H205        0.3375  -23.5693  -52.4661 H         1 UNK         0.3000 
    206 H206       -2.4114  -23.6735  -51.9263 H         1 UNK         0.0600 
    207 H207       -1.4471  -24.4871  -54.0206 H         1 UNK         0.0600 
    208 H208       -2.5880  -23.2114  -54.4084 H         1 UNK         0.0600 
    209 H209       -0.8591  -22.8820  -54.4450 H         1 UNK         0.0600 
    210 H210       -3.5270  -22.1693  -50.9110 H         1 UNK         0.3000 
    211 H211       -4.3688  -20.2967  -50.1232 H         1 UNK         0.0600 
    212 H212       -3.9155  -19.1938  -52.9330 H         1 UNK         0.0600 
    213 H213       -4.9584  -18.4730  -51.7040 H         1 UNK         0.0600 
    214 H214       -5.3424  -20.0464  -52.3488 H         1 UNK         0.0600 
    215 H215       -1.7102  -20.7391  -49.5229 H         1 UNK         0.3000 
    216 H216       -0.0244  -19.9525  -48.3935 H         1 UNK         0.0600 
    217 H217       -0.0703  -17.7067  -47.3494 H         1 UNK         0.0600 
    218 H218       -1.6256  -18.5058  -47.1806 H         1 UNK         0.0600 
    219 H219       -1.4128  -17.2264  -48.3690 H         1 UNK         0.0600 
    220 H220       -0.8781  -17.7488  -51.0062 H         1 UNK         0.3000 
    221 H221        1.6704  -18.0945  -52.3272 H         1 UNK         0.0600 
    222 H222        1.0156  -15.3325  -51.1531 H         1 UNK         0.0600 
    223 H223        2.4195  -16.3308  -50.7886 H         1 UNK         0.0600 
    224 H224        2.2477  -15.6154  -52.3775 H         1 UNK         0.0600 
    225 H225       -1.6916  -17.2801  -52.3548 H         1 UNK         0.3000 
    226 H226       -1.6537  -15.7466  -54.7997 H         1 UNK         0.0600 
    227 H227       -3.9436  -16.9092  -53.1499 H         1 UNK         0.0600 
    228 H228       -3.3065  -15.2732  -53.0765 H         1 UNK         0.0600 
    229 H229       -4.1374  -15.8261  -54.5180 H         1 UNK         0.0600 
    230 H230       -1.5265  -19.1348  -54.2704 H         1 UNK         0.3000 
    231 H231       -1.5325  -20.9066  -55.5751 H         1 UNK         0.0600 
    232 H232       -0.0445  -19.5781  -57.0592 H         1 UNK         0.0600 
    233 H233       -1.4395  -19.0106  -57.9751 H         1 UNK         0.0600 
    234 H234       -1.0218  -20.7171  -57.9717 H         1 UNK         0.0600 
    235 H235       -3.8110  -20.7078  -54.4857 H         1 UNK         0.3000 
    236 H236       -5.8062  -21.6216  -56.4016 H         1 UNK         0.0600 
    237 H237       -6.1473  -19.0996  -56.3182 H         1 UNK         0.0600 
    238 H238       -7.5173  -19.9717  -55.6633 H         1 UNK         0.0600 
    239 H239       -6.3644  -19.2063  -54.5744 H         1 UNK         0.0600 
    240 H240       -7.9502  -21.7550  -54.6881 H         1 UNK         0.3000 
    241 H241       -8.9207  -22.8386  -53.0449 H         1 UNK         0.0600 
    242 H242       -6.8997  -26.0337  -53.8338 H         1 UNK         0.3800 
    243 H243       -6.9198  -24.5489  -54.7492 H         1 UNK         0.3800 
    244 H244       -8.0189  -22.6656  -50.7258 H         1 UNK         0.0800 
    245 H245       -6.4829  -22.1162  -51.3416 H         1 UNK         0.0800 
    246 H246       -9.1739  -19.2696  -49.6881 H         1 UNK         0.0800 
    247 H247       -9.0994  -20.9824  -49.3809 H         1 UNK         0.0800 
@<TRIPOS>BOND
     1    1    2 1    
     2    1  127 1    
     3    1  128 1    
     4    1  129 1    
     5    2    3 2    
     6    2    4 am   BACKBONE|DICT|INTERRES
     7    4    5 1    
     8    4  130 1    
     9    5    6 1    
    10    5   65 1    
    11    5  131 1    
    12    6    7 1    
    13    6  132 1    
    14    6  133 1    
    15    7    8 1    
    16    8    9 1    
    17    8  134 1    
    18    8  135 1    
    19    9   10 ar   
    20    9   14 ar   
    21   10   11 ar   
    22   10  136 1    
    23   11   12 ar   
    24   11  126 1    
    25   12   13 ar   
    26   12  137 1    
    27   13   14 ar   
    28   13   15 1    
    29   14  138 1    
    30   15   16 1    
    31   15  139 1    
    32   15  140 1    
    33   16   17 1    
    34   17   18 1    
    35   17  141 1    
    36   17  142 1    
    37   18   19 1    
    38   18   67 1    
    39   18  143 1    
    40   19   20 am   BACKBONE|DICT|INTERRES
    41   19  144 1    
    42   20   21 2    
    43   20   22 1    
    44   22   23 1    
    45   22   24 1    
    46   22  145 1    
    47   23  146 1    
    48   23  147 1    
    49   23  148 1    
    50   24   25 am   BACKBONE|DICT|INTERRES
    51   24  149 1    
    52   25   26 2    
    53   25   27 1    
    54   27   28 1    
    55   27   29 1    
    56   27  150 1    
    57   28  151 1    
    58   28  152 1    
    59   28  153 1    
    60   29   30 am   BACKBONE|DICT|INTERRES
    61   29  154 1    
    62   30   31 2    
    63   30   32 1    
    64   32   33 1    
    65   32   34 1    
    66   32  155 1    
    67   33  156 1    
    68   33  157 1    
    69   33  158 1    
    70   34   35 am   BACKBONE|DICT|INTERRES
    71   34  159 1    
    72   35   36 2    
    73   35   37 1    
    74   37   38 1    
    75   37   39 1    
    76   37  160 1    
    77   38  161 1    
    78   38  162 1    
    79   38  163 1    
    80   39   40 am   BACKBONE|DICT|INTERRES
    81   39  164 1    
    82   40   41 2    
    83   40   42 1    
    84   42   43 1    
    85   42   44 1    
    86   42  165 1    
    87   43  166 1    
    88   43  167 1    
    89   43  168 1    
    90   44   45 am   BACKBONE|DICT|INTERRES
    91   44  169 1    
    92   45   46 2    
    93   45   47 1    
    94   47   48 1    
    95   47   49 1    
    96   47  170 1    
    97   48  171 1    
    98   48  172 1    
    99   48  173 1    
   100   49   50 am   BACKBONE|DICT|INTERRES
   101   49  174 1    
   102   50   51 2    
   103   50   52 1    
   104   52   53 1    
   105   52   54 1    
   106   52  175 1    
   107   53  176 1    
   108   53  177 1    
   109   53  178 1    
   110   54   55 am   BACKBONE|DICT|INTERRES
   111   54  179 1    
   112   55   56 2    
   113   55   57 1    
   114   57   58 1    
   115   57   59 1    
   116   57  180 1    
   117   58  181 1    
   118   58  182 1    
   119   58  183 1    
   120   59   60 am   BACKBONE|DICT|INTERRES
   121   59  184 1    
   122   60   61 2    
   123   60   62 1    
   124   62   63 1    
   125   62   64 1    
   126   62  185 1    
   127   63  186 1    
   128   63  187 1    
   129   63  188 1    
   130   64   65 am   BACKBONE|DICT|INTERRES
   131   64  189 1    
   132   65   66 2    
   133   67   68 2    
   134   67   69 am   BACKBONE|DICT|INTERRES
   135   69   70 1    
   136   69  190 1    
   137   70   71 1    
   138   70   72 1    
   139   70  191 1    
   140   71  192 1    
   141   71  193 1    
   142   71  194 1    
   143   72   73 2    
   144   72   74 am   BACKBONE|DICT|INTERRES
   145   74   75 1    
   146   74  195 1    
   147   75   76 1    
   148   75   77 1    
   149   75  196 1    
   150   76  197 1    
   151   76  198 1    
   152   76  199 1    
   153   77   78 2    
   154   77   79 am   BACKBONE|DICT|INTERRES
   155   79   80 1    
   156   79  200 1    
   157   80   81 1    
   158   80   82 1    
   159   80  201 1    
   160   81  202 1    
   161   81  203 1    
   162   81  204 1    
   163   82   83 2    
   164   82   84 am   BACKBONE|DICT|INTERRES
   165   84   85 1    
   166   84  205 1    
   167   85   86 1    
   168   85   87 1    
   169   85  206 1    
   170   86  207 1    
   171   86  208 1    
   172   86  209 1    
   173   87   88 2    
   174   87   89 am   BACKBONE|DICT|INTERRES
   175   89   90 1    
   176   89  210 1    
   177   90   91 1    
   178   90   92 1    
   179   90  211 1    
   180   91  212 1    
   181   91  213 1    
   182   91  214 1    
   183   92   93 2    
   184   92   94 am   BACKBONE|DICT|INTERRES
   185   94   95 1    
   186   94  215 1    
   187   95   96 1    
   188   95   97 1    
   189   95  216 1    
   190   96  217 1    
   191   96  218 1    
   192   96  219 1    
   193   97   98 2    
   194   97   99 am   BACKBONE|DICT|INTERRES
   195   99  100 1    
   196   99  220 1    
   197  100  101 1    
   198  100  102 1    
   199  100  221 1    
   200  101  222 1    
   201  101  223 1    
   202  101  224 1    
   203  102  103 2    
   204  102  104 am   BACKBONE|DICT|INTERRES
   205  104  105 1    
   206  104  225 1    
   207  105  106 1    
   208  105  107 1    
   209  105  226 1    
   210  106  227 1    
   211  106  228 1    
   212  106  229 1    
   213  107  108 2    
   214  107  109 am   BACKBONE|DICT|INTERRES
   215  109  110 1    
   216  109  230 1    
   217  110  111 1    
   218  110  112 1    
   219  110  231 1    
   220  111  232 1    
   221  111  233 1    
   222  111  234 1    
   223  112  113 2    
   224  112  114 am   BACKBONE|DICT|INTERRES
   225  114  115 1    
   226  114  235 1    
   227  115  116 1    
   228  115  117 1    
   229  115  236 1    
   230  116  237 1    
   231  116  238 1    
   232  116  239 1    
   233  117  118 2    
   234  117  119 am   BACKBONE|DICT|INTERRES
   235  119  120 1    
   236  119  240 1    
   237  120  121 1    
   238  120  124 1    
   239  120  241 1    
   240  121  122 am   BACKBONE|DICT|INTERRES
   241  121  123 2    
   242  122  242 1    
   243  122  243 1    
   244  124  125 1    
   245  124  244 1    
   246  124  245 1    
   247  125  126 1    
   248  126  246 1    
   249  126  247 1    
@<TRIPOS>SUBSTRUCTURE
     1 UNK         1 GROUP             0       ****    0 ROOT    
