@<TRIPOS>MOLECULE
3R540
247   249    1
SMALL
USER_CHARGES


@<TRIPOS>ATOM
      1 CA          1.2276  -15.3089  -48.0150 C.3       0 UNK        -0.1800 
      2 C           0.4656  -14.5197  -46.9617 C.2       0 UNK         0.5000 
      3 O           0.9906  -14.2932  -45.8727 O.2       0 UNK        -0.5000 
      4 N          -0.7556  -14.0795  -47.2952 N.am      1 UNK        -0.5000 
      5 CA         -1.7169  -13.3958  -46.4142 C.3       1 UNK         0.1400 
      6 C6         -3.0293  -13.0366  -47.1576 C.3       23 UNK        -0.0398 
      7 S7         -3.8692  -14.5066  -47.8361 S.3       23 UNK        -0.2404 
      8 C8         -3.5924  -14.3270  -49.6292 C.3       23 UNK        -0.0205 
      9 C9         -3.5355  -15.7000  -50.2756 C.ar      23 UNK        -0.0193 
     10 C10        -4.6986  -16.3201  -50.7432 C.ar      23 UNK        -0.1150 
     11 C11        -4.6559  -17.6356  -51.2168 C.ar      23 UNK        -0.0193 
     12 C12        -3.4405  -18.3246  -51.2254 C.ar      23 UNK        -0.1150 
     13 C13        -2.2723  -17.7117  -50.7659 C.ar      23 UNK        -0.0193 
     14 C14        -2.3211  -16.3880  -50.3232 C.ar      23 UNK        -0.1150 
     15 C15        -0.9896  -18.5210  -50.6297 C.3       23 UNK        -0.0205 
     16 S16        -0.3599  -18.5518  -48.9142 S.3       23 UNK        -0.2404 
     17 C17        -1.8521  -18.9818  -47.9497 C.3       23 UNK        -0.0398 
     18 CA         -1.9577  -20.4970  -47.6707 C.3       11 UNK         0.1400 
     19 N          -1.0418  -20.8976  -46.5988 N.am      11 UNK        -0.5000 
     20 C          -0.7387  -22.1543  -46.2533 C.2       10 UNK         0.5000 
     21 O          -1.1638  -23.1516  -46.8325 O.2       10 UNK        -0.5000 
     22 CA          0.1384  -22.3253  -44.9991 C.3       10 UNK         0.1400 
     23 CB          1.6242  -22.1266  -45.3346 C.3       10 UNK        -0.1800 
     24 N          -0.2564  -21.4241  -43.9122 N.am      10 UNK        -0.5000 
     25 C          -1.4559  -21.4505  -43.3125 C.2       9 UNK         0.5000 
     26 O          -2.3307  -22.2724  -43.5850 O.2       9 UNK        -0.5000 
     27 CA         -1.7537  -20.3512  -42.2768 C.3       9 UNK         0.1400 
     28 CB         -1.1225  -20.6914  -40.9189 C.3       9 UNK        -0.1800 
     29 N          -1.3117  -19.0269  -42.7156 N.am      9 UNK        -0.5000 
     30 C          -1.8251  -18.3608  -43.7609 C.2       8 UNK         0.5000 
     31 O          -2.7711  -18.7706  -44.4315 O.2       8 UNK        -0.5000 
     32 CA         -1.1386  -17.0383  -44.1547 C.3       8 UNK         0.1400 
     33 CB         -1.6337  -15.8799  -43.2764 C.3       8 UNK        -0.1800 
     34 N           0.3194  -17.1178  -44.0807 N.am      8 UNK        -0.5000 
     35 C           1.0770  -17.9598  -44.7970 C.2       7 UNK         0.5000 
     36 O           0.6275  -18.7383  -45.6355 O.2       7 UNK        -0.5000 
     37 CA          2.5779  -17.9941  -44.4643 C.3       7 UNK         0.1400 
     38 CB          3.3287  -16.8219  -45.1119 C.3       7 UNK        -0.1800 
     39 N           2.8057  -17.9905  -43.0199 N.am      7 UNK        -0.5000 
     40 C           2.5094  -19.0148  -42.2075 C.2       6 UNK         0.5000 
     41 O           2.0562  -20.0897  -42.6000 O.2       6 UNK        -0.5000 
     42 CA          2.7213  -18.7829  -40.7002 C.3       6 UNK         0.1400 
     43 CB          4.1804  -19.0612  -40.3100 C.3       6 UNK        -0.1800 
     44 N           2.3591  -17.4263  -40.2861 N.am      6 UNK        -0.5000 
     45 C           1.1075  -16.9453  -40.2802 C.2       5 UNK         0.5000 
     46 O           0.1190  -17.6117  -40.5834 O.2       5 UNK        -0.5000 
     47 CA          0.9425  -15.4546  -39.9260 C.3       5 UNK         0.1400 
     48 CB          0.8602  -15.2646  -38.4042 C.3       5 UNK        -0.1800 
     49 N           2.0203  -14.6196  -40.4664 N.am      5 UNK        -0.5000 
     50 C           2.2573  -14.4575  -41.7741 C.2       4 UNK         0.5000 
     51 O           1.5750  -14.9764  -42.6592 O.2       4 UNK        -0.5000 
     52 CA          3.4989  -13.6447  -42.1551 C.3       4 UNK         0.1400 
     53 CB          4.7605  -14.5213  -42.0078 C.3       4 UNK        -0.1800 
     54 N           3.3518  -13.1834  -43.5331 N.am      4 UNK        -0.5000 
     55 C           4.1521  -12.3098  -44.1542 C.2       3 UNK         0.5000 
     56 O           5.1089  -11.7502  -43.6168 O.2       3 UNK        -0.5000 
     57 CA          3.8212  -11.9977  -45.6214 C.3       3 UNK         0.1400 
     58 CB          4.2030  -13.1725  -46.5361 C.3       3 UNK        -0.1800 
     59 N           2.4079  -11.6649  -45.8017 N.am      3 UNK        -0.5000 
     60 C           1.8936  -10.4475  -45.5709 C.2       2 UNK         0.5000 
     61 O           2.5618   -9.5050  -45.1430 O.2       2 UNK        -0.5000 
     62 CA          0.4039  -10.2130  -45.8931 C.3       2 UNK         0.1400 
     63 CB          0.2457   -9.1043  -46.9482 C.3       2 UNK        -0.1800 
     64 N          -0.2601  -11.4172  -46.3937 N.am      2 UNK        -0.5000 
     65 C          -1.1560  -12.1404  -45.7105 C.2       1 UNK         0.5000 
     66 O          -1.5438  -11.8605  -44.5755 O.2       1 UNK        -0.5000 
     67 C          -3.4304  -20.8849  -47.4043 C.2       11 UNK         0.5000 
     68 O          -4.1969  -21.0040  -48.3591 O.2       11 UNK        -0.5000 
     69 N          -3.8198  -21.0584  -46.1347 N.am      12 UNK        -0.5000 
     70 CA         -5.1426  -21.5523  -45.7581 C.3       12 UNK         0.1400 
     71 CB         -5.5019  -21.0552  -44.3493 C.3       12 UNK        -0.1800 
     72 C          -5.2039  -23.0875  -45.8370 C.2       12 UNK         0.5000 
     73 O          -6.2082  -23.6317  -46.2987 O.2       12 UNK        -0.5000 
     74 N          -4.1326  -23.7536  -45.3855 N.am      13 UNK        -0.5000 
     75 CA         -4.0086  -25.2097  -45.3393 C.3       13 UNK         0.1400 
     76 CB         -2.8450  -25.5781  -44.4058 C.3       13 UNK        -0.1800 
     77 C          -3.8137  -25.8648  -46.7199 C.2       13 UNK         0.5000 
     78 O          -4.3134  -26.9698  -46.9368 O.2       13 UNK        -0.5000 
     79 N          -3.0824  -25.1952  -47.6161 N.am      14 UNK        -0.5000 
     80 CA         -2.7165  -25.6765  -48.9456 C.3       14 UNK         0.1400 
     81 CB         -1.4140  -26.4937  -48.8410 C.3       14 UNK        -0.1800 
     82 C          -2.5663  -24.4865  -49.9071 C.2       14 UNK         0.5000 
     83 O          -2.7768  -23.3427  -49.5115 O.2       14 UNK        -0.5000 
     84 N          -2.1987  -24.7625  -51.1649 N.am      15 UNK        -0.5000 
     85 CA         -1.9745  -23.7368  -52.1899 C.3       15 UNK         0.1400 
     86 CB         -2.0100  -24.4025  -53.5723 C.3       15 UNK        -0.1800 
     87 C          -0.6649  -22.9455  -52.0048 C.2       15 UNK         0.5000 
     88 O          -0.5206  -21.8886  -52.6206 O.2       15 UNK        -0.5000 
     89 N           0.2645  -23.4815  -51.1974 N.am      16 UNK        -0.5000 
     90 CA          1.5695  -22.9480  -50.7762 C.3       16 UNK         0.1400 
     91 CB          1.3965  -21.6518  -49.9635 C.3       16 UNK        -0.1800 
     92 C           2.5985  -22.7593  -51.9105 C.2       16 UNK         0.5000 
     93 O           3.7263  -23.2401  -51.7963 O.2       16 UNK        -0.5000 
     94 N           2.1885  -22.0779  -52.9814 N.am      17 UNK        -0.5000 
     95 CA          2.9597  -21.7845  -54.1855 C.3       17 UNK         0.1400 
     96 CB          3.7130  -20.4529  -54.0053 C.3       17 UNK        -0.1800 
     97 C           2.0231  -21.7952  -55.4083 C.2       17 UNK         0.5000 
     98 O           2.1294  -20.9287  -56.2773 O.2       17 UNK        -0.5000 
     99 N           1.1004  -22.7713  -55.4309 N.am      18 UNK        -0.5000 
    100 CA         0.0560  -22.9906  -56.4423 C.3       18 UNK         0.1400 
    101 CB         0.6790  -23.3403  -57.8103 C.3       18 UNK        -0.1800 
    102 C         -0.9770  -21.8427  -56.5313 C.2       18 UNK         0.5000 
    103 O         -1.5715  -21.6292  -57.5898 O.2       18 UNK        -0.5000 
    104 N         -1.1875  -21.1261  -55.4194 N.am      19 UNK        -0.5000 
    105 CA        -2.0953  -19.9895  -55.3170 C.3       19 UNK         0.1400 
    106 CB        -1.5369  -19.0035  -54.2782 C.3       19 UNK        -0.1800 
    107 C         -3.5135  -20.4684  -54.9649 C.2       19 UNK         0.5000 
    108 O         -3.8893  -20.4803  -53.7929 O.2       19 UNK        -0.5000 
    109 N         -4.2651  -20.8880  -55.9910 N.am      20 UNK        -0.5000 
    110 CA        -5.7039  -21.2046  -56.0189 C.3       20 UNK         0.1400 
    111 CB        -6.5300  -19.9418  -55.7046 C.3       20 UNK        -0.1800 
    112 C         -6.1917  -22.3895  -55.1544 C.2       20 UNK         0.5000 
    113 O         -7.2608  -22.9254  -55.4486 O.2       20 UNK        -0.5000 
    114 N         -5.4289  -22.7750  -54.1228 N.am      21 UNK        -0.5000 
    115 CA        -5.7392  -23.7971  -53.1166 C.3       21 UNK         0.1400 
    116 CB        -5.8781  -25.1947  -53.7595 C.3       21 UNK        -0.1800 
    117 C         -6.9492  -23.4051  -52.2439 C.2       21 UNK         0.5000 
    118 O         -7.8262  -24.2348  -51.9949 O.2       21 UNK        -0.5000 
    119 N         -6.9806  -22.1384  -51.8036 N.am      22 UNK        -0.5000 
    120 CA        -8.0437  -21.5938  -50.9410 C.3       22 UNK         0.1400 
    121 C         -8.0520  -22.1356  -49.4777 C.2       22 UNK         0.5000 
    122 N         -6.9612  -22.7031  -48.9777 N.am      22 UNK        -0.7600 
    123 O         -9.0721  -22.0551  -48.7985 O.2       22 UNK        -0.5000 
    124 C124       -8.1121  -20.0442  -51.0028 C.3       23 UNK        -0.0398 
    125 S125       -6.6893  -19.1920  -50.2355 S.3       23 UNK        -0.2404 
    126 C126       -5.9294  -18.3423  -51.6513 C.3       23 UNK        -0.0205 
    127 H127        2.2112  -14.8703  -48.1798 H         1 UNK         0.0600 
    128 H128        1.3625  -16.3370  -47.6807 H         1 UNK         0.0600 
    129 H129        0.7021  -15.3287  -48.9693 H         1 UNK         0.0600 
    130 H130       -1.1156  -14.3084  -48.2090 H         1 UNK         0.3000 
    131 H131       -1.9670  -14.1067  -45.6254 H         1 UNK         0.0600 
    132 H132       -3.7319  -12.5555  -46.4743 H         1 UNK         0.0800 
    133 H133       -2.8423  -12.3137  -47.9535 H         1 UNK         0.0800 
    134 H134       -2.6624  -13.7912  -49.8237 H         1 UNK         0.0800 
    135 H135       -4.3938  -13.7286  -50.0649 H         1 UNK         0.0800 
    136 H136       -5.6439  -15.7984  -50.6915 H         1 UNK         0.1150 
    137 H137       -3.4164  -19.3581  -51.5403 H         1 UNK         0.1150 
    138 H138       -1.4253  -15.9246  -49.9374 H         1 UNK         0.1150 
    139 H139       -1.1495  -19.5518  -50.9500 H         1 UNK         0.0800 
    140 H140       -0.2260  -18.1041  -51.2872 H         1 UNK         0.0800 
    141 H141       -2.7428  -18.6096  -48.4540 H         1 UNK         0.0800 
    142 H142       -1.8190  -18.4262  -47.0124 H         1 UNK         0.0800 
    143 H143       -1.6629  -21.0360  -48.5736 H         1 UNK         0.0600 
    144 H144       -0.5826  -20.1376  -46.1027 H         1 UNK         0.3000 
    145 H145        0.0083  -23.3490  -44.6421 H         1 UNK         0.0600 
    146 H146        2.2527  -22.3091  -44.4629 H         1 UNK         0.0600 
    147 H147        1.9419  -22.8171  -46.1168 H         1 UNK         0.0600 
    148 H148        1.8288  -21.1163  -45.6881 H         1 UNK         0.0600 
    149 H149        0.4333  -20.7446  -43.6077 H         1 UNK         0.3000 
    150 H150       -2.8367  -20.3110  -42.1421 H         1 UNK         0.0600 
    151 H151       -1.4579  -21.6675  -40.5664 H         1 UNK         0.0600 
    152 H152       -1.4008  -19.9590  -40.1611 H         1 UNK         0.0600 
    153 H153       -0.0344  -20.7185  -40.9738 H         1 UNK         0.0600 
    154 H154       -0.5777  -18.5873  -42.1693 H         1 UNK         0.3000 
    155 H155       -1.4015  -16.8151  -45.1906 H         1 UNK         0.0600 
    156 H156       -1.4435  -16.0656  -42.2196 H         1 UNK         0.0600 
    157 H157       -2.7074  -15.7316  -43.3967 H         1 UNK         0.0600 
    158 H158       -1.1408  -14.9441  -43.5410 H         1 UNK         0.0600 
    159 H159        0.7783  -16.4570  -43.4583 H         1 UNK         0.3000 
    160 H160        2.9887  -18.9208  -44.8707 H         1 UNK         0.0600 
    161 H161        4.3964  -16.8687  -44.8978 H         1 UNK         0.0600 
    162 H162        2.9580  -15.8607  -44.7587 H         1 UNK         0.0600 
    163 H163        3.2150  -16.8388  -46.1958 H         1 UNK         0.0600 
    164 H164        3.1240  -17.1256  -42.6120 H         1 UNK         0.3000 
    165 H165        2.0832  -19.4866  -40.1614 H         1 UNK         0.0600 
    166 H166        4.3241  -18.9721  -39.2330 H         1 UNK         0.0600 
    167 H167        4.4732  -20.0732  -40.5931 H         1 UNK         0.0600 
    168 H168        4.8688  -18.3710  -40.7994 H         1 UNK         0.0600 
    169 H169        3.1131  -16.8131  -40.0152 H         1 UNK         0.3000 
    170 H170        0.0019  -15.1132  -40.3632 H         1 UNK         0.0600 
    171 H171        0.0527  -15.8629  -37.9799 H         1 UNK         0.0600 
    172 H172        1.7850  -15.5628  -37.9088 H         1 UNK         0.0600 
    173 H173        0.6613  -14.2241  -38.1470 H         1 UNK         0.0600 
    174 H174        2.6247  -14.1691  -39.7941 H         1 UNK         0.3000 
    175 H175        3.5660  -12.7777  -41.4951 H         1 UNK         0.0600 
    176 H176        4.7471  -15.3634  -42.7004 H         1 UNK         0.0600 
    177 H177        5.6703  -13.9522  -42.1964 H         1 UNK         0.0600 
    178 H178        4.8468  -14.9264  -40.9989 H         1 UNK         0.0600 
    179 H179        2.5622  -13.5886  -44.0261 H         1 UNK         0.3000 
    180 H180        4.4268  -11.1408  -45.9251 H         1 UNK         0.0600 
    181 H181        3.6529  -14.0787  -46.2863 H         1 UNK         0.0600 
    182 H182        5.2654  -13.4029  -46.4490 H         1 UNK         0.0600 
    183 H183        4.0057  -12.9379  -47.5821 H         1 UNK         0.0600 
    184 H184        1.7867  -12.4289  -46.0428 H         1 UNK         0.3000 
    185 H185       -0.0683   -9.8688  -44.9708 H         1 UNK         0.0600 
    186 H186        0.6859   -8.1671  -46.6051 H         1 UNK         0.0600 
    187 H187        0.7307   -9.3709  -47.8881 H         1 UNK         0.0600 
    188 H188       -0.8060   -8.9079  -47.1574 H         1 UNK         0.0600 
    189 H189        0.0051  -11.7277  -47.3175 H         1 UNK         0.3000 
    190 H190       -3.1596  -20.8855  -45.3881 H         1 UNK         0.3000 
    191 H191       -5.8873  -21.1490  -46.4482 H         1 UNK         0.0600 
    192 H192       -4.8235  -21.4455  -43.5913 H         1 UNK         0.0600 
    193 H193       -6.5107  -21.3655  -44.0749 H         1 UNK         0.0600 
    194 H194       -5.4700  -19.9667  -44.2967 H         1 UNK         0.0600 
    195 H195       -3.3685  -23.2224  -44.9798 H         1 UNK         0.3000 
    196 H196       -4.9276  -25.6134  -44.9093 H         1 UNK         0.0600 
    197 H197       -2.7359  -26.6602  -44.3229 H         1 UNK         0.0600 
    198 H198       -3.0073  -25.1888  -43.4004 H         1 UNK         0.0600 
    199 H199       -1.8978  -25.1779  -44.7698 H         1 UNK         0.0600 
    200 H200       -2.6990  -24.2833  -47.3767 H         1 UNK         0.3000 
    201 H201       -3.5143  -26.3103  -49.3381 H         1 UNK         0.0600 
    202 H202       -1.1258  -26.9183  -49.8028 H         1 UNK         0.0600 
    203 H203       -1.5266  -27.3273  -48.1474 H         1 UNK         0.0600 
    204 H204       -0.5858  -25.8779  -48.4874 H         1 UNK         0.0600 
    205 H205       -2.0492  -25.7226  -51.4408 H         1 UNK         0.3000 
    206 H206       -2.7873  -23.0099  -52.1386 H         1 UNK         0.0600 
    207 H207       -2.8689  -25.0636  -53.6745 H         1 UNK         0.0600 
    208 H208       -2.0925  -23.6517  -54.3565 H         1 UNK         0.0600 
    209 H209       -1.1134  -24.9939  -53.7623 H         1 UNK         0.0600 
    210 H210        0.0311  -24.3747  -50.7894 H         1 UNK         0.3000 
    211 H211        1.9861  -23.6973  -50.1011 H         1 UNK         0.0600 
    212 H212        0.9930  -20.8427  -50.5719 H         1 UNK         0.0600 
    213 H213        2.3514  -21.3110  -49.5618 H         1 UNK         0.0600 
    214 H214        0.7241  -21.8022  -49.1188 H         1 UNK         0.0600 
    215 H215        1.2213  -21.7575  -52.9753 H         1 UNK         0.3000 
    216 H216        3.6921  -22.5774  -54.3500 H         1 UNK         0.0600 
    217 H217        3.0231  -19.6211  -53.8580 H         1 UNK         0.0600 
    218 H218        4.3252  -20.2256  -54.8788 H         1 UNK         0.0600 
    219 H219        4.3805  -20.4907  -53.1444 H         1 UNK         0.0600 
    220 H220        1.1088  -23.4292  -54.6647 H         1 UNK         0.3000 
    221 H221       -0.5007  -23.8689  -56.1156 H         1 UNK         0.0600 
    222 H222        1.1914  -22.4864  -58.2541 H         1 UNK         0.0600 
    223 H223        1.3986  -24.1540  -57.7199 H         1 UNK         0.0600 
    224 H224       -0.0856  -23.6638  -58.5175 H         1 UNK         0.0600 
    225 H225       -0.7229  -21.3940  -54.5590 H         1 UNK         0.3000 
    226 H226       -2.1409  -19.4629  -56.2727 H         1 UNK         0.0600 
    227 H227       -0.5611  -18.6230  -54.5799 H         1 UNK         0.0600 
    228 H228       -2.1998  -18.1463  -54.1538 H         1 UNK         0.0600 
    229 H229       -1.4234  -19.4742  -53.3032 H         1 UNK         0.0600 
    230 H230       -3.8089  -20.9339  -56.8935 H         1 UNK         0.3000 
    231 H231       -5.9169  -21.4840  -57.0519 H         1 UNK         0.0600 
    232 H232       -6.2680  -19.1217  -56.3730 H         1 UNK         0.0600 
    233 H233       -6.3771  -19.6019  -54.6806 H         1 UNK         0.0600 
    234 H234       -7.5973  -20.1305  -55.8275 H         1 UNK         0.0600 
    235 H235       -4.6276  -22.1815  -53.9268 H         1 UNK         0.3000 
    236 H236       -4.8880  -23.8366  -52.4393 H         1 UNK         0.0600 
    237 H237       -5.9011  -25.9716  -52.9946 H         1 UNK         0.0600 
    238 H238       -6.7952  -25.2866  -54.3417 H         1 UNK         0.0600 
    239 H239       -5.0435  -25.4153  -54.4237 H         1 UNK         0.0600 
    240 H240       -6.2222  -21.5129  -52.0333 H         1 UNK         0.3000 
    241 H241       -8.9844  -21.9447  -51.3706 H         1 UNK         0.0600 
    242 H242       -6.0975  -22.6838  -49.4960 H         1 UNK         0.3800 
    243 H243       -6.9598  -23.0612  -48.0293 H         1 UNK         0.3800 
    244 H244       -9.0166  -19.6948  -50.5023 H         1 UNK         0.0800 
    245 H245       -8.2137  -19.7227  -52.0402 H         1 UNK         0.0800 
    246 H246       -6.6352  -17.6266  -52.0754 H         1 UNK         0.0800 
    247 H247       -5.7052  -19.0665  -52.4344 H         1 UNK         0.0800 
@<TRIPOS>BOND
     1    1    2 1    
     2    1  127 1    
     3    1  128 1    
     4    1  129 1    
     5    2    3 2    
     6    2    4 am   BACKBONE|DICT|INTERRES
     7    4    5 1    
     8    4  130 1    
     9    5    6 1    
    10    5   65 1    
    11    5  131 1    
    12    6    7 1    
    13    6  132 1    
    14    6  133 1    
    15    7    8 1    
    16    8    9 1    
    17    8  134 1    
    18    8  135 1    
    19    9   10 ar   
    20    9   14 ar   
    21   10   11 ar   
    22   10  136 1    
    23   11   12 ar   
    24   11  126 1    
    25   12   13 ar   
    26   12  137 1    
    27   13   14 ar   
    28   13   15 1    
    29   14  138 1    
    30   15   16 1    
    31   15  139 1    
    32   15  140 1    
    33   16   17 1    
    34   17   18 1    
    35   17  141 1    
    36   17  142 1    
    37   18   19 1    
    38   18   67 1    
    39   18  143 1    
    40   19   20 am   BACKBONE|DICT|INTERRES
    41   19  144 1    
    42   20   21 2    
    43   20   22 1    
    44   22   23 1    
    45   22   24 1    
    46   22  145 1    
    47   23  146 1    
    48   23  147 1    
    49   23  148 1    
    50   24   25 am   BACKBONE|DICT|INTERRES
    51   24  149 1    
    52   25   26 2    
    53   25   27 1    
    54   27   28 1    
    55   27   29 1    
    56   27  150 1    
    57   28  151 1    
    58   28  152 1    
    59   28  153 1    
    60   29   30 am   BACKBONE|DICT|INTERRES
    61   29  154 1    
    62   30   31 2    
    63   30   32 1    
    64   32   33 1    
    65   32   34 1    
    66   32  155 1    
    67   33  156 1    
    68   33  157 1    
    69   33  158 1    
    70   34   35 am   BACKBONE|DICT|INTERRES
    71   34  159 1    
    72   35   36 2    
    73   35   37 1    
    74   37   38 1    
    75   37   39 1    
    76   37  160 1    
    77   38  161 1    
    78   38  162 1    
    79   38  163 1    
    80   39   40 am   BACKBONE|DICT|INTERRES
    81   39  164 1    
    82   40   41 2    
    83   40   42 1    
    84   42   43 1    
    85   42   44 1    
    86   42  165 1    
    87   43  166 1    
    88   43  167 1    
    89   43  168 1    
    90   44   45 am   BACKBONE|DICT|INTERRES
    91   44  169 1    
    92   45   46 2    
    93   45   47 1    
    94   47   48 1    
    95   47   49 1    
    96   47  170 1    
    97   48  171 1    
    98   48  172 1    
    99   48  173 1    
   100   49   50 am   BACKBONE|DICT|INTERRES
   101   49  174 1    
   102   50   51 2    
   103   50   52 1    
   104   52   53 1    
   105   52   54 1    
   106   52  175 1    
   107   53  176 1    
   108   53  177 1    
   109   53  178 1    
   110   54   55 am   BACKBONE|DICT|INTERRES
   111   54  179 1    
   112   55   56 2    
   113   55   57 1    
   114   57   58 1    
   115   57   59 1    
   116   57  180 1    
   117   58  181 1    
   118   58  182 1    
   119   58  183 1    
   120   59   60 am   BACKBONE|DICT|INTERRES
   121   59  184 1    
   122   60   61 2    
   123   60   62 1    
   124   62   63 1    
   125   62   64 1    
   126   62  185 1    
   127   63  186 1    
   128   63  187 1    
   129   63  188 1    
   130   64   65 am   BACKBONE|DICT|INTERRES
   131   64  189 1    
   132   65   66 2    
   133   67   68 2    
   134   67   69 am   BACKBONE|DICT|INTERRES
   135   69   70 1    
   136   69  190 1    
   137   70   71 1    
   138   70   72 1    
   139   70  191 1    
   140   71  192 1    
   141   71  193 1    
   142   71  194 1    
   143   72   73 2    
   144   72   74 am   BACKBONE|DICT|INTERRES
   145   74   75 1    
   146   74  195 1    
   147   75   76 1    
   148   75   77 1    
   149   75  196 1    
   150   76  197 1    
   151   76  198 1    
   152   76  199 1    
   153   77   78 2    
   154   77   79 am   BACKBONE|DICT|INTERRES
   155   79   80 1    
   156   79  200 1    
   157   80   81 1    
   158   80   82 1    
   159   80  201 1    
   160   81  202 1    
   161   81  203 1    
   162   81  204 1    
   163   82   83 2    
   164   82   84 am   BACKBONE|DICT|INTERRES
   165   84   85 1    
   166   84  205 1    
   167   85   86 1    
   168   85   87 1    
   169   85  206 1    
   170   86  207 1    
   171   86  208 1    
   172   86  209 1    
   173   87   88 2    
   174   87   89 am   BACKBONE|DICT|INTERRES
   175   89   90 1    
   176   89  210 1    
   177   90   91 1    
   178   90   92 1    
   179   90  211 1    
   180   91  212 1    
   181   91  213 1    
   182   91  214 1    
   183   92   93 2    
   184   92   94 am   BACKBONE|DICT|INTERRES
   185   94   95 1    
   186   94  215 1    
   187   95   96 1    
   188   95   97 1    
   189   95  216 1    
   190   96  217 1    
   191   96  218 1    
   192   96  219 1    
   193   97   98 2    
   194   97   99 am   BACKBONE|DICT|INTERRES
   195   99  100 1    
   196   99  220 1    
   197  100  101 1    
   198  100  102 1    
   199  100  221 1    
   200  101  222 1    
   201  101  223 1    
   202  101  224 1    
   203  102  103 2    
   204  102  104 am   BACKBONE|DICT|INTERRES
   205  104  105 1    
   206  104  225 1    
   207  105  106 1    
   208  105  107 1    
   209  105  226 1    
   210  106  227 1    
   211  106  228 1    
   212  106  229 1    
   213  107  108 2    
   214  107  109 am   BACKBONE|DICT|INTERRES
   215  109  110 1    
   216  109  230 1    
   217  110  111 1    
   218  110  112 1    
   219  110  231 1    
   220  111  232 1    
   221  111  233 1    
   222  111  234 1    
   223  112  113 2    
   224  112  114 am   BACKBONE|DICT|INTERRES
   225  114  115 1    
   226  114  235 1    
   227  115  116 1    
   228  115  117 1    
   229  115  236 1    
   230  116  237 1    
   231  116  238 1    
   232  116  239 1    
   233  117  118 2    
   234  117  119 am   BACKBONE|DICT|INTERRES
   235  119  120 1    
   236  119  240 1    
   237  120  121 1    
   238  120  124 1    
   239  120  241 1    
   240  121  122 am   BACKBONE|DICT|INTERRES
   241  121  123 2    
   242  122  242 1    
   243  122  243 1    
   244  124  125 1    
   245  124  244 1    
   246  124  245 1    
   247  125  126 1    
   248  126  246 1    
   249  126  247 1    
@<TRIPOS>SUBSTRUCTURE
     1 UNK         1 GROUP             0       ****    0 ROOT    
