@<TRIPOS>MOLECULE
3R540
247   249    1
SMALL
USER_CHARGES


@<TRIPOS>ATOM
      1 CA         -1.1899  -11.7828  -53.2523 C.3       0 UNK        -0.1800 
      2 C           0.0506  -12.0440  -52.4102 C.2       0 UNK         0.5000 
      3 O           1.0790  -11.4041  -52.6322 O.2       0 UNK        -0.5000 
      4 N          -0.0330  -12.9778  -51.4531 N.am      1 UNK        -0.5000 
      5 CA          1.0417  -13.2865  -50.5035 C.3       1 UNK         0.1400 
      6 C6          0.7620  -14.5893  -49.7166 C.3       23 UNK        -0.0398 
      7 S7          2.2800  -15.2668  -48.9490 S.3       23 UNK        -0.2404 
      8 C8          2.0036  -17.0749  -48.9871 C.3       23 UNK        -0.0205 
      9 C9          2.0545  -17.7561  -50.3590 C.ar      23 UNK        -0.0193 
     10 C10         2.1750  -17.0479  -51.5610 C.ar      23 UNK        -0.1150 
     11 C11         2.1360  -17.7086  -52.7890 C.ar      23 UNK        -0.0193 
     12 C12         2.0194  -19.0998  -52.8159 C.ar      23 UNK        -0.1150 
     13 C13         1.9205  -19.8363  -51.6311 C.ar      23 UNK        -0.0193 
     14 C14         1.9431  -19.1506  -50.4080 C.ar      23 UNK        -0.1150 
     15 C15         1.7478  -21.3546  -51.7398 C.3       23 UNK        -0.0205 
     16 S16         2.1473  -22.3238  -50.2421 S.3       23 UNK        -0.2404 
     17 C17         0.5243  -22.4206  -49.4125 C.3       23 UNK        -0.0398 
     18 CA          0.5271  -23.4289  -48.2388 C.3       11 UNK         0.1400 
     19 N           1.4852  -23.0507  -47.1956 N.am      11 UNK        -0.5000 
     20 C           1.8965  -23.8601  -46.2116 C.2       10 UNK         0.5000 
     21 O           1.5289  -25.0278  -46.0896 O.2       10 UNK        -0.5000 
     22 CA          2.8341  -23.2393  -45.1574 C.3       10 UNK         0.1400 
     23 CB          4.2942  -23.3073  -45.6293 C.3       10 UNK        -0.1800 
     24 N           2.4993  -21.8526  -44.8075 N.am      10 UNK        -0.5000 
     25 C           1.3184  -21.4575  -44.3127 C.2       9 UNK         0.5000 
     26 O           0.3612  -22.2191  -44.1613 O.2       9 UNK        -0.5000 
     27 CA          1.1658  -19.9588  -43.9864 C.3       9 UNK         0.1400 
     28 CB          0.8845  -19.1639  -45.2713 C.3       9 UNK        -0.1800 
     29 N           0.0792  -19.7128  -43.0360 N.am      9 UNK        -0.5000 
     30 C           0.0542  -20.1249  -41.7625 C.2       8 UNK         0.5000 
     31 O           1.0105  -20.6786  -41.2169 O.2       8 UNK        -0.5000 
     32 CA         -1.2392  -19.9107  -40.9432 C.3       8 UNK         0.1400 
     33 CB         -1.0735  -18.7436  -39.9512 C.3       8 UNK        -0.1800 
     34 N          -2.4958  -19.7765  -41.7008 N.am      8 UNK        -0.5000 
     35 C          -2.8666  -18.8049  -42.5450 C.2       7 UNK         0.5000 
     36 O          -2.1279  -17.8887  -42.9052 O.2       7 UNK        -0.5000 
     37 CA         -4.3103  -18.8648  -43.0633 C.3       7 UNK         0.1400 
     38 CB         -5.2835  -18.2497  -42.0451 C.3       7 UNK        -0.1800 
     39 N          -4.3919  -18.1163  -44.3116 N.am      7 UNK        -0.5000 
     40 C          -5.0332  -18.5090  -45.4167 C.2       6 UNK         0.5000 
     41 O          -5.7217  -19.5284  -45.4746 O.2       6 UNK        -0.5000 
     42 CA         -4.9011  -17.6262  -46.6773 C.3       6 UNK         0.1400 
     43 CB         -6.2384  -16.9365  -46.9884 C.3       6 UNK        -0.1800 
     44 N          -3.8511  -16.6019  -46.6372 N.am      6 UNK        -0.5000 
     45 C          -2.5341  -16.8259  -46.5330 C.2       5 UNK         0.5000 
     46 O          -2.0477  -17.9365  -46.3308 O.2       5 UNK        -0.5000 
     47 CA         -1.5893  -15.6252  -46.7272 C.3       5 UNK         0.1400 
     48 CB         -2.2778  -14.3283  -47.2152 C.3       5 UNK        -0.1800 
     49 N          -0.7702  -15.3598  -45.5478 N.am      5 UNK        -0.5000 
     50 C          -1.1827  -14.9304  -44.3469 C.2       4 UNK         0.5000 
     51 O          -2.3654  -14.7787  -44.0368 O.2       4 UNK        -0.5000 
     52 CA         -0.0770  -14.5531  -43.3349 C.3       4 UNK         0.1400 
     53 CB          0.0875  -15.6416  -42.2656 C.3       4 UNK        -0.1800 
     54 N           1.2315  -14.2947  -43.9496 N.am      4 UNK        -0.5000 
     55 C           1.5154  -13.2655  -44.7616 C.2       3 UNK         0.5000 
     56 O           0.6921  -12.3965  -45.0557 O.2       3 UNK        -0.5000 
     57 CA          2.9494  -13.2075  -45.3367 C.3       3 UNK         0.1400 
     58 CB          3.6124  -14.5957  -45.4534 C.3       3 UNK        -0.1800 
     59 N           2.9711  -12.5697  -46.6539 N.am      3 UNK        -0.5000 
     60 C           3.0458  -11.2499  -46.8770 C.2       2 UNK         0.5000 
     61 O           3.1565  -10.4116  -45.9808 O.2       2 UNK        -0.5000 
     62 CA          3.0215  -10.7773  -48.3460 C.3       2 UNK         0.1400 
     63 CB          4.4173  -10.3002  -48.7785 C.3       2 UNK        -0.1800 
     64 N           2.5739  -11.8134  -49.2800 N.am      2 UNK        -0.5000 
     65 C           1.2928  -12.1040  -49.5400 C.2       1 UNK         0.5000 
     66 O           0.3374  -11.5078  -49.0374 O.2       1 UNK        -0.5000 
     67 C          -0.8945  -23.6162  -47.6639 C.2       11 UNK         0.5000 
     68 O          -1.6094  -24.5223  -48.0913 O.2       11 UNK        -0.5000 
     69 N          -1.2722  -22.7859  -46.6803 N.am      12 UNK        -0.5000 
     70 CA         -2.5577  -22.8718  -45.9862 C.3       12 UNK         0.1400 
     71 CB         -2.8354  -21.5654  -45.2293 C.3       12 UNK        -0.1800 
     72 C          -2.6090  -24.0826  -45.0399 C.2       12 UNK         0.5000 
     73 O          -3.6269  -24.7717  -44.9925 O.2       12 UNK        -0.5000 
     74 N          -1.4908  -24.3602  -44.3546 N.am      13 UNK        -0.5000 
     75 CA         -1.2831  -25.5470  -43.5204 C.3       13 UNK         0.1400 
     76 CB          0.0456  -25.4073  -42.7630 C.3       13 UNK        -0.1800 
     77 C          -1.3222  -26.8619  -44.3263 C.2       13 UNK         0.5000 
     78 O          -1.7842  -27.8790  -43.8093 O.2       13 UNK        -0.5000 
     79 N          -0.8916  -26.8025  -45.5942 N.am      14 UNK        -0.5000 
     80 CA         -1.0049  -27.8741  -46.5871 C.3       14 UNK         0.1400 
     81 CB          0.0587  -27.6544  -47.6761 C.3       14 UNK        -0.1800 
     82 C          -2.4168  -27.9992  -47.2066 C.2       14 UNK         0.5000 
     83 O          -2.6109  -28.8458  -48.0797 O.2       14 UNK        -0.5000 
     84 N          -3.3698  -27.1687  -46.7549 N.am      15 UNK        -0.5000 
     85 CA         -4.7786  -27.1005  -47.1567 C.3       15 UNK         0.1400 
     86 CB         -5.5059  -28.4378  -46.9016 C.3       15 UNK        -0.1800 
     87 C          -5.0008  -26.5545  -48.5818 C.2       15 UNK         0.5000 
     88 O          -6.0672  -26.7760  -49.1577 O.2       15 UNK        -0.5000 
     89 N          -4.0239  -25.8093  -49.1133 N.am      16 UNK        -0.5000 
     90 CA         -4.0914  -25.1215  -50.3996 C.3       16 UNK         0.1400 
     91 CB         -2.8148  -25.4351  -51.2014 C.3       16 UNK        -0.1800 
     92 C          -4.2848  -23.6160  -50.1492 C.2       16 UNK         0.5000 
     93 O          -3.4857  -22.8016  -50.6101 O.2       16 UNK        -0.5000 
     94 N          -5.3400  -23.2653  -49.3995 N.am      17 UNK        -0.5000 
     95 CA         -5.6437  -21.9034  -48.9448 C.3       17 UNK         0.1400 
     96 CB         -6.8763  -21.9368  -48.0309 C.3       17 UNK        -0.1800 
     97 C          -5.8360  -20.8765  -50.0790 C.2       17 UNK         0.5000 
     98 O          -5.4743  -19.7129  -49.9080 O.2       17 UNK        -0.5000 
     99 N          -6.3618  -21.3268  -51.2270 N.am      18 UNK        -0.5000 
    100 CA        -6.5142  -20.5155  -52.4373 C.3       18 UNK         0.1400 
    101 CB        -7.4053  -21.2609  -53.4419 C.3       18 UNK        -0.1800 
    102 C         -5.1610  -20.1492  -53.0762 C.2       18 UNK         0.5000 
    103 O         -4.9847  -19.0164  -53.5269 O.2       18 UNK        -0.5000 
    104 N         -4.2163  -21.1007  -53.0673 N.am      19 UNK        -0.5000 
    105 CA        -2.8349  -20.8821  -53.4960 C.3       19 UNK         0.1400 
    106 CB        -2.1369  -22.2303  -53.7328 C.3       19 UNK        -0.1800 
    107 C         -2.0602  -20.0397  -52.4709 C.2       19 UNK         0.5000 
    108 O         -1.2596  -19.1997  -52.8697 O.2       19 UNK        -0.5000 
    109 N         -2.3416  -20.2606  -51.1787 N.am      20 UNK        -0.5000 
    110 CA        -1.7757  -19.5217  -50.0523 C.3       20 UNK         0.1400 
    111 CB        -2.1989  -20.1881  -48.7373 C.3       20 UNK        -0.1800 
    112 C         -2.1543  -18.0332  -50.0518 C.2       20 UNK         0.5000 
    113 O         -1.3220  -17.2031  -49.6959 O.2       20 UNK        -0.5000 
    114 N         -3.3882  -17.7139  -50.4686 N.am      21 UNK        -0.5000 
    115 CA        -3.8400  -16.3446  -50.7136 C.3       21 UNK         0.1400 
    116 CB        -5.3393  -16.3457  -51.0479 C.3       21 UNK        -0.1800 
    117 C         -3.0160  -15.6726  -51.8286 C.2       21 UNK         0.5000 
    118 O         -2.5025  -14.5710  -51.6317 O.2       21 UNK        -0.5000 
    119 N         -2.8606  -16.3938  -52.9468 N.am      22 UNK        -0.5000 
    120 CA        -1.9941  -16.0703  -54.0928 C.3       22 UNK         0.1400 
    121 C         -2.4516  -14.8541  -54.9559 C.2       22 UNK         0.5000 
    122 N         -3.6669  -14.3460  -54.7913 N.am      22 UNK        -0.7600 
    123 O         -1.7113  -14.3774  -55.8113 O.2       22 UNK        -0.5000 
    124 C124       -0.4855  -16.0197  -53.7018 C.3       23 UNK        -0.0398 
    125 S125        0.5858  -16.8364  -54.9381 S.3       23 UNK        -0.2404 
    126 C126        2.1960  -16.9090  -54.0837 C.3       23 UNK        -0.0205 
    127 H127       -1.0068  -12.0699  -54.2875 H         1 UNK         0.0600 
    128 H128       -1.4403  -10.7223  -53.2318 H         1 UNK         0.0600 
    129 H129       -2.0547  -12.3382  -52.8919 H         1 UNK         0.0600 
    130 H130       -0.9098  -13.4775  -51.3271 H         1 UNK         0.3000 
    131 H131        1.9427  -13.4420  -51.1015 H         1 UNK         0.0600 
    132 H132        0.0081  -14.4242  -48.9491 H         1 UNK         0.0800 
    133 H133        0.3403  -15.3387  -50.3858 H         1 UNK         0.0800 
    134 H134        1.0434  -17.2916  -48.5179 H         1 UNK         0.0800 
    135 H135        2.7616  -17.5339  -48.3509 H         1 UNK         0.0800 
    136 H136        2.2717  -15.9739  -51.5620 H         1 UNK         0.1150 
    137 H137        1.9768  -19.6077  -53.7692 H         1 UNK         0.1150 
    138 H138        1.8495  -19.6931  -49.4797 H         1 UNK         0.1150 
    139 H139        0.7270  -21.5705  -52.0575 H         1 UNK         0.0800 
    140 H140        2.3954  -21.7201  -52.5381 H         1 UNK         0.0800 
    141 H141       -0.2309  -22.6961  -50.1521 H         1 UNK         0.0800 
    142 H142        0.2672  -21.4261  -49.0531 H         1 UNK         0.0800 
    143 H143        0.8350  -24.3989  -48.6357 H         1 UNK         0.0600 
    144 H144        1.8565  -22.1135  -47.2358 H         1 UNK         0.3000 
    145 H145        2.7429  -23.8370  -44.2483 H         1 UNK         0.0600 
    146 H146        4.9769  -22.9635  -44.8521 H         1 UNK         0.0600 
    147 H147        4.5767  -24.3313  -45.8779 H         1 UNK         0.0600 
    148 H148        4.4599  -22.6964  -46.5176 H         1 UNK         0.0600 
    149 H149        3.2369  -21.1720  -44.9185 H         1 UNK         0.3000 
    150 H150        2.0956  -19.6000  -43.5407 H         1 UNK         0.0600 
    151 H151       -0.0069  -19.5329  -45.7797 H         1 UNK         0.0600 
    152 H152        1.7159  -19.2364  -45.9732 H         1 UNK         0.0600 
    153 H153        0.7309  -18.1056  -45.0584 H         1 UNK         0.0600 
    154 H154       -0.7293  -19.2062  -43.3787 H         1 UNK         0.3000 
    155 H155       -1.3621  -20.8187  -40.3507 H         1 UNK         0.0600 
    156 H156       -0.9341  -17.7928  -40.4636 H         1 UNK         0.0600 
    157 H157       -0.2051  -18.8962  -39.3093 H         1 UNK         0.0600 
    158 H158       -1.9442  -18.6505  -39.3021 H         1 UNK         0.0600 
    159 H159       -3.1730  -20.4997  -41.5027 H         1 UNK         0.3000 
    160 H160       -4.5730  -19.9114  -43.2264 H         1 UNK         0.0600 
    161 H161       -5.0440  -17.2049  -41.8423 H         1 UNK         0.0600 
    162 H162       -5.2508  -18.7856  -41.0957 H         1 UNK         0.0600 
    163 H163       -6.3107  -18.2932  -42.4076 H         1 UNK         0.0600 
    164 H164       -3.7678  -17.3203  -44.3661 H         1 UNK         0.3000 
    165 H165       -4.6686  -18.2938  -47.5084 H         1 UNK         0.0600 
    166 H166       -6.1829  -16.3590  -47.9107 H         1 UNK         0.0600 
    167 H167       -7.0365  -17.6694  -47.1150 H         1 UNK         0.0600 
    168 H168       -6.5363  -16.2603  -46.1861 H         1 UNK         0.0600 
    169 H169       -4.1580  -15.6486  -46.7609 H         1 UNK         0.3000 
    170 H170       -0.8851  -15.9338  -47.4975 H         1 UNK         0.0600 
    171 H171       -2.7533  -14.4737  -48.1841 H         1 UNK         0.0600 
    172 H172       -3.0375  -13.9718  -46.5192 H         1 UNK         0.0600 
    173 H173       -1.5511  -13.5246  -47.3374 H         1 UNK         0.0600 
    174 H174        0.2226  -15.4826  -45.6740 H         1 UNK         0.3000 
    175 H175       -0.3969  -13.6358  -42.8363 H         1 UNK         0.0600 
    176 H176       -0.8513  -15.7960  -41.7331 H         1 UNK         0.0600 
    177 H177        0.3802  -16.5971  -42.7028 H         1 UNK         0.0600 
    178 H178        0.8366  -15.3637  -41.5242 H         1 UNK         0.0600 
    179 H179        1.9604  -14.9624  -43.7446 H         1 UNK         0.3000 
    180 H180        3.5474  -12.6117  -44.6443 H         1 UNK         0.0600 
    181 H181        2.9981  -15.2943  -46.0222 H         1 UNK         0.0600 
    182 H182        3.7953  -15.0348  -44.4722 H         1 UNK         0.0600 
    183 H183        4.5805  -14.5272  -45.9504 H         1 UNK         0.0600 
    184 H184        2.8527  -13.1805  -47.4490 H         1 UNK         0.3000 
    185 H185        2.3399   -9.9259  -48.4043 H         1 UNK         0.0600 
    186 H186        4.7758   -9.4992  -48.1306 H         1 UNK         0.0600 
    187 H187        5.1496  -11.1076  -48.7377 H         1 UNK         0.0600 
    188 H188        4.4029   -9.9098  -49.7963 H         1 UNK         0.0600 
    189 H189        3.3008  -12.3503  -49.7317 H         1 UNK         0.3000 
    190 H190       -0.6037  -22.1273  -46.3085 H         1 UNK         0.3000 
    191 H191       -3.3428  -22.9988  -46.7351 H         1 UNK         0.0600 
    192 H192       -2.8192  -20.7054  -45.8982 H         1 UNK         0.0600 
    193 H193       -3.8223  -21.5967  -44.7674 H         1 UNK         0.0600 
    194 H194       -2.1087  -21.3857  -44.4376 H         1 UNK         0.0600 
    195 H195       -0.7205  -23.6964  -44.4027 H         1 UNK         0.3000 
    196 H196       -2.0919  -25.5833  -42.7879 H         1 UNK         0.0600 
    197 H197        0.1998  -26.2492  -42.0871 H         1 UNK         0.0600 
    198 H198        0.0638  -24.4978  -42.1619 H         1 UNK         0.0600 
    199 H199        0.8953  -25.3740  -43.4447 H         1 UNK         0.0600 
    200 H200       -0.4621  -25.9424  -45.9128 H         1 UNK         0.3000 
    201 H201       -0.7880  -28.8241  -46.0948 H         1 UNK         0.0600 
    202 H202        0.0657  -28.4776  -48.3913 H         1 UNK         0.0600 
    203 H203        1.0582  -27.5934  -47.2451 H         1 UNK         0.0600 
    204 H204       -0.1209  -26.7371  -48.2361 H         1 UNK         0.0600 
    205 H205       -3.1067  -26.4883  -46.0517 H         1 UNK         0.3000 
    206 H206       -5.2333  -26.3634  -46.4940 H         1 UNK         0.0600 
    207 H207       -5.3288  -28.7961  -45.8874 H         1 UNK         0.0600 
    208 H208       -6.5841  -28.3248  -47.0196 H         1 UNK         0.0600 
    209 H209       -5.1846  -29.2155  -47.5947 H         1 UNK         0.0600 
    210 H210       -3.1915  -25.6135  -48.5638 H         1 UNK         0.3000 
    211 H211       -4.9455  -25.4676  -50.9845 H         1 UNK         0.0600 
    212 H212       -1.9206  -25.0459  -50.7135 H         1 UNK         0.0600 
    213 H213       -2.8642  -24.9971  -52.1984 H         1 UNK         0.0600 
    214 H214       -2.6844  -26.5101  -51.3265 H         1 UNK         0.0600 
    215 H215       -5.9526  -23.9972  -49.0694 H         1 UNK         0.3000 
    216 H216       -4.7969  -21.5688  -48.3445 H         1 UNK         0.0600 
    217 H217       -7.1110  -20.9390  -47.6566 H         1 UNK         0.0600 
    218 H218       -6.7058  -22.5733  -47.1624 H         1 UNK         0.0600 
    219 H219       -7.7575  -22.3082  -48.5552 H         1 UNK         0.0600 
    220 H220       -6.6393  -22.2955  -51.2837 H         1 UNK         0.3000 
    221 H221       -7.0145  -19.5842  -52.1628 H         1 UNK         0.0600 
    222 H222       -6.9696  -22.2158  -53.7384 H         1 UNK         0.0600 
    223 H223       -8.3923  -21.4575  -53.0228 H         1 UNK         0.0600 
    224 H224       -7.5497  -20.6704  -54.3477 H         1 UNK         0.0600 
    225 H225       -4.4153  -21.9833  -52.6189 H         1 UNK         0.3000 
    226 H226       -2.8479  -20.3367  -54.4422 H         1 UNK         0.0600 
    227 H227       -1.1370  -22.0794  -54.1414 H         1 UNK         0.0600 
    228 H228       -2.0257  -22.7985  -52.8096 H         1 UNK         0.0600 
    229 H229       -2.6900  -22.8444  -54.4434 H         1 UNK         0.0600 
    230 H230       -2.9594  -21.0351  -50.9525 H         1 UNK         0.3000 
    231 H231       -0.6933  -19.5889  -50.1427 H         1 UNK         0.0600 
    232 H232       -3.1941  -19.8771  -48.4244 H         1 UNK         0.0600 
    233 H233       -1.5092  -19.9227  -47.9366 H         1 UNK         0.0600 
    234 H234       -2.2045  -21.2727  -48.8187 H         1 UNK         0.0600 
    235 H235       -4.0489  -18.4611  -50.6518 H         1 UNK         0.3000 
    236 H236       -3.6986  -15.7768  -49.7941 H         1 UNK         0.0600 
    237 H237       -5.9200  -16.8179  -50.2559 H         1 UNK         0.0600 
    238 H238       -5.7123  -15.3277  -51.1650 H         1 UNK         0.0600 
    239 H239       -5.5499  -16.8816  -51.9734 H         1 UNK         0.0600 
    240 H240       -3.3252  -17.2908  -52.9997 H         1 UNK         0.3000 
    241 H241       -2.1348  -16.9280  -54.7514 H         1 UNK         0.0600 
    242 H242       -3.9613  -13.5689  -55.3612 H         1 UNK         0.3800 
    243 H243       -4.2931  -14.7310  -54.1032 H         1 UNK         0.3800 
    244 H244       -0.1444  -14.9972  -53.5368 H         1 UNK         0.0800 
    245 H245       -0.3372  -16.5387  -52.7543 H         1 UNK         0.0800 
    246 H246        2.9289  -17.3637  -54.7514 H         1 UNK         0.0800 
    247 H247        2.5446  -15.8922  -53.8962 H         1 UNK         0.0800 
@<TRIPOS>BOND
     1    1    2 1    
     2    1  127 1    
     3    1  128 1    
     4    1  129 1    
     5    2    3 2    
     6    2    4 am   BACKBONE|DICT|INTERRES
     7    4    5 1    
     8    4  130 1    
     9    5    6 1    
    10    5   65 1    
    11    5  131 1    
    12    6    7 1    
    13    6  132 1    
    14    6  133 1    
    15    7    8 1    
    16    8    9 1    
    17    8  134 1    
    18    8  135 1    
    19    9   10 ar   
    20    9   14 ar   
    21   10   11 ar   
    22   10  136 1    
    23   11   12 ar   
    24   11  126 1    
    25   12   13 ar   
    26   12  137 1    
    27   13   14 ar   
    28   13   15 1    
    29   14  138 1    
    30   15   16 1    
    31   15  139 1    
    32   15  140 1    
    33   16   17 1    
    34   17   18 1    
    35   17  141 1    
    36   17  142 1    
    37   18   19 1    
    38   18   67 1    
    39   18  143 1    
    40   19   20 am   BACKBONE|DICT|INTERRES
    41   19  144 1    
    42   20   21 2    
    43   20   22 1    
    44   22   23 1    
    45   22   24 1    
    46   22  145 1    
    47   23  146 1    
    48   23  147 1    
    49   23  148 1    
    50   24   25 am   BACKBONE|DICT|INTERRES
    51   24  149 1    
    52   25   26 2    
    53   25   27 1    
    54   27   28 1    
    55   27   29 1    
    56   27  150 1    
    57   28  151 1    
    58   28  152 1    
    59   28  153 1    
    60   29   30 am   BACKBONE|DICT|INTERRES
    61   29  154 1    
    62   30   31 2    
    63   30   32 1    
    64   32   33 1    
    65   32   34 1    
    66   32  155 1    
    67   33  156 1    
    68   33  157 1    
    69   33  158 1    
    70   34   35 am   BACKBONE|DICT|INTERRES
    71   34  159 1    
    72   35   36 2    
    73   35   37 1    
    74   37   38 1    
    75   37   39 1    
    76   37  160 1    
    77   38  161 1    
    78   38  162 1    
    79   38  163 1    
    80   39   40 am   BACKBONE|DICT|INTERRES
    81   39  164 1    
    82   40   41 2    
    83   40   42 1    
    84   42   43 1    
    85   42   44 1    
    86   42  165 1    
    87   43  166 1    
    88   43  167 1    
    89   43  168 1    
    90   44   45 am   BACKBONE|DICT|INTERRES
    91   44  169 1    
    92   45   46 2    
    93   45   47 1    
    94   47   48 1    
    95   47   49 1    
    96   47  170 1    
    97   48  171 1    
    98   48  172 1    
    99   48  173 1    
   100   49   50 am   BACKBONE|DICT|INTERRES
   101   49  174 1    
   102   50   51 2    
   103   50   52 1    
   104   52   53 1    
   105   52   54 1    
   106   52  175 1    
   107   53  176 1    
   108   53  177 1    
   109   53  178 1    
   110   54   55 am   BACKBONE|DICT|INTERRES
   111   54  179 1    
   112   55   56 2    
   113   55   57 1    
   114   57   58 1    
   115   57   59 1    
   116   57  180 1    
   117   58  181 1    
   118   58  182 1    
   119   58  183 1    
   120   59   60 am   BACKBONE|DICT|INTERRES
   121   59  184 1    
   122   60   61 2    
   123   60   62 1    
   124   62   63 1    
   125   62   64 1    
   126   62  185 1    
   127   63  186 1    
   128   63  187 1    
   129   63  188 1    
   130   64   65 am   BACKBONE|DICT|INTERRES
   131   64  189 1    
   132   65   66 2    
   133   67   68 2    
   134   67   69 am   BACKBONE|DICT|INTERRES
   135   69   70 1    
   136   69  190 1    
   137   70   71 1    
   138   70   72 1    
   139   70  191 1    
   140   71  192 1    
   141   71  193 1    
   142   71  194 1    
   143   72   73 2    
   144   72   74 am   BACKBONE|DICT|INTERRES
   145   74   75 1    
   146   74  195 1    
   147   75   76 1    
   148   75   77 1    
   149   75  196 1    
   150   76  197 1    
   151   76  198 1    
   152   76  199 1    
   153   77   78 2    
   154   77   79 am   BACKBONE|DICT|INTERRES
   155   79   80 1    
   156   79  200 1    
   157   80   81 1    
   158   80   82 1    
   159   80  201 1    
   160   81  202 1    
   161   81  203 1    
   162   81  204 1    
   163   82   83 2    
   164   82   84 am   BACKBONE|DICT|INTERRES
   165   84   85 1    
   166   84  205 1    
   167   85   86 1    
   168   85   87 1    
   169   85  206 1    
   170   86  207 1    
   171   86  208 1    
   172   86  209 1    
   173   87   88 2    
   174   87   89 am   BACKBONE|DICT|INTERRES
   175   89   90 1    
   176   89  210 1    
   177   90   91 1    
   178   90   92 1    
   179   90  211 1    
   180   91  212 1    
   181   91  213 1    
   182   91  214 1    
   183   92   93 2    
   184   92   94 am   BACKBONE|DICT|INTERRES
   185   94   95 1    
   186   94  215 1    
   187   95   96 1    
   188   95   97 1    
   189   95  216 1    
   190   96  217 1    
   191   96  218 1    
   192   96  219 1    
   193   97   98 2    
   194   97   99 am   BACKBONE|DICT|INTERRES
   195   99  100 1    
   196   99  220 1    
   197  100  101 1    
   198  100  102 1    
   199  100  221 1    
   200  101  222 1    
   201  101  223 1    
   202  101  224 1    
   203  102  103 2    
   204  102  104 am   BACKBONE|DICT|INTERRES
   205  104  105 1    
   206  104  225 1    
   207  105  106 1    
   208  105  107 1    
   209  105  226 1    
   210  106  227 1    
   211  106  228 1    
   212  106  229 1    
   213  107  108 2    
   214  107  109 am   BACKBONE|DICT|INTERRES
   215  109  110 1    
   216  109  230 1    
   217  110  111 1    
   218  110  112 1    
   219  110  231 1    
   220  111  232 1    
   221  111  233 1    
   222  111  234 1    
   223  112  113 2    
   224  112  114 am   BACKBONE|DICT|INTERRES
   225  114  115 1    
   226  114  235 1    
   227  115  116 1    
   228  115  117 1    
   229  115  236 1    
   230  116  237 1    
   231  116  238 1    
   232  116  239 1    
   233  117  118 2    
   234  117  119 am   BACKBONE|DICT|INTERRES
   235  119  120 1    
   236  119  240 1    
   237  120  121 1    
   238  120  124 1    
   239  120  241 1    
   240  121  122 am   BACKBONE|DICT|INTERRES
   241  121  123 2    
   242  122  242 1    
   243  122  243 1    
   244  124  125 1    
   245  124  244 1    
   246  124  245 1    
   247  125  126 1    
   248  126  246 1    
   249  126  247 1    
@<TRIPOS>SUBSTRUCTURE
     1 UNK         1 GROUP             0       ****    0 ROOT    
