@<TRIPOS>MOLECULE
3R540
247   249    1
SMALL
USER_CHARGES


@<TRIPOS>ATOM
      1 CA          8.4627  -13.7251  -49.2536 C.3       0 UNK        -0.1800 
      2 C           7.7147  -14.2324  -48.0283 C.2       0 UNK         0.5000 
      3 O           8.3020  -14.3284  -46.9500 O.2       0 UNK        -0.5000 
      4 N           6.4293  -14.5646  -48.1956 N.am      1 UNK        -0.5000 
      5 CA          5.5198  -15.0071  -47.1341 C.3       1 UNK         0.1400 
      6 C6          4.5524  -16.1064  -47.6446 C.3       23 UNK        -0.0398 
      7 S7          3.4417  -15.6048  -49.0116 S.3       23 UNK        -0.2404 
      8 C8          1.8988  -16.4377  -48.5184 C.3       23 UNK        -0.0205 
      9 C9          1.1591  -17.0701  -49.6859 C.ar      23 UNK        -0.0193 
     10 C10        -0.1294  -16.6434  -50.0179 C.ar      23 UNK        -0.1150 
     11 C11        -0.8408  -17.2646  -51.0477 C.ar      23 UNK        -0.0193 
     12 C12        -0.2453  -18.3063  -51.7615 C.ar      23 UNK        -0.1150 
     13 C13         1.0458  -18.7376  -51.4466 C.ar      23 UNK        -0.0193 
     14 C14         1.7401  -18.1213  -50.4020 C.ar      23 UNK        -0.1150 
     15 C15         1.6957  -19.8547  -52.2493 C.3       23 UNK        -0.0205 
     16 S16         1.7677  -21.4245  -51.3312 S.3       23 UNK        -0.2404 
     17 C17         0.0016  -21.8502  -51.1553 C.3       23 UNK        -0.0398 
     18 CA         -0.3634  -22.2171  -49.7000 C.3       11 UNK         0.1400 
     19 N          -0.0514  -21.1539  -48.7378 N.am      11 UNK        -0.5000 
     20 C           0.0897  -21.3712  -47.4236 C.2       10 UNK         0.5000 
     21 O          -0.0665  -22.4716  -46.8967 O.2       10 UNK        -0.5000 
     22 CA          0.4162  -20.1537  -46.5420 C.3       10 UNK         0.1400 
     23 CB          1.9161  -19.8319  -46.6239 C.3       10 UNK        -0.1800 
     24 N          -0.3682  -18.9527  -46.8479 N.am      10 UNK        -0.5000 
     25 C          -1.7087  -18.8868  -46.8914 C.2       9 UNK         0.5000 
     26 O          -2.4423  -19.8710  -46.7990 O.2       9 UNK        -0.5000 
     27 CA         -2.3168  -17.4808  -47.0182 C.3       9 UNK         0.1400 
     28 CB         -3.8332  -17.4406  -46.7561 C.3       9 UNK        -0.1800 
     29 N          -1.6338  -16.5917  -46.0859 N.am      9 UNK        -0.5000 
     30 C          -1.2887  -15.3231  -46.3307 C.2       8 UNK         0.5000 
     31 O          -1.5866  -14.7205  -47.3613 O.2       8 UNK        -0.5000 
     32 CA         -0.4447  -14.6066  -45.2603 C.3       8 UNK         0.1400 
     33 CB         -1.2472  -13.4926  -44.5728 C.3       8 UNK        -0.1800 
     34 N           0.0871  -15.5153  -44.2409 N.am      8 UNK        -0.5000 
     35 C           1.1363  -16.3307  -44.4112 C.2       7 UNK         0.5000 
     36 O           1.8247  -16.3316  -45.4286 O.2       7 UNK        -0.5000 
     37 CA          1.5009  -17.2990  -43.2711 C.3       7 UNK         0.1400 
     38 CB          2.8842  -16.9607  -42.6946 C.3       7 UNK        -0.1800 
     39 N           0.5191  -17.3203  -42.1880 N.am      7 UNK        -0.5000 
     40 C          -0.6711  -17.9334  -42.2399 C.2       6 UNK         0.5000 
     41 O          -1.0805  -18.5477  -43.2252 O.2       6 UNK        -0.5000 
     42 CA         -1.5595  -17.7951  -40.9896 C.3       6 UNK         0.1400 
     43 CB         -1.2336  -18.8989  -39.9724 C.3       6 UNK        -0.1800 
     44 N          -1.4110  -16.4844  -40.3484 N.am      6 UNK        -0.5000 
     45 C          -1.9078  -15.3461  -40.8528 C.2       5 UNK         0.5000 
     46 O          -2.5828  -15.2964  -41.8804 O.2       5 UNK        -0.5000 
     47 CA         -1.5605  -14.0416  -40.1091 C.3       5 UNK         0.1400 
     48 CB         -2.5320  -13.8094  -38.9420 C.3       5 UNK        -0.1800 
     49 N          -0.1807  -13.9900  -39.6120 N.am      5 UNK        -0.5000 
     50 C           0.9092  -14.0321  -40.3890 C.2       4 UNK         0.5000 
     51 O           0.8697  -14.1756  -41.6143 O.2       4 UNK        -0.5000 
     52 CA          2.2707  -13.9230  -39.6855 C.3       4 UNK         0.1400 
     53 CB          2.5831  -15.1933  -38.8737 C.3       4 UNK        -0.1800 
     54 N           3.2827  -13.7398  -40.7170 N.am      4 UNK        -0.5000 
     55 C           4.4903  -13.1830  -40.5897 C.2       3 UNK         0.5000 
     56 O           4.9325  -12.7495  -39.5251 O.2       3 UNK        -0.5000 
     57 CA          5.3583  -13.1068  -41.8662 C.3       3 UNK         0.1400 
     58 CB          6.5252  -14.1033  -41.7810 C.3       3 UNK        -0.1800 
     59 N           4.6081  -13.3773  -43.0979 N.am      3 UNK        -0.5000 
     60 C           3.7713  -12.5164  -43.6940 C.2       2 UNK         0.5000 
     61 O           3.5847  -11.3655  -43.2967 O.2       2 UNK        -0.5000 
     62 CA          2.9881  -13.0601  -44.9071 C.3       2 UNK         0.1400 
     63 CB          2.3784  -11.9524  -45.7926 C.3       2 UNK        -0.1800 
     64 N           3.7378  -14.0411  -45.7077 N.am      2 UNK        -0.5000 
     65 C           4.8458  -13.8008  -46.4286 C.2       1 UNK         0.5000 
     66 O           5.3542  -12.6801  -46.5202 O.2       1 UNK        -0.5000 
     67 C          -1.8293  -22.6853  -49.6055 C.2       11 UNK         0.5000 
     68 O          -2.1168  -23.8201  -49.9871 O.2       11 UNK        -0.5000 
     69 N          -2.7284  -21.8379  -49.0873 N.am      12 UNK        -0.5000 
     70 CA         -4.1100  -22.2127  -48.7947 C.3       12 UNK         0.1400 
     71 CB         -5.0009  -20.9655  -48.7630 C.3       12 UNK        -0.1800 
     72 C          -4.1949  -22.9940  -47.4750 C.2       12 UNK         0.5000 
     73 O          -4.8765  -24.0163  -47.4222 O.2       12 UNK        -0.5000 
     74 N          -3.4543  -22.5368  -46.4548 N.am      13 UNK        -0.5000 
     75 CA         -3.3200  -23.1896  -45.1501 C.3       13 UNK         0.1400 
     76 CB         -2.5160  -22.2803  -44.2074 C.3       13 UNK        -0.1800 
     77 C          -2.6825  -24.5904  -45.2435 C.2       13 UNK         0.5000 
     78 O          -3.1251  -25.5095  -44.5541 O.2       13 UNK        -0.5000 
     79 N          -1.6868  -24.7363  -46.1283 N.am      14 UNK        -0.5000 
     80 CA         -1.0371  -26.0044  -46.4676 C.3       14 UNK         0.1400 
     81 CB          0.3134  -25.6994  -47.1358 C.3       14 UNK        -0.1800 
     82 C          -1.8848  -26.9121  -47.3842 C.2       14 UNK         0.5000 
     83 O          -1.5148  -28.0706  -47.5785 O.2       14 UNK        -0.5000 
     84 N          -2.9769  -26.3732  -47.9498 N.am      15 UNK        -0.5000 
     85 CA         -3.8810  -26.9970  -48.9238 C.3       15 UNK         0.1400 
     86 CB         -4.6384  -28.1851  -48.2964 C.3       15 UNK        -0.1800 
     87 C          -3.1903  -27.3523  -50.2592 C.2       15 UNK         0.5000 
     88 O          -3.5886  -28.3056  -50.9303 O.2       15 UNK        -0.5000 
     89 N          -2.1703  -26.5668  -50.6240 N.am      16 UNK        -0.5000 
     90 CA         -1.3966  -26.7005  -51.8552 C.3       16 UNK         0.1400 
     91 CB          0.0409  -26.2257  -51.5894 C.3       16 UNK        -0.1800 
     92 C          -2.0216  -25.9005  -53.0108 C.2       16 UNK         0.5000 
     93 O          -1.9387  -26.3373  -54.1592 O.2       16 UNK        -0.5000 
     94 N          -2.6351  -24.7526  -52.6917 N.am      17 UNK        -0.5000 
     95 CA         -3.2600  -23.8428  -53.6537 C.3       17 UNK         0.1400 
     96 CB         -2.2324  -22.8046  -54.1386 C.3       17 UNK        -0.1800 
     97 C          -4.5295  -23.1945  -53.0739 C.2       17 UNK         0.5000 
     98 O          -4.8645  -22.0634  -53.4397 O.2       17 UNK        -0.5000 
     99 N          -5.2227  -23.9256  -52.1894 N.am      18 UNK        -0.5000 
    100 CA        -6.4964  -23.5321  -51.5872 C.3       18 UNK         0.1400 
    101 CB        -6.9183  -24.5798  -50.5459 C.3       18 UNK        -0.1800 
    102 C         -7.5892  -23.3435  -52.6535 C.2       18 UNK         0.5000 
    103 O         -7.8906  -24.2845  -53.3898 O.2       18 UNK        -0.5000 
    104 N         -8.1157  -22.1159  -52.7301 N.am      19 UNK        -0.5000 
    105 CA        -9.0846  -21.5973  -53.7012 C.3       19 UNK         0.1400 
    106 CB       -10.4006  -22.4022  -53.6736 C.3       19 UNK        -0.1800 
    107 C         -8.5230  -21.4348  -55.1309 C.2       19 UNK         0.5000 
    108 O         -9.2842  -21.0824  -56.0335 O.2       19 UNK        -0.5000 
    109 N         -7.2149  -21.6582  -55.3171 N.am      20 UNK        -0.5000 
    110 CA        -6.5036  -21.4558  -56.5769 C.3       20 UNK         0.1400 
    111 CB        -5.6012  -22.6666  -56.8666 C.3       20 UNK        -0.1800 
    112 C         -5.6901  -20.1560  -56.5110 C.2       20 UNK         0.5000 
    113 O         -5.8426  -19.3031  -57.3864 O.2       20 UNK        -0.5000 
    114 N         -4.8630  -20.0177  -55.4658 N.am      21 UNK        -0.5000 
    115 CA        -4.0630  -18.8211  -55.2055 C.3       21 UNK         0.1400 
    116 CB        -2.6756  -19.2350  -54.6934 C.3       21 UNK        -0.1800 
    117 C         -4.7528  -17.9001  -54.1882 C.2       21 UNK         0.5000 
    118 O         -4.7390  -16.6817  -54.3662 O.2       21 UNK        -0.5000 
    119 N         -5.3408  -18.4938  -53.1448 N.am      22 UNK        -0.5000 
    120 CA        -6.0036  -17.8065  -52.0301 C.3       22 UNK         0.1400 
    121 C         -6.8827  -18.7862  -51.2075 C.2       22 UNK         0.5000 
    122 N         -7.6662  -18.2913  -50.2596 N.am      22 UNK        -0.7600 
    123 O         -6.8813  -19.9949  -51.4278 O.2       22 UNK        -0.5000 
    124 C124       -5.0297  -16.9660  -51.1497 C.3       23 UNK        -0.0398 
    125 S125       -3.5140  -17.8396  -50.6100 S.3       23 UNK        -0.2404 
    126 C126       -2.2444  -16.8018  -51.4001 C.3       23 UNK        -0.0205 
    127 H127        7.8260  -13.7060  -50.1385 H         1 UNK         0.0600 
    128 H128        9.3180  -14.3672  -49.4642 H         1 UNK         0.0600 
    129 H129        8.8291  -12.7139  -49.0769 H         1 UNK         0.0600 
    130 H130        5.9974  -14.4363  -49.0998 H         1 UNK         0.3000 
    131 H131        6.1193  -15.4820  -46.3545 H         1 UNK         0.0600 
    132 H132        3.9810  -16.5128  -46.8116 H         1 UNK         0.0800 
    133 H133        5.1403  -16.9503  -48.0083 H         1 UNK         0.0800 
    134 H134        1.2676  -15.7176  -47.9964 H         1 UNK         0.0800 
    135 H135        2.1158  -17.2328  -47.8092 H         1 UNK         0.0800 
    136 H136       -0.5860  -15.8326  -49.4692 H         1 UNK         0.1150 
    137 H137       -0.7891  -18.7817  -52.5638 H         1 UNK         0.1150 
    138 H138        2.7355  -18.4584  -50.1477 H         1 UNK         0.1150 
    139 H139        1.1687  -20.0133  -53.1916 H         1 UNK         0.0800 
    140 H140        2.7109  -19.5579  -52.5164 H         1 UNK         0.0800 
    141 H141       -0.1914  -22.6954  -51.8180 H         1 UNK         0.0800 
    142 H142       -0.6263  -21.0344  -51.5128 H         1 UNK         0.0800 
    143 H143        0.2461  -23.0837  -49.4344 H         1 UNK         0.0600 
    144 H144        0.0966  -20.2261  -49.1083 H         1 UNK         0.3000 
    145 H145        0.1851  -20.4254  -45.5100 H         1 UNK         0.0600 
    146 H146        2.2196  -19.5796  -47.6404 H         1 UNK         0.0600 
    147 H147        2.1860  -19.0008  -45.9738 H         1 UNK         0.0600 
    148 H148        2.5132  -20.6900  -46.3126 H         1 UNK         0.0600 
    149 H149        0.1498  -18.0910  -46.9314 H         1 UNK         0.3000 
    150 H150       -2.1362  -17.1545  -48.0427 H         1 UNK         0.0600 
    151 H151       -4.3717  -18.0427  -47.4878 H         1 UNK         0.0600 
    152 H152       -4.2189  -16.4241  -46.8323 H         1 UNK         0.0600 
    153 H153       -4.0797  -17.8209  -45.7640 H         1 UNK         0.0600 
    154 H154       -1.3535  -17.0104  -45.2078 H         1 UNK         0.3000 
    155 H155        0.3886  -14.1452  -45.7900 H         1 UNK         0.0600 
    156 H156       -1.5713  -12.7429  -45.2955 H         1 UNK         0.0600 
    157 H157       -0.6475  -12.9806  -43.8196 H         1 UNK         0.0600 
    158 H158       -2.1401  -13.8832  -44.0849 H         1 UNK         0.0600 
    159 H159       -0.3866  -15.5197  -43.3480 H         1 UNK         0.3000 
    160 H160        1.5527  -18.2997  -43.7045 H         1 UNK         0.0600 
    161 H161        2.9081  -15.9587  -42.2712 H         1 UNK         0.0600 
    162 H162        3.6539  -17.0095  -43.4659 H         1 UNK         0.0600 
    163 H163        3.1685  -17.6632  -41.9109 H         1 UNK         0.0600 
    164 H164        0.7510  -16.7934  -41.3600 H         1 UNK         0.3000 
    165 H165       -2.5988  -17.9165  -41.3029 H         1 UNK         0.0600 
    166 H166       -1.9002  -18.8500  -39.1112 H         1 UNK         0.0600 
    167 H167       -1.3526  -19.8873  -40.4186 H         1 UNK         0.0600 
    168 H168       -0.2081  -18.8241  -39.6085 H         1 UNK         0.0600 
    169 H169       -0.8767  -16.4453  -39.4928 H         1 UNK         0.3000 
    170 H170       -1.6839  -13.2215  -40.8198 H         1 UNK         0.0600 
    171 H171       -3.5670  -13.8238  -39.2865 H         1 UNK         0.0600 
    172 H172       -2.4310  -14.5769  -38.1737 H         1 UNK         0.0600 
    173 H173       -2.3612  -12.8400  -38.4735 H         1 UNK         0.0600 
    174 H174       -0.0673  -13.8782  -38.6147 H         1 UNK         0.3000 
    175 H175        2.2546  -13.0505  -39.0294 H         1 UNK         0.0600 
    176 H176        2.5944  -16.0820  -39.5060 H         1 UNK         0.0600 
    177 H177        3.5554  -15.1204  -38.3863 H         1 UNK         0.0600 
    178 H178        1.8428  -15.3550  -38.0896 H         1 UNK         0.0600 
    179 H179        2.9575  -13.9927  -41.6405 H         1 UNK         0.3000 
    180 H180        5.7722  -12.0978  -41.9223 H         1 UNK         0.0600 
    181 H181        6.1711  -15.1333  -41.7212 H         1 UNK         0.0600 
    182 H182        7.1374  -13.9151  -40.8980 H         1 UNK         0.0600 
    183 H183        7.1784  -14.0215  -42.6501 H         1 UNK         0.0600 
    184 H184        4.7187  -14.2961  -43.4997 H         1 UNK         0.3000 
    185 H185        2.1588  -13.6051  -44.4620 H         1 UNK         0.0600 
    186 H186        1.8483  -12.3738  -46.6465 H         1 UNK         0.0600 
    187 H187        1.6612  -11.3549  -45.2286 H         1 UNK         0.0600 
    188 H188        3.1391  -11.2714  -46.1746 H         1 UNK         0.0600 
    189 H189        3.3407  -14.9751  -45.7107 H         1 UNK         0.3000 
    190 H190       -2.4183  -20.9433  -48.7315 H         1 UNK         0.3000 
    191 H191       -4.4705  -22.8596  -49.5949 H         1 UNK         0.0600 
    192 H192       -4.8716  -20.3749  -49.6683 H         1 UNK         0.0600 
    193 H193       -6.0540  -21.2416  -48.7006 H         1 UNK         0.0600 
    194 H194       -4.7804  -20.3252  -47.9103 H         1 UNK         0.0600 
    195 H195       -2.9558  -21.6583  -46.5767 H         1 UNK         0.3000 
    196 H196       -4.3231  -23.3087  -44.7358 H         1 UNK         0.0600 
    197 H197       -2.4403  -22.7189  -43.2118 H         1 UNK         0.0600 
    198 H198       -2.9903  -21.3045  -44.0990 H         1 UNK         0.0600 
    199 H199       -1.5018  -22.1170  -44.5721 H         1 UNK         0.0600 
    200 H200       -1.3176  -23.9051  -46.5822 H         1 UNK         0.3000 
    201 H201       -0.8464  -26.5556  -45.5446 H         1 UNK         0.0600 
    202 H202        0.9487  -25.0971  -46.4861 H         1 UNK         0.0600 
    203 H203        0.1827  -25.1579  -48.0733 H         1 UNK         0.0600 
    204 H204        0.8582  -26.6172  -47.3606 H         1 UNK         0.0600 
    205 H205       -3.2146  -25.4222  -47.6982 H         1 UNK         0.3000 
    206 H206       -4.6206  -26.2360  -49.1691 H         1 UNK         0.0600 
    207 H207       -3.9758  -29.0250  -48.0867 H         1 UNK         0.0600 
    208 H208       -5.1196  -27.8949  -47.3623 H         1 UNK         0.0600 
    209 H209       -5.4214  -28.5461  -48.9642 H         1 UNK         0.0600 
    210 H210       -1.9679  -25.7514  -50.0550 H         1 UNK         0.3000 
    211 H211       -1.3589  -27.7511  -52.1510 H         1 UNK         0.0600 
    212 H212        0.6568  -26.3238  -52.4843 H         1 UNK         0.0600 
    213 H213        0.5110  -26.8181  -50.8042 H         1 UNK         0.0600 
    214 H214        0.0721  -25.1801  -51.2817 H         1 UNK         0.0600 
    215 H215       -2.6306  -24.4522  -51.7205 H         1 UNK         0.3000 
    216 H216       -3.5952  -24.4154  -54.5208 H         1 UNK         0.0600 
    217 H217       -2.6314  -22.2241  -54.9702 H         1 UNK         0.0600 
    218 H218       -1.3174  -23.2810  -54.4904 H         1 UNK         0.0600 
    219 H219       -1.9668  -22.1059  -53.3464 H         1 UNK         0.0600 
    220 H220       -4.9041  -24.8630  -51.9972 H         1 UNK         0.3000 
    221 H221       -6.3423  -22.5844  -51.0686 H         1 UNK         0.0600 
    222 H222       -7.0021  -25.5753  -50.9836 H         1 UNK         0.0600 
    223 H223       -6.2048  -24.6297  -49.7257 H         1 UNK         0.0600 
    224 H224       -7.8870  -24.3290  -50.1117 H         1 UNK         0.0600 
    225 H225       -7.7198  -21.3993  -52.1199 H         1 UNK         0.3000 
    226 H226       -9.3167  -20.5867  -53.3622 H         1 UNK         0.0600 
    227 H227      -10.7799  -22.5043  -52.6569 H         1 UNK         0.0600 
    228 H228      -11.1746  -21.9040  -54.2583 H         1 UNK         0.0600 
    229 H229      -10.2760  -23.4022  -54.0893 H         1 UNK         0.0600 
    230 H230       -6.6507  -21.9091  -54.5142 H         1 UNK         0.3000 
    231 H231       -7.2099  -21.3676  -57.4051 H         1 UNK         0.0600 
    232 H232       -4.8398  -22.8056  -56.1008 H         1 UNK         0.0600 
    233 H233       -5.0859  -22.5463  -57.8203 H         1 UNK         0.0600 
    234 H234       -6.1854  -23.5850  -56.9259 H         1 UNK         0.0600 
    235 H235       -4.8096  -20.7611  -54.7747 H         1 UNK         0.3000 
    236 H236       -3.9191  -18.2549  -56.1282 H         1 UNK         0.0600 
    237 H237       -2.1607  -19.8673  -55.4164 H         1 UNK         0.0600 
    238 H238       -2.0490  -18.3579  -54.5297 H         1 UNK         0.0600 
    239 H239       -2.7391  -19.7790  -53.7502 H         1 UNK         0.0600 
    240 H240       -5.3338  -19.5023  -53.0620 H         1 UNK         0.3000 
    241 H241       -6.7167  -17.1158  -52.4836 H         1 UNK         0.0600 
    242 H242       -8.2411  -18.9252  -49.7280 H         1 UNK         0.3800 
    243 H243       -7.7135  -17.3038  -50.0653 H         1 UNK         0.3800 
    244 H244       -4.7426  -16.0730  -51.7053 H         1 UNK         0.0800 
    245 H245       -5.5323  -16.5843  -50.2603 H         1 UNK         0.0800 
    246 H246       -2.3795  -16.8211  -52.4822 H         1 UNK         0.0800 
    247 H247       -2.3825  -15.7646  -51.0904 H         1 UNK         0.0800 
@<TRIPOS>BOND
     1    1    2 1    
     2    1  127 1    
     3    1  128 1    
     4    1  129 1    
     5    2    3 2    
     6    2    4 am   BACKBONE|DICT|INTERRES
     7    4    5 1    
     8    4  130 1    
     9    5    6 1    
    10    5   65 1    
    11    5  131 1    
    12    6    7 1    
    13    6  132 1    
    14    6  133 1    
    15    7    8 1    
    16    8    9 1    
    17    8  134 1    
    18    8  135 1    
    19    9   10 ar   
    20    9   14 ar   
    21   10   11 ar   
    22   10  136 1    
    23   11   12 ar   
    24   11  126 1    
    25   12   13 ar   
    26   12  137 1    
    27   13   14 ar   
    28   13   15 1    
    29   14  138 1    
    30   15   16 1    
    31   15  139 1    
    32   15  140 1    
    33   16   17 1    
    34   17   18 1    
    35   17  141 1    
    36   17  142 1    
    37   18   19 1    
    38   18   67 1    
    39   18  143 1    
    40   19   20 am   BACKBONE|DICT|INTERRES
    41   19  144 1    
    42   20   21 2    
    43   20   22 1    
    44   22   23 1    
    45   22   24 1    
    46   22  145 1    
    47   23  146 1    
    48   23  147 1    
    49   23  148 1    
    50   24   25 am   BACKBONE|DICT|INTERRES
    51   24  149 1    
    52   25   26 2    
    53   25   27 1    
    54   27   28 1    
    55   27   29 1    
    56   27  150 1    
    57   28  151 1    
    58   28  152 1    
    59   28  153 1    
    60   29   30 am   BACKBONE|DICT|INTERRES
    61   29  154 1    
    62   30   31 2    
    63   30   32 1    
    64   32   33 1    
    65   32   34 1    
    66   32  155 1    
    67   33  156 1    
    68   33  157 1    
    69   33  158 1    
    70   34   35 am   BACKBONE|DICT|INTERRES
    71   34  159 1    
    72   35   36 2    
    73   35   37 1    
    74   37   38 1    
    75   37   39 1    
    76   37  160 1    
    77   38  161 1    
    78   38  162 1    
    79   38  163 1    
    80   39   40 am   BACKBONE|DICT|INTERRES
    81   39  164 1    
    82   40   41 2    
    83   40   42 1    
    84   42   43 1    
    85   42   44 1    
    86   42  165 1    
    87   43  166 1    
    88   43  167 1    
    89   43  168 1    
    90   44   45 am   BACKBONE|DICT|INTERRES
    91   44  169 1    
    92   45   46 2    
    93   45   47 1    
    94   47   48 1    
    95   47   49 1    
    96   47  170 1    
    97   48  171 1    
    98   48  172 1    
    99   48  173 1    
   100   49   50 am   BACKBONE|DICT|INTERRES
   101   49  174 1    
   102   50   51 2    
   103   50   52 1    
   104   52   53 1    
   105   52   54 1    
   106   52  175 1    
   107   53  176 1    
   108   53  177 1    
   109   53  178 1    
   110   54   55 am   BACKBONE|DICT|INTERRES
   111   54  179 1    
   112   55   56 2    
   113   55   57 1    
   114   57   58 1    
   115   57   59 1    
   116   57  180 1    
   117   58  181 1    
   118   58  182 1    
   119   58  183 1    
   120   59   60 am   BACKBONE|DICT|INTERRES
   121   59  184 1    
   122   60   61 2    
   123   60   62 1    
   124   62   63 1    
   125   62   64 1    
   126   62  185 1    
   127   63  186 1    
   128   63  187 1    
   129   63  188 1    
   130   64   65 am   BACKBONE|DICT|INTERRES
   131   64  189 1    
   132   65   66 2    
   133   67   68 2    
   134   67   69 am   BACKBONE|DICT|INTERRES
   135   69   70 1    
   136   69  190 1    
   137   70   71 1    
   138   70   72 1    
   139   70  191 1    
   140   71  192 1    
   141   71  193 1    
   142   71  194 1    
   143   72   73 2    
   144   72   74 am   BACKBONE|DICT|INTERRES
   145   74   75 1    
   146   74  195 1    
   147   75   76 1    
   148   75   77 1    
   149   75  196 1    
   150   76  197 1    
   151   76  198 1    
   152   76  199 1    
   153   77   78 2    
   154   77   79 am   BACKBONE|DICT|INTERRES
   155   79   80 1    
   156   79  200 1    
   157   80   81 1    
   158   80   82 1    
   159   80  201 1    
   160   81  202 1    
   161   81  203 1    
   162   81  204 1    
   163   82   83 2    
   164   82   84 am   BACKBONE|DICT|INTERRES
   165   84   85 1    
   166   84  205 1    
   167   85   86 1    
   168   85   87 1    
   169   85  206 1    
   170   86  207 1    
   171   86  208 1    
   172   86  209 1    
   173   87   88 2    
   174   87   89 am   BACKBONE|DICT|INTERRES
   175   89   90 1    
   176   89  210 1    
   177   90   91 1    
   178   90   92 1    
   179   90  211 1    
   180   91  212 1    
   181   91  213 1    
   182   91  214 1    
   183   92   93 2    
   184   92   94 am   BACKBONE|DICT|INTERRES
   185   94   95 1    
   186   94  215 1    
   187   95   96 1    
   188   95   97 1    
   189   95  216 1    
   190   96  217 1    
   191   96  218 1    
   192   96  219 1    
   193   97   98 2    
   194   97   99 am   BACKBONE|DICT|INTERRES
   195   99  100 1    
   196   99  220 1    
   197  100  101 1    
   198  100  102 1    
   199  100  221 1    
   200  101  222 1    
   201  101  223 1    
   202  101  224 1    
   203  102  103 2    
   204  102  104 am   BACKBONE|DICT|INTERRES
   205  104  105 1    
   206  104  225 1    
   207  105  106 1    
   208  105  107 1    
   209  105  226 1    
   210  106  227 1    
   211  106  228 1    
   212  106  229 1    
   213  107  108 2    
   214  107  109 am   BACKBONE|DICT|INTERRES
   215  109  110 1    
   216  109  230 1    
   217  110  111 1    
   218  110  112 1    
   219  110  231 1    
   220  111  232 1    
   221  111  233 1    
   222  111  234 1    
   223  112  113 2    
   224  112  114 am   BACKBONE|DICT|INTERRES
   225  114  115 1    
   226  114  235 1    
   227  115  116 1    
   228  115  117 1    
   229  115  236 1    
   230  116  237 1    
   231  116  238 1    
   232  116  239 1    
   233  117  118 2    
   234  117  119 am   BACKBONE|DICT|INTERRES
   235  119  120 1    
   236  119  240 1    
   237  120  121 1    
   238  120  124 1    
   239  120  241 1    
   240  121  122 am   BACKBONE|DICT|INTERRES
   241  121  123 2    
   242  122  242 1    
   243  122  243 1    
   244  124  125 1    
   245  124  244 1    
   246  124  245 1    
   247  125  126 1    
   248  126  246 1    
   249  126  247 1    
@<TRIPOS>SUBSTRUCTURE
     1 UNK         1 GROUP             0       ****    0 ROOT    
