@<TRIPOS>MOLECULE
3R540
247   249    1
SMALL
USER_CHARGES


@<TRIPOS>ATOM
      1 CA         -0.5842  -14.1305  -49.0065 C.3       0 UNK        -0.1800 
      2 C           0.8204  -13.9486  -49.5580 C.2       0 UNK         0.5000 
      3 O           1.3364  -12.8312  -49.5609 O.2       0 UNK        -0.5000 
      4 N           1.4536  -15.0473  -49.9919 N.am      1 UNK        -0.5000 
      5 CA          2.7921  -15.0866  -50.6068 C.3       1 UNK         0.1400 
      6 C6          3.1535  -16.5069  -51.1025 C.3       23 UNK        -0.0398 
      7 S7          2.1311  -17.0271  -52.5209 S.3       23 UNK        -0.2404 
      8 C8          1.1725  -18.4130  -51.8337 C.3       23 UNK        -0.0205 
      9 C9         -0.0605  -17.9441  -51.0743 C.ar      23 UNK        -0.0193 
     10 C10        -1.1219  -17.3596  -51.7677 C.ar      23 UNK        -0.1150 
     11 C11        -2.2708  -16.9279  -51.1009 C.ar      23 UNK        -0.0193 
     12 C12        -2.3478  -17.1000  -49.7115 C.ar      23 UNK        -0.1150 
     13 C13        -1.3020  -17.7021  -49.0010 C.ar      23 UNK        -0.0193 
     14 C14        -0.1577  -18.1142  -49.6914 C.ar      23 UNK        -0.1150 
     15 C15        -1.3609  -17.8785  -47.4847 C.3       23 UNK        -0.0205 
     16 S16        -3.0061  -18.2697  -46.8028 S.3       23 UNK        -0.2404 
     17 C17        -3.3521  -19.8854  -47.5703 C.3       23 UNK        -0.0398 
     18 CA         -2.6028  -21.0779  -46.9237 C.3       11 UNK         0.1400 
     19 N          -2.7076  -21.0862  -45.4561 N.am      11 UNK        -0.5000 
     20 C          -2.1842  -22.0014  -44.6280 C.2       10 UNK         0.5000 
     21 O          -1.6251  -23.0289  -45.0138 O.2       10 UNK        -0.5000 
     22 CA         -2.3322  -21.7253  -43.1239 C.3       10 UNK         0.1400 
     23 CB         -2.9003  -22.9415  -42.3655 C.3       10 UNK        -0.1800 
     24 N          -1.0746  -21.2511  -42.5430 N.am      10 UNK        -0.5000 
     25 C           0.0775  -21.9156  -42.3523 C.2       9 UNK         0.5000 
     26 O           0.2361  -23.1139  -42.5858 O.2       9 UNK        -0.5000 
     27 CA          1.2699  -21.1137  -41.7845 C.3       9 UNK         0.1400 
     28 CB          2.4087  -21.0184  -42.8131 C.3       9 UNK        -0.1800 
     29 N           0.9110  -19.7629  -41.3478 N.am      9 UNK        -0.5000 
     30 C           0.2703  -19.4707  -40.2079 C.2       8 UNK         0.5000 
     31 O          -0.0233  -20.3094  -39.3555 O.2       8 UNK        -0.5000 
     32 CA         -0.1426  -18.0009  -39.9980 C.3       8 UNK         0.1400 
     33 CB          0.9413  -17.2491  -39.2111 C.3       8 UNK        -0.1800 
     34 N          -0.4197  -17.2871  -41.2484 N.am      8 UNK        -0.5000 
     35 C          -1.4170  -17.5791  -42.0968 C.2       7 UNK         0.5000 
     36 O          -2.2355  -18.4778  -41.9038 O.2       7 UNK        -0.5000 
     37 CA         -1.4716  -16.7774  -43.4108 C.3       7 UNK         0.1400 
     38 CB         -2.0999  -15.3942  -43.1916 C.3       7 UNK        -0.1800 
     39 N          -0.1535  -16.6311  -44.0291 N.am      7 UNK        -0.5000 
     40 C           0.5787  -17.6548  -44.4922 C.2       6 UNK         0.5000 
     41 O           0.1937  -18.8232  -44.4998 O.2       6 UNK        -0.5000 
     42 CA          1.9910  -17.3229  -45.0006 C.3       6 UNK         0.1400 
     43 CB          1.9630  -16.8821  -46.4707 C.3       6 UNK        -0.1800 
     44 N           2.6325  -16.2950  -44.1813 N.am      6 UNK        -0.5000 
     45 C           3.1056  -16.5175  -42.9468 C.2       5 UNK         0.5000 
     46 O           3.1011  -17.6210  -42.4016 O.2       5 UNK        -0.5000 
     47 CA          3.6285  -15.2936  -42.1754 C.3       5 UNK         0.1400 
     48 CB          5.1015  -15.0213  -42.5140 C.3       5 UNK        -0.1800 
     49 N           2.8270  -14.0938  -42.4275 N.am      5 UNK        -0.5000 
     50 C           1.5734  -13.9338  -41.9772 C.2       4 UNK         0.5000 
     51 O           0.9814  -14.7795  -41.3090 O.2       4 UNK        -0.5000 
     52 CA          0.8355  -12.6359  -42.3532 C.3       4 UNK         0.1400 
     53 CB          1.0532  -11.5655  -41.2738 C.3       4 UNK        -0.1800 
     54 N           1.2133  -12.0878  -43.6545 N.am      4 UNK        -0.5000 
     55 C           1.0857  -12.7116  -44.8329 C.2       3 UNK         0.5000 
     56 O           0.6490  -13.8590  -44.9560 O.2       3 UNK        -0.5000 
     57 CA          1.5567  -11.9414  -46.0858 C.3       3 UNK         0.1400 
     58 CB          2.0587  -10.5075  -45.8023 C.3       3 UNK        -0.1800 
     59 N           2.5721  -12.6828  -46.8362 N.am      3 UNK        -0.5000 
     60 C           3.7193  -13.1979  -46.3646 C.2       2 UNK         0.5000 
     61 O           4.0793  -13.1015  -45.1903 O.2       2 UNK        -0.5000 
     62 CA          4.5874  -13.9739  -47.3726 C.3       2 UNK         0.1400 
     63 CB          5.4776  -15.0367  -46.7012 C.3       2 UNK        -0.1800 
     64 N           3.7364  -14.6023  -48.3845 N.am      2 UNK        -0.5000 
     65 C           3.9217  -14.5313  -49.7073 C.2       1 UNK         0.5000 
     66 O           4.9182  -14.0313  -50.2311 O.2       1 UNK        -0.5000 
     67 C          -3.0555  -22.3955  -47.5886 C.2       11 UNK         0.5000 
     68 O          -2.4567  -22.8178  -48.5781 O.2       11 UNK        -0.5000 
     69 N          -4.0762  -23.0438  -47.0111 N.am      12 UNK        -0.5000 
     70 CA         -4.6020  -24.3416  -47.4394 C.3       12 UNK         0.1400 
     71 CB         -5.8471  -24.6723  -46.6035 C.3       12 UNK        -0.1800 
     72 C          -3.5789  -25.4948  -47.3666 C.2       12 UNK         0.5000 
     73 O          -3.7378  -26.4745  -48.0921 O.2       12 UNK        -0.5000 
     74 N          -2.5539  -25.3575  -46.5158 N.am      13 UNK        -0.5000 
     75 CA         -1.4204  -26.2727  -46.4232 C.3       13 UNK         0.1400 
     76 CB         -1.1505  -26.5976  -44.9447 C.3       13 UNK        -0.1800 
     77 C          -0.1786  -25.6501  -47.0803 C.2       13 UNK         0.5000 
     78 O           0.4613  -26.2993  -47.9084 O.2       13 UNK        -0.5000 
     79 N           0.1323  -24.3994  -46.7097 N.am      14 UNK        -0.5000 
     80 CA          1.3436  -23.6718  -47.0960 C.3       14 UNK         0.1400 
     81 CB          1.4272  -22.3713  -46.2813 C.3       14 UNK        -0.1800 
     82 C           1.4588  -23.3714  -48.6015 C.2       14 UNK         0.5000 
     83 O           2.5769  -23.2751  -49.1086 O.2       14 UNK        -0.5000 
     84 N           0.3167  -23.2395  -49.2855 N.am      15 UNK        -0.5000 
     85 CA          0.2182  -22.9807  -50.7199 C.3       15 UNK         0.1400 
     86 CB         -0.2710  -21.5408  -50.9362 C.3       15 UNK        -0.1800 
     87 C          -0.6741  -24.0307  -51.4040 C.2       15 UNK         0.5000 
     88 O          -1.3777  -23.7032  -52.3633 O.2       15 UNK        -0.5000 
     89 N          -0.6347  -25.2696  -50.8852 N.am      16 UNK        -0.5000 
     90 CA         -1.2416  -26.5228  -51.3669 C.3       16 UNK         0.1400 
     91 CB         -0.6574  -26.9120  -52.7377 C.3       16 UNK        -0.1800 
     92 C          -2.7835  -26.5665  -51.4065 C.2       16 UNK         0.5000 
     93 O          -3.3690  -27.6023  -51.0901 O.2       16 UNK        -0.5000 
     94 N          -3.4038  -25.4560  -51.8028 N.am      17 UNK        -0.5000 
     95 CA         -4.8403  -25.2234  -51.8924 C.3       17 UNK         0.1400 
     96 CB         -5.4265  -25.9427  -53.1245 C.3       17 UNK        -0.1800 
     97 C          -5.0930  -23.7055  -51.9078 C.2       17 UNK         0.5000 
     98 O          -5.9161  -23.2232  -52.6879 O.2       17 UNK        -0.5000 
     99 N          -4.3304  -22.9669  -51.0837 N.am      18 UNK        -0.5000 
    100 CA        -4.3513  -21.5059  -50.9393 C.3       18 UNK         0.1400 
    101 CB        -5.6573  -21.0656  -50.2517 C.3       18 UNK        -0.1800 
    102 C         -4.0572  -20.7478  -52.2501 C.2       18 UNK         0.5000 
    103 O         -4.6100  -19.6704  -52.4799 O.2       18 UNK        -0.5000 
    104 N         -3.2281  -21.3647  -53.1102 N.am      19 UNK        -0.5000 
    105 CA        -2.8885  -20.9490  -54.4770 C.3       19 UNK         0.1400 
    106 CB        -1.9995  -19.6897  -54.4388 C.3       19 UNK        -0.1800 
    107 C         -4.1184  -20.7595  -55.3965 C.2       19 UNK         0.5000 
    108 O         -4.0335  -20.0196  -56.3783 O.2       19 UNK        -0.5000 
    109 N         -5.2559  -21.3740  -55.0310 N.am      20 UNK        -0.5000 
    110 CA        -6.6233  -21.1684  -55.5238 C.3       20 UNK         0.1400 
    111 CB        -6.7525  -21.5146  -57.0190 C.3       20 UNK        -0.1800 
    112 C         -7.1913  -19.7651  -55.2160 C.2       20 UNK         0.5000 
    113 O         -8.3234  -19.6619  -54.7421 O.2       20 UNK        -0.5000 
    114 N         -6.3970  -18.7177  -55.4711 N.am      21 UNK        -0.5000 
    115 CA        -6.7280  -17.2987  -55.3361 C.3       21 UNK         0.1400 
    116 CB        -5.5135  -16.4664  -55.7761 C.3       21 UNK        -0.1800 
    117 C         -7.1876  -16.8673  -53.9310 C.2       21 UNK         0.5000 
    118 O         -8.0563  -15.9994  -53.8297 O.2       21 UNK        -0.5000 
    119 N         -6.6166  -17.4776  -52.8859 N.am      22 UNK        -0.5000 
    120 CA        -6.9863  -17.2441  -51.4801 C.3       22 UNK         0.1400 
    121 C         -7.9614  -18.3232  -50.9220 C.2       22 UNK         0.5000 
    122 N         -8.5124  -19.2186  -51.7346 N.am      22 UNK        -0.7600 
    123 O         -8.2474  -18.3385  -49.7281 O.2       22 UNK        -0.5000 
    124 C124       -5.7359  -17.0515  -50.5804 C.3       23 UNK        -0.0398 
    125 S125       -4.7819  -15.5584  -51.0211 S.3       23 UNK        -0.2404 
    126 C126       -3.3781  -16.2820  -51.9387 C.3       23 UNK        -0.0205 
    127 H127       -0.9195  -13.2268  -48.4974 H         1 UNK         0.0600 
    128 H128       -1.2841  -14.3458  -49.8139 H         1 UNK         0.0600 
    129 H129       -0.6131  -14.9481  -48.2880 H         1 UNK         0.0600 
    130 H130        0.9525  -15.9254  -49.9960 H         1 UNK         0.3000 
    131 H131        2.7538  -14.4270  -51.4765 H         1 UNK         0.0600 
    132 H132        4.1910  -16.5454  -51.4406 H         1 UNK         0.0800 
    133 H133        3.0762  -17.2303  -50.2892 H         1 UNK         0.0800 
    134 H134        1.8158  -19.0319  -51.2068 H         1 UNK         0.0800 
    135 H135        0.8539  -19.0514  -52.6581 H         1 UNK         0.0800 
    136 H136       -1.0462  -17.2324  -52.8386 H         1 UNK         0.1150 
    137 H137       -3.2169  -16.7620  -49.1688 H         1 UNK         0.1150 
    138 H138        0.6582  -18.5759  -49.1535 H         1 UNK         0.1150 
    139 H139       -0.6730  -18.6637  -47.1694 H         1 UNK         0.0800 
    140 H140       -1.0161  -16.9559  -47.0184 H         1 UNK         0.0800 
    141 H141       -3.1094  -19.8099  -48.6297 H         1 UNK         0.0800 
    142 H142       -4.4317  -20.0375  -47.5156 H         1 UNK         0.0800 
    143 H143       -1.5426  -20.9649  -47.1545 H         1 UNK         0.0600 
    144 H144       -3.1338  -20.2621  -45.0566 H         1 UNK         0.3000 
    145 H145       -3.0452  -20.9093  -42.9985 H         1 UNK         0.0600 
    146 H146       -2.9975  -22.7309  -41.3005 H         1 UNK         0.0600 
    147 H147       -3.8918  -23.1995  -42.7389 H         1 UNK         0.0600 
    148 H148       -2.2754  -23.8281  -42.4763 H         1 UNK         0.0600 
    149 H149       -1.0708  -20.2626  -42.3234 H         1 UNK         0.3000 
    150 H150        1.6463  -21.6658  -40.9209 H         1 UNK         0.0600 
    151 H151        2.7567  -22.0101  -43.1041 H         1 UNK         0.0600 
    152 H152        3.2656  -20.4819  -42.4054 H         1 UNK         0.0600 
    153 H153        2.0921  -20.5042  -43.7201 H         1 UNK         0.0600 
    154 H154        1.1420  -19.0086  -41.9808 H         1 UNK         0.3000 
    155 H155       -1.0586  -17.9993  -39.4038 H         1 UNK         0.0600 
    156 H156        1.8702  -17.1761  -39.7780 H         1 UNK         0.0600 
    157 H157        1.1671  -17.7552  -38.2716 H         1 UNK         0.0600 
    158 H158        0.6188  -16.2374  -38.9645 H         1 UNK         0.0600 
    159 H159        0.1797  -16.4910  -41.4510 H         1 UNK         0.3000 
    160 H160       -2.1051  -17.3276  -44.1083 H         1 UNK         0.0600 
    161 H161       -2.1374  -14.8248  -44.1206 H         1 UNK         0.0600 
    162 H162       -1.5428  -14.8101  -42.4604 H         1 UNK         0.0600 
    163 H163       -3.1224  -15.4873  -42.8238 H         1 UNK         0.0600 
    164 H164        0.2142  -15.6895  -44.1124 H         1 UNK         0.3000 
    165 H165        2.5863  -18.2367  -44.9388 H         1 UNK         0.0600 
    166 H166        2.9725  -16.7622  -46.8574 H         1 UNK         0.0600 
    167 H167        1.4845  -17.6378  -47.0913 H         1 UNK         0.0600 
    168 H168        1.4224  -15.9448  -46.6069 H         1 UNK         0.0600 
    169 H169        2.6184  -15.3463  -44.5288 H         1 UNK         0.3000 
    170 H170        3.5677  -15.5232  -41.1093 H         1 UNK         0.0600 
    171 H171        5.7225  -15.8814  -42.2606 H         1 UNK         0.0600 
    172 H172        5.2443  -14.8194  -43.5752 H         1 UNK         0.0600 
    173 H173        5.4846  -14.1677  -41.9549 H         1 UNK         0.0600 
    174 H174        3.2350  -13.3848  -43.0240 H         1 UNK         0.3000 
    175 H175       -0.2308  -12.8631  -42.3931 H         1 UNK         0.0600 
    176 H176        0.4605  -10.6733  -41.4765 H         1 UNK         0.0600 
    177 H177        0.7554  -11.9350  -40.2916 H         1 UNK         0.0600 
    178 H178        2.1003  -11.2668  -41.2086 H         1 UNK         0.0600 
    179 H179        1.6093  -11.1592  -43.6504 H         1 UNK         0.3000 
    180 H180        0.6852  -11.8649  -46.7373 H         1 UNK         0.0600 
    181 H181        2.9418  -10.4996  -45.1621 H         1 UNK         0.0600 
    182 H182        1.2874   -9.9030  -45.3233 H         1 UNK         0.0600 
    183 H183        2.3245  -10.0016  -46.7306 H         1 UNK         0.0600 
    184 H184        2.3644  -12.8008  -47.8226 H         1 UNK         0.3000 
    185 H185        5.2384  -13.2325  -47.8400 H         1 UNK         0.0600 
    186 H186        4.8967  -15.7412  -46.1070 H         1 UNK         0.0600 
    187 H187        6.0407  -15.6048  -47.4417 H         1 UNK         0.0600 
    188 H188        6.2026  -14.5700  -46.0335 H         1 UNK         0.0600 
    189 H189        2.8801  -15.0179  -48.0485 H         1 UNK         0.3000 
    190 H190       -4.4986  -22.6365  -46.1898 H         1 UNK         0.3000 
    191 H191       -4.9086  -24.2466  -48.4828 H         1 UNK         0.0600 
    192 H192       -5.6083  -24.7523  -45.5422 H         1 UNK         0.0600 
    193 H193       -6.2860  -25.6215  -46.9138 H         1 UNK         0.0600 
    194 H194       -6.6155  -23.9078  -46.7198 H         1 UNK         0.0600 
    195 H195       -2.4789  -24.5034  -45.9725 H         1 UNK         0.3000 
    196 H196       -1.6369  -27.2109  -46.9383 H         1 UNK         0.0600 
    197 H197       -0.2971  -27.2690  -44.8419 H         1 UNK         0.0600 
    198 H198       -2.0094  -27.0908  -44.4897 H         1 UNK         0.0600 
    199 H199       -0.9355  -25.7003  -44.3623 H         1 UNK         0.0600 
    200 H200       -0.4641  -23.9329  -46.0281 H         1 UNK         0.3000 
    201 H201        2.1974  -24.2958  -46.8244 H         1 UNK         0.0600 
    202 H202        1.4063  -22.5783  -45.2117 H         1 UNK         0.0600 
    203 H203        0.5992  -21.6990  -46.5048 H         1 UNK         0.0600 
    204 H204        2.3526  -21.8336  -46.4911 H         1 UNK         0.0600 
    205 H205       -0.5705  -23.3179  -48.7967 H         1 UNK         0.3000 
    206 H206        1.1976  -23.0738  -51.1928 H         1 UNK         0.0600 
    207 H207        0.4010  -20.8374  -50.4488 H         1 UNK         0.0600 
    208 H208       -0.3019  -21.2858  -51.9955 H         1 UNK         0.0600 
    209 H209       -1.2657  -21.3827  -50.5253 H         1 UNK         0.0600 
    210 H210       -0.0609  -25.3862  -50.0592 H         1 UNK         0.3000 
    211 H211       -0.9335  -27.2861  -50.6505 H         1 UNK         0.0600 
    212 H212       -0.9160  -26.1867  -53.5100 H         1 UNK         0.0600 
    213 H213       -1.0360  -27.8821  -53.0620 H         1 UNK         0.0600 
    214 H214        0.4293  -26.9852  -52.6964 H         1 UNK         0.0600 
    215 H215       -2.8047  -24.6816  -52.0858 H         1 UNK         0.3000 
    216 H216       -5.3168  -25.6181  -50.9928 H         1 UNK         0.0600 
    217 H217       -6.5038  -25.7875  -53.1940 H         1 UNK         0.0600 
    218 H218       -5.2613  -27.0188  -53.0753 H         1 UNK         0.0600 
    219 H219       -4.9793  -25.5773  -54.0497 H         1 UNK         0.0600 
    220 H220       -3.6649  -23.4422  -50.4875 H         1 UNK         0.3000 
    221 H221       -3.5288  -21.2494  -50.2802 H         1 UNK         0.0600 
    222 H222       -6.5181  -21.1854  -50.9099 H         1 UNK         0.0600 
    223 H223       -5.8437  -21.6469  -49.3487 H         1 UNK         0.0600 
    224 H224       -5.6123  -20.0204  -49.9526 H         1 UNK         0.0600 
    225 H225       -2.8053  -22.2380  -52.8155 H         1 UNK         0.3000 
    226 H226       -2.3031  -21.7618  -54.9088 H         1 UNK         0.0600 
    227 H227       -2.5535  -18.8181  -54.0893 H         1 UNK         0.0600 
    228 H228       -1.6071  -19.4530  -55.4282 H         1 UNK         0.0600 
    229 H229       -1.1451  -19.8308  -53.7788 H         1 UNK         0.0600 
    230 H230       -5.2161  -21.9420  -54.1913 H         1 UNK         0.3000 
    231 H231       -7.2381  -21.8803  -54.9707 H         1 UNK         0.0600 
    232 H232       -6.3915  -22.5228  -57.2220 H         1 UNK         0.0600 
    233 H233       -6.1945  -20.8240  -57.6515 H         1 UNK         0.0600 
    234 H234       -7.7951  -21.4722  -57.3360 H         1 UNK         0.0600 
    235 H235       -5.4798  -18.9318  -55.8526 H         1 UNK         0.3000 
    236 H236       -7.5504  -17.0938  -56.0242 H         1 UNK         0.0600 
    237 H237       -5.2418  -16.6802  -56.8099 H         1 UNK         0.0600 
    238 H238       -5.7245  -15.3983  -55.7097 H         1 UNK         0.0600 
    239 H239       -4.6422  -16.6693  -55.1518 H         1 UNK         0.0600 
    240 H240       -5.9268  -18.2064  -53.0401 H         1 UNK         0.3000 
    241 H241       -7.5552  -16.3154  -51.4117 H         1 UNK         0.0600 
    242 H242       -9.1499  -19.8992  -51.3543 H         1 UNK         0.3800 
    243 H243       -8.3279  -19.2106  -52.7309 H         1 UNK         0.3800 
    244 H244       -6.0256  -16.9432  -49.5341 H         1 UNK         0.0800 
    245 H245       -5.0854  -17.9233  -50.6229 H         1 UNK         0.0800 
    246 H246       -2.9335  -15.4847  -52.5357 H         1 UNK         0.0800 
    247 H247       -3.7591  -17.0173  -52.6484 H         1 UNK         0.0800 
@<TRIPOS>BOND
     1    1    2 1    
     2    1  127 1    
     3    1  128 1    
     4    1  129 1    
     5    2    3 2    
     6    2    4 am   BACKBONE|DICT|INTERRES
     7    4    5 1    
     8    4  130 1    
     9    5    6 1    
    10    5   65 1    
    11    5  131 1    
    12    6    7 1    
    13    6  132 1    
    14    6  133 1    
    15    7    8 1    
    16    8    9 1    
    17    8  134 1    
    18    8  135 1    
    19    9   10 ar   
    20    9   14 ar   
    21   10   11 ar   
    22   10  136 1    
    23   11   12 ar   
    24   11  126 1    
    25   12   13 ar   
    26   12  137 1    
    27   13   14 ar   
    28   13   15 1    
    29   14  138 1    
    30   15   16 1    
    31   15  139 1    
    32   15  140 1    
    33   16   17 1    
    34   17   18 1    
    35   17  141 1    
    36   17  142 1    
    37   18   19 1    
    38   18   67 1    
    39   18  143 1    
    40   19   20 am   BACKBONE|DICT|INTERRES
    41   19  144 1    
    42   20   21 2    
    43   20   22 1    
    44   22   23 1    
    45   22   24 1    
    46   22  145 1    
    47   23  146 1    
    48   23  147 1    
    49   23  148 1    
    50   24   25 am   BACKBONE|DICT|INTERRES
    51   24  149 1    
    52   25   26 2    
    53   25   27 1    
    54   27   28 1    
    55   27   29 1    
    56   27  150 1    
    57   28  151 1    
    58   28  152 1    
    59   28  153 1    
    60   29   30 am   BACKBONE|DICT|INTERRES
    61   29  154 1    
    62   30   31 2    
    63   30   32 1    
    64   32   33 1    
    65   32   34 1    
    66   32  155 1    
    67   33  156 1    
    68   33  157 1    
    69   33  158 1    
    70   34   35 am   BACKBONE|DICT|INTERRES
    71   34  159 1    
    72   35   36 2    
    73   35   37 1    
    74   37   38 1    
    75   37   39 1    
    76   37  160 1    
    77   38  161 1    
    78   38  162 1    
    79   38  163 1    
    80   39   40 am   BACKBONE|DICT|INTERRES
    81   39  164 1    
    82   40   41 2    
    83   40   42 1    
    84   42   43 1    
    85   42   44 1    
    86   42  165 1    
    87   43  166 1    
    88   43  167 1    
    89   43  168 1    
    90   44   45 am   BACKBONE|DICT|INTERRES
    91   44  169 1    
    92   45   46 2    
    93   45   47 1    
    94   47   48 1    
    95   47   49 1    
    96   47  170 1    
    97   48  171 1    
    98   48  172 1    
    99   48  173 1    
   100   49   50 am   BACKBONE|DICT|INTERRES
   101   49  174 1    
   102   50   51 2    
   103   50   52 1    
   104   52   53 1    
   105   52   54 1    
   106   52  175 1    
   107   53  176 1    
   108   53  177 1    
   109   53  178 1    
   110   54   55 am   BACKBONE|DICT|INTERRES
   111   54  179 1    
   112   55   56 2    
   113   55   57 1    
   114   57   58 1    
   115   57   59 1    
   116   57  180 1    
   117   58  181 1    
   118   58  182 1    
   119   58  183 1    
   120   59   60 am   BACKBONE|DICT|INTERRES
   121   59  184 1    
   122   60   61 2    
   123   60   62 1    
   124   62   63 1    
   125   62   64 1    
   126   62  185 1    
   127   63  186 1    
   128   63  187 1    
   129   63  188 1    
   130   64   65 am   BACKBONE|DICT|INTERRES
   131   64  189 1    
   132   65   66 2    
   133   67   68 2    
   134   67   69 am   BACKBONE|DICT|INTERRES
   135   69   70 1    
   136   69  190 1    
   137   70   71 1    
   138   70   72 1    
   139   70  191 1    
   140   71  192 1    
   141   71  193 1    
   142   71  194 1    
   143   72   73 2    
   144   72   74 am   BACKBONE|DICT|INTERRES
   145   74   75 1    
   146   74  195 1    
   147   75   76 1    
   148   75   77 1    
   149   75  196 1    
   150   76  197 1    
   151   76  198 1    
   152   76  199 1    
   153   77   78 2    
   154   77   79 am   BACKBONE|DICT|INTERRES
   155   79   80 1    
   156   79  200 1    
   157   80   81 1    
   158   80   82 1    
   159   80  201 1    
   160   81  202 1    
   161   81  203 1    
   162   81  204 1    
   163   82   83 2    
   164   82   84 am   BACKBONE|DICT|INTERRES
   165   84   85 1    
   166   84  205 1    
   167   85   86 1    
   168   85   87 1    
   169   85  206 1    
   170   86  207 1    
   171   86  208 1    
   172   86  209 1    
   173   87   88 2    
   174   87   89 am   BACKBONE|DICT|INTERRES
   175   89   90 1    
   176   89  210 1    
   177   90   91 1    
   178   90   92 1    
   179   90  211 1    
   180   91  212 1    
   181   91  213 1    
   182   91  214 1    
   183   92   93 2    
   184   92   94 am   BACKBONE|DICT|INTERRES
   185   94   95 1    
   186   94  215 1    
   187   95   96 1    
   188   95   97 1    
   189   95  216 1    
   190   96  217 1    
   191   96  218 1    
   192   96  219 1    
   193   97   98 2    
   194   97   99 am   BACKBONE|DICT|INTERRES
   195   99  100 1    
   196   99  220 1    
   197  100  101 1    
   198  100  102 1    
   199  100  221 1    
   200  101  222 1    
   201  101  223 1    
   202  101  224 1    
   203  102  103 2    
   204  102  104 am   BACKBONE|DICT|INTERRES
   205  104  105 1    
   206  104  225 1    
   207  105  106 1    
   208  105  107 1    
   209  105  226 1    
   210  106  227 1    
   211  106  228 1    
   212  106  229 1    
   213  107  108 2    
   214  107  109 am   BACKBONE|DICT|INTERRES
   215  109  110 1    
   216  109  230 1    
   217  110  111 1    
   218  110  112 1    
   219  110  231 1    
   220  111  232 1    
   221  111  233 1    
   222  111  234 1    
   223  112  113 2    
   224  112  114 am   BACKBONE|DICT|INTERRES
   225  114  115 1    
   226  114  235 1    
   227  115  116 1    
   228  115  117 1    
   229  115  236 1    
   230  116  237 1    
   231  116  238 1    
   232  116  239 1    
   233  117  118 2    
   234  117  119 am   BACKBONE|DICT|INTERRES
   235  119  120 1    
   236  119  240 1    
   237  120  121 1    
   238  120  124 1    
   239  120  241 1    
   240  121  122 am   BACKBONE|DICT|INTERRES
   241  121  123 2    
   242  122  242 1    
   243  122  243 1    
   244  124  125 1    
   245  124  244 1    
   246  124  245 1    
   247  125  126 1    
   248  126  246 1    
   249  126  247 1    
@<TRIPOS>SUBSTRUCTURE
     1 UNK         1 GROUP             0       ****    0 ROOT    
