@<TRIPOS>MOLECULE
3R540
247   249    1
SMALL
USER_CHARGES


@<TRIPOS>ATOM
      1 CA          8.0562  -14.7382  -48.8971 C.3       0 UNK        -0.1800 
      2 C           6.9517  -15.6095  -48.3149 C.2       0 UNK         0.5000 
      3 O           7.0471  -16.8362  -48.3687 O.2       0 UNK        -0.5000 
      4 N           5.9040  -14.9805  -47.7690 N.am      1 UNK        -0.5000 
      5 CA          4.7662  -15.6439  -47.1204 C.3       1 UNK         0.1400 
      6 C6          3.5220  -14.7159  -47.0449 C.3       23 UNK        -0.0398 
      7 S7          3.0314  -14.0450  -48.6786 S.3       23 UNK        -0.2404 
      8 C8          1.2407  -14.4087  -48.7788 C.3       23 UNK        -0.0205 
      9 C9          0.8667  -15.7892  -49.3213 C.ar      23 UNK        -0.0193 
     10 C10        -0.3736  -15.9577  -49.9461 C.ar      23 UNK        -0.1150 
     11 C11        -0.8066  -17.2226  -50.3575 C.ar      23 UNK        -0.0193 
     12 C12         0.0209  -18.3299  -50.1511 C.ar      23 UNK        -0.1150 
     13 C13         1.2742  -18.1769  -49.5557 C.ar      23 UNK        -0.0193 
     14 C14         1.6898  -16.9065  -49.1531 C.ar      23 UNK        -0.1150 
     15 C15         2.1561  -19.3912  -49.2974 C.3       23 UNK        -0.0205 
     16 S16         2.5645  -19.6053  -47.5301 S.3       23 UNK        -0.2404 
     17 C17         0.9186  -19.5678  -46.7398 C.3       23 UNK        -0.0398 
     18 CA          0.3339  -20.9629  -46.4306 C.3       11 UNK         0.1400 
     19 N          -0.7556  -20.8579  -45.4619 N.am      11 UNK        -0.5000 
     20 C          -1.3878  -21.8822  -44.8775 C.2       10 UNK         0.5000 
     21 O          -1.0867  -23.0629  -45.0442 O.2       10 UNK        -0.5000 
     22 CA         -2.5906  -21.5175  -43.9921 C.3       10 UNK         0.1400 
     23 CB         -2.1301  -21.0998  -42.5873 C.3       10 UNK        -0.1800 
     24 N          -3.3922  -20.4459  -44.5849 N.am      10 UNK        -0.5000 
     25 C          -4.1602  -20.5927  -45.6731 C.2       9 UNK         0.5000 
     26 O          -4.3036  -21.6597  -46.2706 O.2       9 UNK        -0.5000 
     27 CA         -4.8528  -19.3239  -46.2044 C.3       9 UNK         0.1400 
     28 CB         -6.1426  -19.0353  -45.4229 C.3       9 UNK        -0.1800 
     29 N          -3.9875  -18.1421  -46.1794 N.am      9 UNK        -0.5000 
     30 C          -2.8988  -18.0063  -46.9483 C.2       8 UNK         0.5000 
     31 O          -2.5072  -18.8721  -47.7270 O.2       8 UNK        -0.5000 
     32 CA         -2.0897  -16.7049  -46.8083 C.3       8 UNK         0.1400 
     33 CB         -2.7884  -15.5685  -47.5709 C.3       8 UNK        -0.1800 
     34 N          -1.8286  -16.2671  -45.4347 N.am      8 UNK        -0.5000 
     35 C          -1.4017  -17.0176  -44.4076 C.2       7 UNK         0.5000 
     36 O          -1.2286  -18.2340  -44.4814 O.2       7 UNK        -0.5000 
     37 CA         -1.1006  -16.3045  -43.0727 C.3       7 UNK         0.1400 
     38 CB          0.2856  -16.7026  -42.5463 C.3       7 UNK        -0.1800 
     39 N          -1.1636  -14.8443  -43.1626 N.am      7 UNK        -0.5000 
     40 C          -2.2858  -14.1131  -43.1037 C.2       6 UNK         0.5000 
     41 O          -3.4049  -14.6028  -42.9521 O.2       6 UNK        -0.5000 
     42 CA         -2.1460  -12.5841  -43.2586 C.3       6 UNK         0.1400 
     43 CB         -2.3004  -11.8927  -41.8952 C.3       6 UNK        -0.1800 
     44 N          -0.8780  -12.1594  -43.8568 N.am      6 UNK        -0.5000 
     45 C          -0.4931  -12.3909  -45.1204 C.2       5 UNK         0.5000 
     46 O          -1.1882  -12.9801  -45.9463 O.2       5 UNK        -0.5000 
     47 CA          0.9224  -11.9189  -45.5101 C.3       5 UNK         0.1400 
     48 CB          0.8654  -10.5493  -46.2015 C.3       5 UNK        -0.1800 
     49 N           1.8364  -11.8474  -44.3655 N.am      5 UNK        -0.5000 
     50 C           2.2797  -12.9155  -43.6911 C.2       4 UNK         0.5000 
     51 O           2.0024  -14.0785  -43.9948 O.2       4 UNK        -0.5000 
     52 CA          3.1246  -12.6309  -42.4448 C.3       4 UNK         0.1400 
     53 CB          2.2225  -12.3173  -41.2378 C.3       4 UNK        -0.1800 
     54 N           3.9418  -13.8012  -42.1562 N.am      4 UNK        -0.5000 
     55 C           5.1117  -13.8018  -41.5124 C.2       3 UNK         0.5000 
     56 O           5.6221  -12.7848  -41.0401 O.2       3 UNK        -0.5000 
     57 CA          5.8692  -15.1402  -41.3916 C.3       3 UNK         0.1400 
     58 CB          5.6949  -15.7579  -39.9904 C.3       3 UNK        -0.1800 
     59 N           5.5807  -16.1138  -42.4548 N.am      3 UNK        -0.5000 
     60 C           4.4749  -16.8355  -42.6745 C.2       2 UNK         0.5000 
     61 O           3.4617  -16.7577  -41.9812 O.2       2 UNK        -0.5000 
     62 CA          4.5094  -17.7753  -43.9000 C.3       2 UNK         0.1400 
     63 CB          3.4617  -18.8988  -43.7954 C.3       2 UNK        -0.1800 
     64 N           4.3177  -17.0756  -45.1745 N.am      2 UNK        -0.5000 
     65 C           5.1584  -16.1895  -45.7275 C.2       1 UNK         0.5000 
     66 O           6.2059  -15.8183  -45.1896 O.2       1 UNK        -0.5000 
     67 C          -0.1136  -21.7103  -47.7055 C.2       11 UNK         0.5000 
     68 O           0.5812  -22.6278  -48.1423 O.2       11 UNK        -0.5000 
     69 N          -1.2884  -21.3491  -48.2454 N.am      12 UNK        -0.5000 
     70 CA         -1.9319  -22.0298  -49.3689 C.3       12 UNK         0.1400 
     71 CB         -3.2031  -21.2785  -49.7941 C.3       12 UNK        -0.1800 
     72 C          -2.2481  -23.4993  -49.0538 C.2       12 UNK         0.5000 
     73 O          -1.9005  -24.3668  -49.8523 O.2       12 UNK        -0.5000 
     74 N          -2.8416  -23.7593  -47.8794 N.am      13 UNK        -0.5000 
     75 CA         -3.1530  -25.1059  -47.3966 C.3       13 UNK         0.1400 
     76 CB         -3.9450  -25.0185  -46.0839 C.3       13 UNK        -0.1800 
     77 C          -1.9036  -25.9927  -47.2313 C.2       13 UNK         0.5000 
     78 O          -1.9282  -27.1517  -47.6459 O.2       13 UNK        -0.5000 
     79 N          -0.8194  -25.4235  -46.6847 N.am      14 UNK        -0.5000 
     80 CA          0.4891  -26.0708  -46.5534 C.3       14 UNK         0.1400 
     81 CB          1.4085  -25.1957  -45.6882 C.3       14 UNK        -0.1800 
     82 C           1.1504  -26.3806  -47.9113 C.2       14 UNK         0.5000 
     83 O           1.7998  -27.4178  -48.0485 O.2       14 UNK        -0.5000 
     84 N           0.9427  -25.4986  -48.8977 N.am      15 UNK        -0.5000 
     85 CA          1.3739  -25.6645  -50.2880 C.3       15 UNK         0.1400 
     86 CB          1.4553  -24.2767  -50.9463 C.3       15 UNK        -0.1800 
     87 C           0.4664  -26.6079  -51.1098 C.2       15 UNK         0.5000 
     88 O           0.7896  -26.8865  -52.2653 O.2       15 UNK        -0.5000 
     89 N          -0.6446  -27.0704  -50.5157 N.am      16 UNK        -0.5000 
     90 CA         -1.7007  -27.9047  -51.0992 C.3       16 UNK         0.1400 
     91 CB         -1.1560  -29.2870  -51.5165 C.3       16 UNK        -0.1800 
     92 C          -2.4925  -27.1957  -52.2203 C.2       16 UNK         0.5000 
     93 O          -2.9861  -27.8529  -53.1391 O.2       16 UNK        -0.5000 
     94 N          -2.6182  -25.8690  -52.1118 N.am      17 UNK        -0.5000 
     95 CA         -3.4416  -25.0155  -52.9611 C.3       17 UNK         0.1400 
     96 CB         -2.6434  -23.7427  -53.2907 C.3       17 UNK        -0.1800 
     97 C          -4.7406  -24.6515  -52.2229 C.2       17 UNK         0.5000 
     98 O          -4.8061  -24.7378  -50.9939 O.2       17 UNK        -0.5000 
     99 N          -5.7526  -24.2194  -52.9822 N.am      18 UNK        -0.5000 
    100 CA        -6.9864  -23.6637  -52.4339 C.3       18 UNK         0.1400 
    101 CB        -8.1107  -23.7882  -53.4735 C.3       18 UNK        -0.1800 
    102 C         -6.7630  -22.1934  -52.0486 C.2       18 UNK         0.5000 
    103 O         -6.2696  -21.4186  -52.8718 O.2       18 UNK        -0.5000 
    104 N         -7.1694  -21.8167  -50.8303 N.am      19 UNK        -0.5000 
    105 CA        -7.0713  -20.4476  -50.3132 C.3       19 UNK         0.1400 
    106 CB        -7.4594  -20.4408  -48.8270 C.3       19 UNK        -0.1800 
    107 C         -7.9214  -19.4336  -51.1060 C.2       19 UNK         0.5000 
    108 O         -7.5463  -18.2656  -51.1933 O.2       19 UNK        -0.5000 
    109 N         -9.0286  -19.9086  -51.6949 N.am      20 UNK        -0.5000 
    110 CA        -9.9033  -19.1365  -52.5780 C.3       20 UNK         0.1400 
    111 CB       -11.2382  -19.8808  -52.7342 C.3       20 UNK        -0.1800 
    112 C         -9.2766  -18.8607  -53.9593 C.2       20 UNK         0.5000 
    113 O         -9.5747  -17.8267  -54.5581 O.2       20 UNK        -0.5000 
    114 N         -8.4259  -19.7793  -54.4414 N.am      21 UNK        -0.5000 
    115 CA        -7.6757  -19.6278  -55.6907 C.3       21 UNK         0.1400 
    116 CB        -7.2748  -21.0110  -56.2257 C.3       21 UNK        -0.1800 
    117 C         -6.4347  -18.7399  -55.4972 C.2       21 UNK         0.5000 
    118 O         -6.0863  -17.9724  -56.3963 O.2       21 UNK        -0.5000 
    119 N         -5.8094  -18.8437  -54.3180 N.am      22 UNK        -0.5000 
    120 CA        -4.6762  -18.0347  -53.8466 C.3       22 UNK         0.1400 
    121 C         -5.0554  -16.5465  -53.5608 C.2       22 UNK         0.5000 
    122 N         -5.5770  -15.8258  -54.5436 N.am      22 UNK        -0.7600 
    123 O         -4.8892  -16.0339  -52.4580 O.2       22 UNK        -0.5000 
    124 C124       -3.9675  -18.7468  -52.6633 C.3       23 UNK        -0.0398 
    125 S125       -2.1990  -18.3179  -52.5180 S.3       23 UNK        -0.2404 
    126 C126       -2.2001  -17.4018  -50.9433 C.3       23 UNK        -0.0205 
    127 H127        7.8330  -13.6761  -48.7919 H         1 UNK         0.0600 
    128 H128        8.1855  -14.9548  -49.9575 H         1 UNK         0.0600 
    129 H129        8.9993  -14.9393  -48.3889 H         1 UNK         0.0600 
    130 H130        5.8891  -13.9714  -47.7473 H         1 UNK         0.3000 
    131 H131        4.5176  -16.5148  -47.7264 H         1 UNK         0.0600 
    132 H132        2.6737  -15.2467  -46.6092 H         1 UNK         0.0800 
    133 H133        3.7193  -13.8712  -46.3828 H         1 UNK         0.0800 
    134 H134        0.7941  -13.6446  -49.4168 H         1 UNK         0.0800 
    135 H135        0.7819  -14.2870  -47.7973 H         1 UNK         0.0800 
    136 H136       -1.0248  -15.1043  -50.0737 H         1 UNK         0.1150 
    137 H137       -0.3234  -19.3136  -50.4380 H         1 UNK         0.1150 
    138 H138        2.6458  -16.8096  -48.6736 H         1 UNK         0.1150 
    139 H139        1.6804  -20.3019  -49.6643 H         1 UNK         0.0800 
    140 H140        3.0826  -19.2819  -49.8623 H         1 UNK         0.0800 
    141 H141        0.2124  -18.9724  -47.3164 H         1 UNK         0.0800 
    142 H142        1.0500  -19.0200  -45.8064 H         1 UNK         0.0800 
    143 H143        1.1156  -21.5612  -45.9575 H         1 UNK         0.0600 
    144 H144       -1.0544  -19.9154  -45.2211 H         1 UNK         0.3000 
    145 H145       -3.2189  -22.4054  -43.8950 H         1 UNK         0.0600 
    146 H146       -2.9816  -20.8902  -41.9398 H         1 UNK         0.0600 
    147 H147       -1.5513  -21.8951  -42.1158 H         1 UNK         0.0600 
    148 H148       -1.5015  -20.2090  -42.6135 H         1 UNK         0.0600 
    149 H149       -3.2665  -19.5201  -44.2015 H         1 UNK         0.3000 
    150 H150       -5.1226  -19.5129  -47.2450 H         1 UNK         0.0600 
    151 H151       -6.8120  -19.8964  -45.4446 H         1 UNK         0.0600 
    152 H152       -6.6846  -18.1937  -45.8547 H         1 UNK         0.0600 
    153 H153       -5.9383  -18.8032  -44.3770 H         1 UNK         0.0600 
    154 H154       -4.2382  -17.3942  -45.5494 H         1 UNK         0.3000 
    155 H155       -1.1186  -16.8816  -47.2729 H         1 UNK         0.0600 
    156 H156       -3.6839  -15.2252  -47.0518 H         1 UNK         0.0600 
    157 H157       -2.1249  -14.7138  -47.6968 H         1 UNK         0.0600 
    158 H158       -3.0926  -15.8860  -48.5686 H         1 UNK         0.0600 
    159 H159       -1.9118  -15.2729  -45.2743 H         1 UNK         0.3000 
    160 H160       -1.8448  -16.6466  -42.3507 H         1 UNK         0.0600 
    161 H161        1.0675  -16.4642  -43.2675 H         1 UNK         0.0600 
    162 H162        0.3416  -17.7737  -42.3479 H         1 UNK         0.0600 
    163 H163        0.5227  -16.1893  -41.6142 H         1 UNK         0.0600 
    164 H164       -0.2835  -14.3730  -43.3249 H         1 UNK         0.3000 
    165 H165       -2.9557  -12.2476  -43.9094 H         1 UNK         0.0600 
    166 H166       -2.2836  -10.8075  -41.9983 H         1 UNK         0.0600 
    167 H167       -3.2493  -12.1575  -41.4266 H         1 UNK         0.0600 
    168 H168       -1.5035  -12.1781  -41.2071 H         1 UNK         0.0600 
    169 H169       -0.2414  -11.6631  -43.2517 H         1 UNK         0.3000 
    170 H170        1.3275  -12.6406  -46.2205 H         1 UNK         0.0600 
    171 H171        0.2122  -10.5805  -47.0747 H         1 UNK         0.0600 
    172 H172        0.4852   -9.7754  -45.5337 H         1 UNK         0.0600 
    173 H173        1.8523  -10.2413  -46.5475 H         1 UNK         0.0600 
    174 H174        2.1064  -10.9228  -44.0610 H         1 UNK         0.3000 
    175 H175        3.7721  -11.7770  -42.6549 H         1 UNK         0.0600 
    176 H176        1.5573  -13.1510  -41.0078 H         1 UNK         0.0600 
    177 H177        2.8136  -12.1071  -40.3463 H         1 UNK         0.0600 
    178 H178        1.6010  -11.4412  -41.4258 H         1 UNK         0.0600 
    179 H179        3.5713  -14.6786  -42.5066 H         1 UNK         0.3000 
    180 H180        6.9267  -14.8981  -41.5076 H         1 UNK         0.0600 
    181 H181        4.6510  -15.9795  -39.7677 H         1 UNK         0.0600 
    182 H182        6.0502  -15.0736  -39.2191 H         1 UNK         0.0600 
    183 H183        6.2645  -16.6820  -39.8919 H         1 UNK         0.0600 
    184 H184        6.2842  -16.1582  -43.1853 H         1 UNK         0.3000 
    185 H185        5.4938  -18.2475  -43.9198 H         1 UNK         0.0600 
    186 H186        3.5641  -19.4426  -42.8554 H         1 UNK         0.0600 
    187 H187        2.4444  -18.5092  -43.8382 H         1 UNK         0.0600 
    188 H188        3.5782  -19.6243  -44.6004 H         1 UNK         0.0600 
    189 H189        3.4796  -17.3250  -45.6781 H         1 UNK         0.3000 
    190 H190       -1.7819  -20.5423  -47.8686 H         1 UNK         0.3000 
    191 H191       -1.2338  -22.0121  -50.2082 H         1 UNK         0.0600 
    192 H192       -3.9209  -21.2013  -48.9773 H         1 UNK         0.0600 
    193 H193       -3.7012  -21.7846  -50.6222 H         1 UNK         0.0600 
    194 H194       -2.9660  -20.2698  -50.1268 H         1 UNK         0.0600 
    195 H195       -3.1223  -22.9854  -47.2862 H         1 UNK         0.3000 
    196 H196       -3.7931  -25.5775  -48.1456 H         1 UNK         0.0600 
    197 H197       -4.2136  -26.0122  -45.7233 H         1 UNK         0.0600 
    198 H198       -4.8714  -24.4602  -46.2196 H         1 UNK         0.0600 
    199 H199       -3.3713  -24.5279  -45.2979 H         1 UNK         0.0600 
    200 H200       -0.8960  -24.4773  -46.3200 H         1 UNK         0.3000 
    201 H201        0.3394  -27.0204  -46.0356 H         1 UNK         0.0600 
    202 H202        0.9841  -25.0393  -44.6963 H         1 UNK         0.0600 
    203 H203        1.5734  -24.2166  -46.1387 H         1 UNK         0.0600 
    204 H204        2.3839  -25.6652  -45.5548 H         1 UNK         0.0600 
    205 H205        0.4409  -24.6427  -48.6844 H         1 UNK         0.3000 
    206 H206        2.3760  -26.0978  -50.2909 H         1 UNK         0.0600 
    207 H207        2.1240  -23.6163  -50.3937 H         1 UNK         0.0600 
    208 H208        1.8375  -24.3463  -51.9653 H         1 UNK         0.0600 
    209 H209        0.4780  -23.7964  -50.9956 H         1 UNK         0.0600 
    210 H210       -0.8273  -26.7550  -49.5713 H         1 UNK         0.3000 
    211 H211       -2.4189  -28.0713  -50.2953 H         1 UNK         0.0600 
    212 H212       -0.4891  -29.2195  -52.3762 H         1 UNK         0.0600 
    213 H213       -1.9692  -29.9609  -51.7883 H         1 UNK         0.0600 
    214 H214       -0.6068  -29.7567  -50.7004 H         1 UNK         0.0600 
    215 H215       -2.2550  -25.4146  -51.2745 H         1 UNK         0.3000 
    216 H216       -3.6946  -25.5270  -53.8919 H         1 UNK         0.0600 
    217 H217       -3.2143  -23.0743  -53.9366 H         1 UNK         0.0600 
    218 H218       -1.7163  -23.9846  -53.8106 H         1 UNK         0.0600 
    219 H219       -2.3836  -23.1846  -52.3905 H         1 UNK         0.0600 
    220 H220       -5.6211  -24.1263  -53.9788 H         1 UNK         0.3000 
    221 H221       -7.2810  -24.2302  -51.5476 H         1 UNK         0.0600 
    222 H222       -7.8667  -23.2709  -54.4010 H         1 UNK         0.0600 
    223 H223       -8.3043  -24.8330  -53.7173 H         1 UNK         0.0600 
    224 H224       -9.0429  -23.3657  -53.0962 H         1 UNK         0.0600 
    225 H225       -7.5620  -22.5071  -50.2064 H         1 UNK         0.3000 
    226 H226       -6.0285  -20.1337  -50.3936 H         1 UNK         0.0600 
    227 H227       -6.8063  -21.0925  -48.2458 H         1 UNK         0.0600 
    228 H228       -7.3769  -19.4377  -48.4065 H         1 UNK         0.0600 
    229 H229       -8.4868  -20.7747  -48.6775 H         1 UNK         0.0600 
    230 H230       -9.2691  -20.8779  -51.5508 H         1 UNK         0.3000 
    231 H231      -10.1036  -18.1720  -52.1062 H         1 UNK         0.0600 
    232 H232      -11.9260  -19.3198  -53.3684 H         1 UNK         0.0600 
    233 H233      -11.7278  -20.0198  -51.7701 H         1 UNK         0.0600 
    234 H234      -11.1017  -20.8636  -53.1873 H         1 UNK         0.0600 
    235 H235       -8.1965  -20.5800  -53.8708 H         1 UNK         0.3000 
    236 H236       -8.3177  -19.1528  -56.4357 H         1 UNK         0.0600 
    237 H237       -8.1484  -21.6461  -56.3729 H         1 UNK         0.0600 
    238 H238       -6.7724  -20.9219  -57.1896 H         1 UNK         0.0600 
    239 H239       -6.5913  -21.5256  -55.5501 H         1 UNK         0.0600 
    240 H240       -6.1497  -19.5428  -53.6680 H         1 UNK         0.3000 
    241 H241       -3.9619  -18.0024  -54.6715 H         1 UNK         0.0600 
    242 H242       -5.7579  -16.2668  -55.4392 H         1 UNK         0.3800 
    243 H243       -5.8339  -14.8645  -54.3850 H         1 UNK         0.3800 
    244 H244       -4.4958  -18.5687  -51.7254 H         1 UNK         0.0800 
    245 H245       -3.9970  -19.8278  -52.8094 H         1 UNK         0.0800 
    246 H246       -2.6746  -16.4332  -51.1029 H         1 UNK         0.0800 
    247 H247       -2.8116  -17.9278  -50.2109 H         1 UNK         0.0800 
@<TRIPOS>BOND
     1    1    2 1    
     2    1  127 1    
     3    1  128 1    
     4    1  129 1    
     5    2    3 2    
     6    2    4 am   BACKBONE|DICT|INTERRES
     7    4    5 1    
     8    4  130 1    
     9    5    6 1    
    10    5   65 1    
    11    5  131 1    
    12    6    7 1    
    13    6  132 1    
    14    6  133 1    
    15    7    8 1    
    16    8    9 1    
    17    8  134 1    
    18    8  135 1    
    19    9   10 ar   
    20    9   14 ar   
    21   10   11 ar   
    22   10  136 1    
    23   11   12 ar   
    24   11  126 1    
    25   12   13 ar   
    26   12  137 1    
    27   13   14 ar   
    28   13   15 1    
    29   14  138 1    
    30   15   16 1    
    31   15  139 1    
    32   15  140 1    
    33   16   17 1    
    34   17   18 1    
    35   17  141 1    
    36   17  142 1    
    37   18   19 1    
    38   18   67 1    
    39   18  143 1    
    40   19   20 am   BACKBONE|DICT|INTERRES
    41   19  144 1    
    42   20   21 2    
    43   20   22 1    
    44   22   23 1    
    45   22   24 1    
    46   22  145 1    
    47   23  146 1    
    48   23  147 1    
    49   23  148 1    
    50   24   25 am   BACKBONE|DICT|INTERRES
    51   24  149 1    
    52   25   26 2    
    53   25   27 1    
    54   27   28 1    
    55   27   29 1    
    56   27  150 1    
    57   28  151 1    
    58   28  152 1    
    59   28  153 1    
    60   29   30 am   BACKBONE|DICT|INTERRES
    61   29  154 1    
    62   30   31 2    
    63   30   32 1    
    64   32   33 1    
    65   32   34 1    
    66   32  155 1    
    67   33  156 1    
    68   33  157 1    
    69   33  158 1    
    70   34   35 am   BACKBONE|DICT|INTERRES
    71   34  159 1    
    72   35   36 2    
    73   35   37 1    
    74   37   38 1    
    75   37   39 1    
    76   37  160 1    
    77   38  161 1    
    78   38  162 1    
    79   38  163 1    
    80   39   40 am   BACKBONE|DICT|INTERRES
    81   39  164 1    
    82   40   41 2    
    83   40   42 1    
    84   42   43 1    
    85   42   44 1    
    86   42  165 1    
    87   43  166 1    
    88   43  167 1    
    89   43  168 1    
    90   44   45 am   BACKBONE|DICT|INTERRES
    91   44  169 1    
    92   45   46 2    
    93   45   47 1    
    94   47   48 1    
    95   47   49 1    
    96   47  170 1    
    97   48  171 1    
    98   48  172 1    
    99   48  173 1    
   100   49   50 am   BACKBONE|DICT|INTERRES
   101   49  174 1    
   102   50   51 2    
   103   50   52 1    
   104   52   53 1    
   105   52   54 1    
   106   52  175 1    
   107   53  176 1    
   108   53  177 1    
   109   53  178 1    
   110   54   55 am   BACKBONE|DICT|INTERRES
   111   54  179 1    
   112   55   56 2    
   113   55   57 1    
   114   57   58 1    
   115   57   59 1    
   116   57  180 1    
   117   58  181 1    
   118   58  182 1    
   119   58  183 1    
   120   59   60 am   BACKBONE|DICT|INTERRES
   121   59  184 1    
   122   60   61 2    
   123   60   62 1    
   124   62   63 1    
   125   62   64 1    
   126   62  185 1    
   127   63  186 1    
   128   63  187 1    
   129   63  188 1    
   130   64   65 am   BACKBONE|DICT|INTERRES
   131   64  189 1    
   132   65   66 2    
   133   67   68 2    
   134   67   69 am   BACKBONE|DICT|INTERRES
   135   69   70 1    
   136   69  190 1    
   137   70   71 1    
   138   70   72 1    
   139   70  191 1    
   140   71  192 1    
   141   71  193 1    
   142   71  194 1    
   143   72   73 2    
   144   72   74 am   BACKBONE|DICT|INTERRES
   145   74   75 1    
   146   74  195 1    
   147   75   76 1    
   148   75   77 1    
   149   75  196 1    
   150   76  197 1    
   151   76  198 1    
   152   76  199 1    
   153   77   78 2    
   154   77   79 am   BACKBONE|DICT|INTERRES
   155   79   80 1    
   156   79  200 1    
   157   80   81 1    
   158   80   82 1    
   159   80  201 1    
   160   81  202 1    
   161   81  203 1    
   162   81  204 1    
   163   82   83 2    
   164   82   84 am   BACKBONE|DICT|INTERRES
   165   84   85 1    
   166   84  205 1    
   167   85   86 1    
   168   85   87 1    
   169   85  206 1    
   170   86  207 1    
   171   86  208 1    
   172   86  209 1    
   173   87   88 2    
   174   87   89 am   BACKBONE|DICT|INTERRES
   175   89   90 1    
   176   89  210 1    
   177   90   91 1    
   178   90   92 1    
   179   90  211 1    
   180   91  212 1    
   181   91  213 1    
   182   91  214 1    
   183   92   93 2    
   184   92   94 am   BACKBONE|DICT|INTERRES
   185   94   95 1    
   186   94  215 1    
   187   95   96 1    
   188   95   97 1    
   189   95  216 1    
   190   96  217 1    
   191   96  218 1    
   192   96  219 1    
   193   97   98 2    
   194   97   99 am   BACKBONE|DICT|INTERRES
   195   99  100 1    
   196   99  220 1    
   197  100  101 1    
   198  100  102 1    
   199  100  221 1    
   200  101  222 1    
   201  101  223 1    
   202  101  224 1    
   203  102  103 2    
   204  102  104 am   BACKBONE|DICT|INTERRES
   205  104  105 1    
   206  104  225 1    
   207  105  106 1    
   208  105  107 1    
   209  105  226 1    
   210  106  227 1    
   211  106  228 1    
   212  106  229 1    
   213  107  108 2    
   214  107  109 am   BACKBONE|DICT|INTERRES
   215  109  110 1    
   216  109  230 1    
   217  110  111 1    
   218  110  112 1    
   219  110  231 1    
   220  111  232 1    
   221  111  233 1    
   222  111  234 1    
   223  112  113 2    
   224  112  114 am   BACKBONE|DICT|INTERRES
   225  114  115 1    
   226  114  235 1    
   227  115  116 1    
   228  115  117 1    
   229  115  236 1    
   230  116  237 1    
   231  116  238 1    
   232  116  239 1    
   233  117  118 2    
   234  117  119 am   BACKBONE|DICT|INTERRES
   235  119  120 1    
   236  119  240 1    
   237  120  121 1    
   238  120  124 1    
   239  120  241 1    
   240  121  122 am   BACKBONE|DICT|INTERRES
   241  121  123 2    
   242  122  242 1    
   243  122  243 1    
   244  124  125 1    
   245  124  244 1    
   246  124  245 1    
   247  125  126 1    
   248  126  246 1    
   249  126  247 1    
@<TRIPOS>SUBSTRUCTURE
     1 UNK         1 GROUP             0       ****    0 ROOT    
