@<TRIPOS>MOLECULE
3R540
247   249    1
SMALL
USER_CHARGES


@<TRIPOS>ATOM
      1 CA          5.6326  -16.5211  -41.9066 C.3       0 UNK        -0.1800 
      2 C           4.5675  -15.9696  -42.8422 C.2       0 UNK         0.5000 
      3 O           3.3767  -16.0768  -42.5461 O.2       0 UNK        -0.5000 
      4 N           4.9858  -15.3811  -43.9702 N.am      1 UNK        -0.5000 
      5 CA          4.1364  -14.8017  -45.0199 C.3       1 UNK         0.1400 
      6 C6          4.8926  -14.6949  -46.3715 C.3       23 UNK        -0.0398 
      7 S7          5.3367  -16.3178  -47.0748 S.3       23 UNK        -0.2404 
      8 C8          3.8724  -16.6187  -48.1217 C.3       23 UNK        -0.0205 
      9 C9          3.8473  -17.9778  -48.8182 C.ar      23 UNK        -0.0193 
     10 C10         3.2672  -18.0738  -50.0877 C.ar      23 UNK        -0.1150 
     11 C11         3.2260  -19.2960  -50.7631 C.ar      23 UNK        -0.0193 
     12 C12         3.7496  -20.4371  -50.1505 C.ar      23 UNK        -0.1150 
     13 C13         4.3195  -20.3662  -48.8774 C.ar      23 UNK        -0.0193 
     14 C14         4.3658  -19.1334  -48.2171 C.ar      23 UNK        -0.1150 
     15 C15         4.9257  -21.6175  -48.2498 C.3       23 UNK        -0.0205 
     16 S16         4.2124  -22.0396  -46.6275 S.3       23 UNK        -0.2404 
     17 C17         2.4403  -22.2266  -47.0205 C.3       23 UNK        -0.0398 
     18 CA          1.7308  -23.2675  -46.1188 C.3       11 UNK         0.1400 
     19 N           1.8883  -22.9598  -44.6936 N.am      11 UNK        -0.5000 
     20 C           1.9333  -23.8673  -43.7108 C.2       10 UNK         0.5000 
     21 O           1.7970  -25.0775  -43.8926 O.2       10 UNK        -0.5000 
     22 CA          2.1907  -23.3393  -42.2853 C.3       10 UNK         0.1400 
     23 CB          3.6929  -23.3857  -41.9660 C.3       10 UNK        -0.1800 
     24 N           1.7077  -21.9715  -42.0844 N.am      10 UNK        -0.5000 
     25 C           0.4232  -21.6461  -41.8869 C.2       9 UNK         0.5000 
     26 O          -0.4862  -22.4720  -41.8061 O.2       9 UNK        -0.5000 
     27 CA          0.0931  -20.1414  -41.7919 C.3       9 UNK         0.1400 
     28 CB          0.1878  -19.6619  -40.3357 C.3       9 UNK        -0.1800 
     29 N           0.9217  -19.2725  -42.6385 N.am      9 UNK        -0.5000 
     30 C           1.0368  -19.3875  -43.9669 C.2       8 UNK         0.5000 
     31 O           0.5510  -20.3173  -44.6141 O.2       8 UNK        -0.5000 
     32 CA          1.8761  -18.3248  -44.6956 C.3       8 UNK         0.1400 
     33 CB          3.3536  -18.7355  -44.6773 C.3       8 UNK        -0.1800 
     34 N           1.4234  -18.2027  -46.0822 N.am      8 UNK        -0.5000 
     35 C           0.2837  -17.5905  -46.4271 C.2       7 UNK         0.5000 
     36 O          -0.3287  -16.8279  -45.6756 O.2       7 UNK        -0.5000 
     37 CA         -0.2983  -17.9580  -47.8043 C.3       7 UNK         0.1400 
     38 CB         -0.7912  -19.4200  -47.7284 C.3       7 UNK        -0.1800 
     39 N          -1.3747  -17.0120  -48.1196 N.am      7 UNK        -0.5000 
     40 C          -2.3951  -17.1259  -48.9822 C.2       6 UNK         0.5000 
     41 O          -2.6126  -18.0992  -49.7017 O.2       6 UNK        -0.5000 
     42 CA         -3.3148  -15.9036  -49.1052 C.3       6 UNK         0.1400 
     43 CB         -4.0380  -15.5864  -47.7852 C.3       6 UNK        -0.1800 
     44 N          -2.5350  -14.7503  -49.5416 N.am      6 UNK        -0.5000 
     45 C          -2.2069  -14.5039  -50.8169 C.2       5 UNK         0.5000 
     46 O          -2.6124  -15.1733  -51.7670 O.2       5 UNK        -0.5000 
     47 CA         -1.2586  -13.3203  -51.0865 C.3       5 UNK         0.1400 
     48 CB         -2.0624  -12.0411  -51.3634 C.3       5 UNK        -0.1800 
     49 N          -0.3202  -13.0691  -49.9926 N.am      5 UNK        -0.5000 
     50 C           0.6950  -13.8781  -49.6605 C.2       4 UNK         0.5000 
     51 O           0.9808  -14.9114  -50.2658 O.2       4 UNK        -0.5000 
     52 CA          1.5278  -13.4711  -48.4298 C.3       4 UNK         0.1400 
     53 CB          2.6741  -12.5435  -48.8626 C.3       4 UNK        -0.1800 
     54 N           0.7884  -12.8324  -47.3336 N.am      4 UNK        -0.5000 
     55 C          -0.3364  -13.2817  -46.7578 C.2       3 UNK         0.5000 
     56 O          -0.9821  -14.2427  -47.1730 O.2       3 UNK        -0.5000 
     57 CA         -0.7635  -12.5623  -45.4712 C.3       3 UNK         0.1400 
     58 CB         -2.0995  -13.0803  -44.9073 C.3       3 UNK        -0.1800 
     59 N           0.2914  -12.7763  -44.4875 N.am      3 UNK        -0.5000 
     60 C           0.9016  -11.8288  -43.7673 C.2       2 UNK         0.5000 
     61 O           0.5808  -10.6401  -43.7806 O.2       2 UNK        -0.5000 
     62 CA          2.0933  -12.2886  -42.9040 C.3       2 UNK         0.1400 
     63 CB          1.6297  -12.6258  -41.4789 C.3       2 UNK        -0.1800 
     64 N           2.7939  -13.4485  -43.4633 N.am      2 UNK        -0.5000 
     65 C           3.5241  -13.4469  -44.5861 C.2       1 UNK         0.5000 
     66 O           3.7133  -12.4342  -45.2614 O.2       1 UNK        -0.5000 
     67 C           0.2437  -23.3670  -46.5089 C.2       11 UNK         0.5000 
     68 O          -0.0833  -24.0780  -47.4583 O.2       11 UNK        -0.5000 
     69 N          -0.6236  -22.6469  -45.7828 N.am      12 UNK        -0.5000 
     70 CA         -2.0441  -22.4275  -46.0607 C.3       12 UNK         0.1400 
     71 CB         -2.6508  -21.6021  -44.9156 C.3       12 UNK        -0.1800 
     72 C          -2.8869  -23.6870  -46.3163 C.2       12 UNK         0.5000 
     73 O          -3.7889  -23.6432  -47.1551 O.2       12 UNK        -0.5000 
     74 N          -2.5662  -24.7794  -45.6122 N.am      13 UNK        -0.5000 
     75 CA         -3.2241  -26.0788  -45.7510 C.3       13 UNK         0.1400 
     76 CB         -2.8297  -26.9682  -44.5622 C.3       13 UNK        -0.1800 
     77 C          -2.9016  -26.7840  -47.0826 C.2       13 UNK         0.5000 
     78 O          -3.7547  -27.5001  -47.6074 O.2       13 UNK        -0.5000 
     79 N          -1.6875  -26.5676  -47.6054 N.am      14 UNK        -0.5000 
     80 CA         -1.2301  -27.1044  -48.8870 C.3       14 UNK         0.1400 
     81 CB          0.2896  -27.3263  -48.8304 C.3       14 UNK        -0.1800 
     82 C          -1.5986  -26.1643  -50.0462 C.2       14 UNK         0.5000 
     83 O          -1.9823  -26.6363  -51.1167 O.2       14 UNK        -0.5000 
     84 N          -1.4851  -24.8513  -49.8051 N.am      15 UNK        -0.5000 
     85 CA         -1.7981  -23.7882  -50.7594 C.3       15 UNK         0.1400 
     86 CB         -1.2222  -22.4668  -50.2302 C.3       15 UNK        -0.1800 
     87 C          -3.3039  -23.6247  -51.0351 C.2       15 UNK         0.5000 
     88 O          -3.6598  -23.0873  -52.0837 O.2       15 UNK        -0.5000 
     89 N          -4.1457  -24.0595  -50.0831 N.am      16 UNK        -0.5000 
     90 CA         -5.5983  -23.8701  -50.0267 C.3       16 UNK         0.1400 
     91 CB         -6.3082  -24.6264  -51.1682 C.3       16 UNK        -0.1800 
     92 C          -5.9399  -22.3692  -49.9774 C.2       16 UNK         0.5000 
     93 O          -6.6364  -21.8526  -50.8539 O.2       16 UNK        -0.5000 
     94 N          -5.3820  -21.6909  -48.9650 N.am      17 UNK        -0.5000 
     95 CA         -5.3360  -20.2317  -48.8195 C.3       17 UNK         0.1400 
     96 CB         -4.6606  -19.8867  -47.4879 C.3       17 UNK        -0.1800 
     97 C          -6.6902  -19.5063  -48.9152 C.2       17 UNK         0.5000 
     98 O          -6.7522  -18.4053  -49.4616 O.2       17 UNK        -0.5000 
     99 N          -7.7415  -20.1371  -48.3802 N.am      18 UNK        -0.5000 
    100 CA        -9.0996  -19.5957  -48.3459 C.3       18 UNK         0.1400 
    101 CB        -9.8323  -20.2016  -47.1378 C.3       18 UNK        -0.1800 
    102 C         -9.8999  -19.8519  -49.6381 C.2       18 UNK         0.5000 
    103 O        -10.9453  -19.2252  -49.8184 O.2       18 UNK        -0.5000 
    104 N         -9.4333  -20.7759  -50.4891 N.am      19 UNK        -0.5000 
    105 CA       -10.1494  -21.2391  -51.6776 C.3       19 UNK         0.1400 
    106 CB       -10.2992  -22.7684  -51.6115 C.3       19 UNK        -0.1800 
    107 C         -9.4358  -20.8146  -52.9681 C.2       19 UNK         0.5000 
    108 O        -10.0567  -20.1834  -53.8244 O.2       19 UNK        -0.5000 
    109 N         -8.1551  -21.1801  -53.0916 N.am      20 UNK        -0.5000 
    110 CA        -7.3321  -20.9289  -54.2716 C.3       20 UNK         0.1400 
    111 CB        -6.4225  -22.1427  -54.5185 C.3       20 UNK        -0.1800 
    112 C         -6.4958  -19.6516  -54.1110 C.2       20 UNK         0.5000 
    113 O         -6.4465  -18.8534  -55.0476 O.2       20 UNK        -0.5000 
    114 N         -5.8790  -19.4925  -52.9280 N.am      21 UNK        -0.5000 
    115 CA        -4.9130  -18.4563  -52.5354 C.3       21 UNK         0.1400 
    116 CB        -5.4960  -17.0412  -52.7113 C.3       21 UNK        -0.1800 
    117 C         -3.5487  -18.6169  -53.2431 C.2       21 UNK         0.5000 
    118 O         -3.4920  -18.8567  -54.4510 O.2       21 UNK        -0.5000 
    119 N         -2.4613  -18.5029  -52.4713 N.am      22 UNK        -0.5000 
    120 CA        -1.0810  -18.6987  -52.9453 C.3       22 UNK         0.1400 
    121 C         -0.5230  -17.5668  -53.8575 C.2       22 UNK         0.5000 
    122 N         -1.0657  -16.3569  -53.8274 N.am      22 UNK        -0.7600 
    123 O          0.4099  -17.7943  -54.6226 O.2       22 UNK        -0.5000 
    124 C124       -0.1164  -19.0199  -51.7708 C.3       23 UNK        -0.0398 
    125 S125        1.0941  -20.3104  -52.2132 S.3       23 UNK        -0.2404 
    126 C126        2.6589  -19.3873  -52.1717 C.3       23 UNK        -0.0205 
    127 H127        5.4901  -17.5930  -41.7692 H         1 UNK         0.0600 
    128 H128        5.5613  -16.0384  -40.9319 H         1 UNK         0.0600 
    129 H129        6.6379  -16.3582  -42.2955 H         1 UNK         0.0600 
    130 H130        5.9788  -15.3194  -44.1443 H         1 UNK         0.3000 
    131 H131        3.2890  -15.4729  -45.1752 H         1 UNK         0.0600 
    132 H132        4.2980  -14.1634  -47.1131 H         1 UNK         0.0800 
    133 H133        5.8060  -14.1101  -46.2507 H         1 UNK         0.0800 
    134 H134        2.9753  -16.5242  -47.5128 H         1 UNK         0.0800 
    135 H135        3.8260  -15.8255  -48.8698 H         1 UNK         0.0800 
    136 H136        2.8592  -17.1901  -50.5595 H         1 UNK         0.1150 
    137 H137        3.7224  -21.3805  -50.6778 H         1 UNK         0.1150 
    138 H138        4.8173  -19.0800  -47.2373 H         1 UNK         0.1150 
    139 H139        4.8158  -22.4774  -48.9125 H         1 UNK         0.0800 
    140 H140        5.9984  -21.4618  -48.1290 H         1 UNK         0.0800 
    141 H141        1.9763  -21.2453  -46.9195 H         1 UNK         0.0800 
    142 H142        2.3402  -22.5088  -48.0706 H         1 UNK         0.0800 
    143 H143        2.1813  -24.2416  -46.3214 H         1 UNK         0.0600 
    144 H144        1.9441  -21.9794  -44.4549 H         1 UNK         0.3000 
    145 H145        1.6744  -24.0017  -41.5870 H         1 UNK         0.0600 
    146 H146        3.8883  -23.0742  -40.9397 H         1 UNK         0.0600 
    147 H147        4.0847  -24.3977  -42.0775 H         1 UNK         0.0600 
    148 H148        4.2663  -22.7373  -42.6300 H         1 UNK         0.0600 
    149 H149        2.3920  -21.2310  -42.1290 H         1 UNK         0.3000 
    150 H150       -0.9407  -20.0204  -42.1223 H         1 UNK         0.0600 
    151 H151       -0.4357  -20.2726  -39.6811 H         1 UNK         0.0600 
    152 H152       -0.1526  -18.6311  -40.2362 H         1 UNK         0.0600 
    153 H153        1.2103  -19.7165  -39.9601 H         1 UNK         0.0600 
    154 H154        1.3743  -18.4961  -42.1765 H         1 UNK         0.3000 
    155 H155        1.7595  -17.3654  -44.1890 H         1 UNK         0.0600 
    156 H156        3.9755  -17.9923  -45.1705 H         1 UNK         0.0600 
    157 H157        3.5118  -19.6898  -45.1753 H         1 UNK         0.0600 
    158 H158        3.7216  -18.8367  -43.6559 H         1 UNK         0.0600 
    159 H159        1.8501  -18.8377  -46.7396 H         1 UNK         0.3000 
    160 H160        0.4815  -17.8608  -48.5615 H         1 UNK         0.0600 
    161 H161       -1.5884  -19.5148  -46.9933 H         1 UNK         0.0600 
    162 H162        0.0057  -20.0973  -47.4252 H         1 UNK         0.0600 
    163 H163       -1.1536  -19.7976  -48.6811 H         1 UNK         0.0600 
    164 H164       -1.3083  -16.1496  -47.5816 H         1 UNK         0.3000 
    165 H165       -4.0799  -16.1263  -49.8521 H         1 UNK         0.0600 
    166 H166       -3.3453  -15.3959  -46.9654 H         1 UNK         0.0600 
    167 H167       -4.6765  -14.7093  -47.8905 H         1 UNK         0.0600 
    168 H168       -4.6782  -16.4163  -47.4859 H         1 UNK         0.0600 
    169 H169       -2.0731  -14.2242  -48.8077 H         1 UNK         0.3000 
    170 H170       -0.6805  -13.5603  -51.9815 H         1 UNK         0.0600 
    171 H171       -2.7561  -12.1883  -52.1924 H         1 UNK         0.0600 
    172 H172       -2.6484  -11.7377  -50.4949 H         1 UNK         0.0600 
    173 H173       -1.4065  -11.2132  -51.6333 H         1 UNK         0.0600 
    174 H174       -0.4787  -12.2434  -49.4343 H         1 UNK         0.3000 
    175 H175        1.9578  -14.3840  -48.0179 H         1 UNK         0.0600 
    176 H176        2.2963  -11.6257  -49.3150 H         1 UNK         0.0600 
    177 H177        3.3032  -12.2583  -48.0200 H         1 UNK         0.0600 
    178 H178        3.3156  -13.0317  -49.5976 H         1 UNK         0.0600 
    179 H179        1.2464  -12.0406  -46.9045 H         1 UNK         0.3000 
    180 H180       -0.8711  -11.5019  -45.7084 H         1 UNK         0.0600 
    181 H181       -2.0490  -14.1423  -44.6625 H         1 UNK         0.0600 
    182 H182       -2.9064  -12.9463  -45.6287 H         1 UNK         0.0600 
    183 H183       -2.3785  -12.5415  -44.0018 H         1 UNK         0.0600 
    184 H184        0.6381  -13.7228  -44.4199 H         1 UNK         0.3000 
    185 H185        2.8009  -11.4588  -42.8475 H         1 UNK         0.0600 
    186 H186        2.4748  -12.8834  -40.8402 H         1 UNK         0.0600 
    187 H187        1.1236  -11.7750  -41.0206 H         1 UNK         0.0600 
    188 H188        0.9344  -13.4662  -41.4704 H         1 UNK         0.0600 
    189 H189        2.7292  -14.3233  -42.9491 H         1 UNK         0.3000 
    190 H190       -0.2284  -22.0398  -45.0714 H         1 UNK         0.3000 
    191 H191       -2.0903  -21.8397  -46.9752 H         1 UNK         0.0600 
    192 H192       -3.7201  -21.4457  -45.0604 H         1 UNK         0.0600 
    193 H193       -2.1861  -20.6186  -44.8467 H         1 UNK         0.0600 
    194 H194       -2.5210  -22.0993  -43.9535 H         1 UNK         0.0600 
    195 H195       -1.8054  -24.7173  -44.9512 H         1 UNK         0.3000 
    196 H196       -4.3039  -25.9193  -45.7145 H         1 UNK         0.0600 
    197 H197       -3.3207  -27.9404  -44.6218 H         1 UNK         0.0600 
    198 H198       -3.1236  -26.5144  -43.6155 H         1 UNK         0.0600 
    199 H199       -1.7537  -27.1448  -44.5308 H         1 UNK         0.0600 
    200 H200       -1.0697  -25.9078  -47.1488 H         1 UNK         0.3000 
    201 H201       -1.7044  -28.0710  -49.0706 H         1 UNK         0.0600 
    202 H202        0.5555  -28.0245  -48.0366 H         1 UNK         0.0600 
    203 H203        0.8300  -26.3958  -48.6523 H         1 UNK         0.0600 
    204 H204        0.6572  -27.7447  -49.7682 H         1 UNK         0.0600 
    205 H205       -1.0974  -24.5572  -48.9118 H         1 UNK         0.3000 
    206 H206       -1.3099  -24.0224  -51.7076 H         1 UNK         0.0600 
    207 H207       -0.1409  -22.5246  -50.1029 H         1 UNK         0.0600 
    208 H208       -1.4274  -21.6522  -50.9248 H         1 UNK         0.0600 
    209 H209       -1.6605  -22.1954  -49.2704 H         1 UNK         0.0600 
    210 H210       -3.7315  -24.4265  -49.2357 H         1 UNK         0.3000 
    211 H211       -5.9343  -24.3028  -49.0832 H         1 UNK         0.0600 
    212 H212       -6.0704  -24.2133  -52.1482 H         1 UNK         0.0600 
    213 H213       -7.3903  -24.5802  -51.0484 H         1 UNK         0.0600 
    214 H214       -6.0277  -25.6796  -51.1738 H         1 UNK         0.0600 
    215 H215       -4.8343  -22.2248  -48.2988 H         1 UNK         0.3000 
    216 H216       -4.7019  -19.8580  -49.6226 H         1 UNK         0.0600 
    217 H217       -4.5795  -18.8084  -47.3518 H         1 UNK         0.0600 
    218 H218       -3.6531  -20.2895  -47.4575 H         1 UNK         0.0600 
    219 H219       -5.2144  -20.2872  -46.6383 H         1 UNK         0.0600 
    220 H220       -7.5979  -21.0419  -47.9559 H         1 UNK         0.3000 
    221 H221       -9.0499  -18.5142  -48.2019 H         1 UNK         0.0600 
    222 H222       -9.9196  -21.2856  -47.2220 H         1 UNK         0.0600 
    223 H223       -9.3108  -19.9773  -46.2071 H         1 UNK         0.0600 
    224 H224      -10.8414  -19.7972  -47.0476 H         1 UNK         0.0600 
    225 H225       -8.5242  -21.1871  -50.3147 H         1 UNK         0.3000 
    226 H226      -11.1559  -20.8168  -51.7117 H         1 UNK         0.0600 
    227 H227      -10.8832  -23.0671  -50.7409 H         1 UNK         0.0600 
    228 H228      -10.8138  -23.1496  -52.4944 H         1 UNK         0.0600 
    229 H229       -9.3332  -23.2695  -51.5519 H         1 UNK         0.0600 
    230 H230       -7.6914  -21.6327  -52.3078 H         1 UNK         0.3000 
    231 H231       -7.9688  -20.8088  -55.1510 H         1 UNK         0.0600 
    232 H232       -5.8091  -21.9956  -55.4082 H         1 UNK         0.0600 
    233 H233       -7.0076  -23.0497  -54.6710 H         1 UNK         0.0600 
    234 H234       -5.7469  -22.3174  -53.6808 H         1 UNK         0.0600 
    235 H235       -6.0111  -20.2302  -52.2474 H         1 UNK         0.3000 
    236 H236       -4.7494  -18.5997  -51.4689 H         1 UNK         0.0600 
    237 H237       -6.4862  -16.9644  -52.2618 H         1 UNK         0.0600 
    238 H238       -4.8653  -16.3000  -52.2247 H         1 UNK         0.0600 
    239 H239       -5.5757  -16.7564  -53.7604 H         1 UNK         0.0600 
    240 H240       -2.5669  -18.3003  -51.4784 H         1 UNK         0.3000 
    241 H241       -1.1251  -19.5837  -53.5836 H         1 UNK         0.0600 
    242 H242       -1.7937  -16.1227  -53.1570 H         1 UNK         0.3800 
    243 H243       -0.7044  -15.6424  -54.4377 H         1 UNK         0.3800 
    244 H244        0.3799  -18.1236  -51.3936 H         1 UNK         0.0800 
    245 H245       -0.6716  -19.4153  -50.9222 H         1 UNK         0.0800 
    246 H246        2.5188  -18.3974  -52.6091 H         1 UNK         0.0800 
    247 H247        3.3813  -19.8992  -52.8090 H         1 UNK         0.0800 
@<TRIPOS>BOND
     1    1    2 1    
     2    1  127 1    
     3    1  128 1    
     4    1  129 1    
     5    2    3 2    
     6    2    4 am   BACKBONE|DICT|INTERRES
     7    4    5 1    
     8    4  130 1    
     9    5    6 1    
    10    5   65 1    
    11    5  131 1    
    12    6    7 1    
    13    6  132 1    
    14    6  133 1    
    15    7    8 1    
    16    8    9 1    
    17    8  134 1    
    18    8  135 1    
    19    9   10 ar   
    20    9   14 ar   
    21   10   11 ar   
    22   10  136 1    
    23   11   12 ar   
    24   11  126 1    
    25   12   13 ar   
    26   12  137 1    
    27   13   14 ar   
    28   13   15 1    
    29   14  138 1    
    30   15   16 1    
    31   15  139 1    
    32   15  140 1    
    33   16   17 1    
    34   17   18 1    
    35   17  141 1    
    36   17  142 1    
    37   18   19 1    
    38   18   67 1    
    39   18  143 1    
    40   19   20 am   BACKBONE|DICT|INTERRES
    41   19  144 1    
    42   20   21 2    
    43   20   22 1    
    44   22   23 1    
    45   22   24 1    
    46   22  145 1    
    47   23  146 1    
    48   23  147 1    
    49   23  148 1    
    50   24   25 am   BACKBONE|DICT|INTERRES
    51   24  149 1    
    52   25   26 2    
    53   25   27 1    
    54   27   28 1    
    55   27   29 1    
    56   27  150 1    
    57   28  151 1    
    58   28  152 1    
    59   28  153 1    
    60   29   30 am   BACKBONE|DICT|INTERRES
    61   29  154 1    
    62   30   31 2    
    63   30   32 1    
    64   32   33 1    
    65   32   34 1    
    66   32  155 1    
    67   33  156 1    
    68   33  157 1    
    69   33  158 1    
    70   34   35 am   BACKBONE|DICT|INTERRES
    71   34  159 1    
    72   35   36 2    
    73   35   37 1    
    74   37   38 1    
    75   37   39 1    
    76   37  160 1    
    77   38  161 1    
    78   38  162 1    
    79   38  163 1    
    80   39   40 am   BACKBONE|DICT|INTERRES
    81   39  164 1    
    82   40   41 2    
    83   40   42 1    
    84   42   43 1    
    85   42   44 1    
    86   42  165 1    
    87   43  166 1    
    88   43  167 1    
    89   43  168 1    
    90   44   45 am   BACKBONE|DICT|INTERRES
    91   44  169 1    
    92   45   46 2    
    93   45   47 1    
    94   47   48 1    
    95   47   49 1    
    96   47  170 1    
    97   48  171 1    
    98   48  172 1    
    99   48  173 1    
   100   49   50 am   BACKBONE|DICT|INTERRES
   101   49  174 1    
   102   50   51 2    
   103   50   52 1    
   104   52   53 1    
   105   52   54 1    
   106   52  175 1    
   107   53  176 1    
   108   53  177 1    
   109   53  178 1    
   110   54   55 am   BACKBONE|DICT|INTERRES
   111   54  179 1    
   112   55   56 2    
   113   55   57 1    
   114   57   58 1    
   115   57   59 1    
   116   57  180 1    
   117   58  181 1    
   118   58  182 1    
   119   58  183 1    
   120   59   60 am   BACKBONE|DICT|INTERRES
   121   59  184 1    
   122   60   61 2    
   123   60   62 1    
   124   62   63 1    
   125   62   64 1    
   126   62  185 1    
   127   63  186 1    
   128   63  187 1    
   129   63  188 1    
   130   64   65 am   BACKBONE|DICT|INTERRES
   131   64  189 1    
   132   65   66 2    
   133   67   68 2    
   134   67   69 am   BACKBONE|DICT|INTERRES
   135   69   70 1    
   136   69  190 1    
   137   70   71 1    
   138   70   72 1    
   139   70  191 1    
   140   71  192 1    
   141   71  193 1    
   142   71  194 1    
   143   72   73 2    
   144   72   74 am   BACKBONE|DICT|INTERRES
   145   74   75 1    
   146   74  195 1    
   147   75   76 1    
   148   75   77 1    
   149   75  196 1    
   150   76  197 1    
   151   76  198 1    
   152   76  199 1    
   153   77   78 2    
   154   77   79 am   BACKBONE|DICT|INTERRES
   155   79   80 1    
   156   79  200 1    
   157   80   81 1    
   158   80   82 1    
   159   80  201 1    
   160   81  202 1    
   161   81  203 1    
   162   81  204 1    
   163   82   83 2    
   164   82   84 am   BACKBONE|DICT|INTERRES
   165   84   85 1    
   166   84  205 1    
   167   85   86 1    
   168   85   87 1    
   169   85  206 1    
   170   86  207 1    
   171   86  208 1    
   172   86  209 1    
   173   87   88 2    
   174   87   89 am   BACKBONE|DICT|INTERRES
   175   89   90 1    
   176   89  210 1    
   177   90   91 1    
   178   90   92 1    
   179   90  211 1    
   180   91  212 1    
   181   91  213 1    
   182   91  214 1    
   183   92   93 2    
   184   92   94 am   BACKBONE|DICT|INTERRES
   185   94   95 1    
   186   94  215 1    
   187   95   96 1    
   188   95   97 1    
   189   95  216 1    
   190   96  217 1    
   191   96  218 1    
   192   96  219 1    
   193   97   98 2    
   194   97   99 am   BACKBONE|DICT|INTERRES
   195   99  100 1    
   196   99  220 1    
   197  100  101 1    
   198  100  102 1    
   199  100  221 1    
   200  101  222 1    
   201  101  223 1    
   202  101  224 1    
   203  102  103 2    
   204  102  104 am   BACKBONE|DICT|INTERRES
   205  104  105 1    
   206  104  225 1    
   207  105  106 1    
   208  105  107 1    
   209  105  226 1    
   210  106  227 1    
   211  106  228 1    
   212  106  229 1    
   213  107  108 2    
   214  107  109 am   BACKBONE|DICT|INTERRES
   215  109  110 1    
   216  109  230 1    
   217  110  111 1    
   218  110  112 1    
   219  110  231 1    
   220  111  232 1    
   221  111  233 1    
   222  111  234 1    
   223  112  113 2    
   224  112  114 am   BACKBONE|DICT|INTERRES
   225  114  115 1    
   226  114  235 1    
   227  115  116 1    
   228  115  117 1    
   229  115  236 1    
   230  116  237 1    
   231  116  238 1    
   232  116  239 1    
   233  117  118 2    
   234  117  119 am   BACKBONE|DICT|INTERRES
   235  119  120 1    
   236  119  240 1    
   237  120  121 1    
   238  120  124 1    
   239  120  241 1    
   240  121  122 am   BACKBONE|DICT|INTERRES
   241  121  123 2    
   242  122  242 1    
   243  122  243 1    
   244  124  125 1    
   245  124  244 1    
   246  124  245 1    
   247  125  126 1    
   248  126  246 1    
   249  126  247 1    
@<TRIPOS>SUBSTRUCTURE
     1 UNK         1 GROUP             0       ****    0 ROOT    
