@<TRIPOS>MOLECULE
3R540
247   249    1
SMALL
USER_CHARGES


@<TRIPOS>ATOM
      1 CA          5.9412  -13.3235  -49.2415 C.3       0 UNK        -0.1800 
      2 C           5.0118  -13.8684  -48.1672 C.2       0 UNK         0.5000 
      3 O           5.3831  -13.8982  -46.9944 O.2       0 UNK        -0.5000 
      4 N           3.7989  -14.2830  -48.5593 N.am      1 UNK        -0.5000 
      5 CA          2.7670  -14.8890  -47.7012 C.3       1 UNK         0.1400 
      6 C6          1.5188  -15.3159  -48.5145 C.3       23 UNK        -0.0398 
      7 S7          1.9222  -16.4029  -49.9243 S.3       23 UNK        -0.2404 
      8 C8          0.7540  -17.7857  -49.7027 C.3       23 UNK        -0.0205 
      9 C9         -0.7112  -17.3803  -49.8312 C.ar      23 UNK        -0.0193 
     10 C10        -1.1454  -16.6390  -50.9343 C.ar      23 UNK        -0.1150 
     11 C11        -2.4903  -16.2783  -51.0763 C.ar      23 UNK        -0.0193 
     12 C12        -3.4060  -16.6830  -50.0999 C.ar      23 UNK        -0.1150 
     13 C13        -2.9894  -17.4215  -48.9879 C.ar      23 UNK        -0.0193 
     14 C14        -1.6399  -17.7653  -48.8581 C.ar      23 UNK        -0.1150 
     15 C15        -3.9907  -17.8052  -47.9066 C.3       23 UNK        -0.0205 
     16 S16        -4.4909  -19.5498  -48.0252 S.3       23 UNK        -0.2404 
     17 C17        -4.1576  -20.2037  -46.3465 C.3       23 UNK        -0.0398 
     18 CA         -3.2948  -21.4821  -46.4334 C.3       11 UNK         0.1400 
     19 N          -1.9258  -21.2082  -46.8811 N.am      11 UNK        -0.5000 
     20 C          -1.1097  -22.1281  -47.4113 C.2       10 UNK         0.5000 
     21 O          -1.4519  -23.2926  -47.6206 O.2       10 UNK        -0.5000 
     22 CA          0.3434  -21.7043  -47.7046 C.3       10 UNK         0.1400 
     23 CB          0.4904  -21.3416  -49.1875 C.3       10 UNK        -0.1800 
     24 N           0.8403  -20.5934  -46.8811 N.am      10 UNK        -0.5000 
     25 C           0.8854  -20.5722  -45.5407 C.2       9 UNK         0.5000 
     26 O           0.4667  -21.5019  -44.8485 O.2       9 UNK        -0.5000 
     27 CA          1.4565  -19.3117  -44.8571 C.3       9 UNK         0.1400 
     28 CB          1.5842  -18.0989  -45.8033 C.3       9 UNK        -0.1800 
     29 N           0.6044  -18.9596  -43.7212 N.am      9 UNK        -0.5000 
     30 C           0.7464  -19.4442  -42.4773 C.2       8 UNK         0.5000 
     31 O           1.7126  -20.1201  -42.1202 O.2       8 UNK        -0.5000 
     32 CA         -0.3750  -19.1502  -41.4595 C.3       8 UNK         0.1400 
     33 CB          0.1760  -18.6319  -40.1196 C.3       8 UNK        -0.1800 
     34 N          -1.3631  -18.2016  -41.9772 N.am      8 UNK        -0.5000 
     35 C          -2.5745  -18.5468  -42.4366 C.2       7 UNK         0.5000 
     36 O          -3.0047  -19.6993  -42.4449 O.2       7 UNK        -0.5000 
     37 CA         -3.4557  -17.4237  -43.0124 C.3       7 UNK         0.1400 
     38 CB         -4.2789  -16.7619  -41.8974 C.3       7 UNK        -0.1800 
     39 N          -2.7181  -16.3887  -43.7348 N.am      7 UNK        -0.5000 
     40 C          -1.9180  -16.5716  -44.7903 C.2       6 UNK         0.5000 
     41 O          -1.6528  -17.6806  -45.2552 O.2       6 UNK        -0.5000 
     42 CA         -1.2811  -15.3162  -45.4176 C.3       6 UNK         0.1400 
     43 CB         -2.2519  -14.5903  -46.3656 C.3       6 UNK        -0.1800 
     44 N          -0.6855  -14.3955  -44.4442 N.am      6 UNK        -0.5000 
     45 C          -1.2780  -13.6759  -43.4798 C.2       5 UNK         0.5000 
     46 O          -2.5001  -13.6065  -43.3370 O.2       5 UNK        -0.5000 
     47 CA         -0.3494  -12.9474  -42.4832 C.3       5 UNK         0.1400 
     48 CB         -0.9944  -12.7986  -41.0899 C.3       5 UNK        -0.1800 
     49 N           0.9876  -13.5423  -42.3534 N.am      5 UNK        -0.5000 
     50 C           1.3004  -14.8032  -42.0069 C.2       4 UNK         0.5000 
     51 O           0.4598  -15.6806  -41.8013 O.2       4 UNK        -0.5000 
     52 CA          2.8041  -15.1316  -41.8976 C.3       4 UNK         0.1400 
     53 CB          3.1234  -16.5971  -42.2337 C.3       4 UNK        -0.1800 
     54 N           3.5810  -14.2638  -42.7821 N.am      4 UNK        -0.5000 
     55 C           4.5349  -13.4072  -42.3932 C.2       3 UNK         0.5000 
     56 O           4.9471  -13.3184  -41.2362 O.2       3 UNK        -0.5000 
     57 CA          5.1067  -12.4621  -43.4712 C.3       3 UNK         0.1400 
     58 CB          6.4485  -12.9957  -43.9938 C.3       3 UNK        -0.1800 
     59 N           4.1967  -12.2448  -44.6014 N.am      3 UNK        -0.5000 
     60 C           3.0039  -11.6344  -44.5119 C.2       2 UNK         0.5000 
     61 O           2.5691  -11.1507  -43.4665 O.2       2 UNK        -0.5000 
     62 CA          2.1118  -11.6059  -45.7692 C.3       2 UNK         0.1400 
     63 CB          2.2083  -10.2397  -46.4637 C.3       2 UNK        -0.1800 
     64 N           2.4080  -12.6556  -46.7451 N.am      2 UNK        -0.5000 
     65 C           2.3449  -13.9774  -46.5276 C.2       1 UNK         0.5000 
     66 O           2.0120  -14.4750  -45.4500 O.2       1 UNK        -0.5000 
     67 C          -3.3654  -22.3662  -45.1663 C.2       11 UNK         0.5000 
     68 O          -4.4324  -22.9141  -44.8876 O.2       11 UNK        -0.5000 
     69 N          -2.2345  -22.5561  -44.4731 N.am      12 UNK        -0.5000 
     70 CA         -2.0506  -23.5754  -43.4440 C.3       12 UNK         0.1400 
     71 CB         -1.5331  -22.9194  -42.1536 C.3       12 UNK        -0.1800 
     72 C          -1.0695  -24.6504  -43.9401 C.2       12 UNK         0.5000 
     73 O          -1.4071  -25.8341  -43.9347 O.2       12 UNK        -0.5000 
     74 N           0.1260  -24.2194  -44.3663 N.am      13 UNK        -0.5000 
     75 CA          1.2826  -25.0692  -44.6594 C.3       13 UNK         0.1400 
     76 CB          2.5237  -24.1772  -44.8182 C.3       13 UNK        -0.1800 
     77 C           1.1238  -25.9841  -45.8867 C.2       13 UNK         0.5000 
     78 O           1.7268  -27.0576  -45.9136 O.2       13 UNK        -0.5000 
     79 N           0.3253  -25.5535  -46.8700 N.am      14 UNK        -0.5000 
     80 CA          0.0250  -26.2967  -48.0955 C.3       14 UNK         0.1400 
     81 CB          0.5420  -25.4995  -49.3072 C.3       14 UNK        -0.1800 
     82 C          -1.4821  -26.5900  -48.2079 C.2       14 UNK         0.5000 
     83 O          -1.9583  -26.8894  -49.3028 O.2       14 UNK        -0.5000 
     84 N          -2.2155  -26.4670  -47.0888 N.am      15 UNK        -0.5000 
     85 CA         -3.6589  -26.6931  -46.9421 C.3       15 UNK         0.1400 
     86 CB         -3.9666  -28.2023  -47.0249 C.3       15 UNK        -0.1800 
     87 C          -4.5305  -25.8560  -47.9069 C.2       15 UNK         0.5000 
     88 O          -5.6084  -26.3027  -48.3028 O.2       15 UNK        -0.5000 
     89 N          -4.0387  -24.6626  -48.2736 N.am      16 UNK        -0.5000 
     90 CA         -4.6398  -23.7130  -49.2142 C.3       16 UNK         0.1400 
     91 CB         -6.0091  -23.2054  -48.7123 C.3       16 UNK        -0.1800 
     92 C          -4.6738  -24.2090  -50.6718 C.2       16 UNK         0.5000 
     93 O          -5.5044  -23.7411  -51.4505 O.2       16 UNK        -0.5000 
     94 N          -3.7284  -25.0826  -51.0530 N.am      17 UNK        -0.5000 
     95 CA         -3.5063  -25.4879  -52.4461 C.3       17 UNK         0.1400 
     96 CB         -2.4565  -26.6070  -52.4964 C.3       17 UNK        -0.1800 
     97 C          -3.0845  -24.3109  -53.3505 C.2       17 UNK         0.5000 
     98 O          -3.4484  -24.2836  -54.5258 O.2       17 UNK        -0.5000 
     99 N          -2.3642  -23.3373  -52.7725 N.am      18 UNK        -0.5000 
    100 CA        -1.9612  -22.0910  -53.4265 C.3       18 UNK         0.1400 
    101 CB        -0.9663  -21.3451  -52.5251 C.3       18 UNK        -0.1800 
    102 C         -3.1496  -21.1739  -53.7675 C.2       18 UNK         0.5000 
    103 O         -3.1056  -20.4820  -54.7841 O.2       18 UNK        -0.5000 
    104 N         -4.2052  -21.2036  -52.9407 N.am      19 UNK        -0.5000 
    105 CA        -5.4086  -20.3753  -53.0769 C.3       19 UNK         0.1400 
    106 CB        -6.2012  -20.4099  -51.7612 C.3       19 UNK        -0.1800 
    107 C         -6.3017  -20.7557  -54.2765 C.2       19 UNK         0.5000 
    108 O         -7.2335  -20.0170  -54.5946 O.2       19 UNK        -0.5000 
    109 N         -5.9986  -21.8792  -54.9426 N.am      20 UNK        -0.5000 
    110 CA        -6.5819  -22.2552  -56.2302 C.3       20 UNK         0.1400 
    111 CB        -6.2580  -23.7290  -56.5166 C.3       20 UNK        -0.1800 
    112 C         -6.0888  -21.3586  -57.3859 C.2       20 UNK         0.5000 
    113 O         -6.8030  -21.2160  -58.3792 O.2       20 UNK        -0.5000 
    114 N         -4.8906  -20.7748  -57.2372 N.am      21 UNK        -0.5000 
    115 CA        -4.2767  -19.8575  -58.1962 C.3       21 UNK         0.1400 
    116 CB        -2.8697  -20.3675  -58.5477 C.3       21 UNK        -0.1800 
    117 C         -4.2076  -18.4287  -57.6320 C.2       21 UNK         0.5000 
    118 O         -4.5172  -17.4785  -58.3517 O.2       21 UNK        -0.5000 
    119 N         -3.7953  -18.2990  -56.3649 N.am      22 UNK        -0.5000 
    120 CA        -3.6671  -17.0314  -55.6389 C.3       22 UNK         0.1400 
    121 C         -5.0524  -16.4251  -55.2838 C.2       22 UNK         0.5000 
    122 N         -5.3548  -15.2201  -55.7476 N.am      22 UNK        -0.7600 
    123 O         -5.8393  -17.0254  -54.5577 O.2       22 UNK        -0.5000 
    124 C124       -2.7745  -17.2132  -54.3839 C.3       23 UNK        -0.0398 
    125 S125       -2.0700  -15.6361  -53.8027 S.3       23 UNK        -0.2404 
    126 C126       -2.9680  -15.3965  -52.2306 C.3       23 UNK        -0.0205 
    127 H127        5.4797  -13.3502  -50.2289 H         1 UNK         0.0600 
    128 H128        6.8573  -13.9130  -49.2778 H         1 UNK         0.0600 
    129 H129        6.2078  -12.2906  -49.0175 H         1 UNK         0.0600 
    130 H130        3.5647  -14.2448  -49.5416 H         1 UNK         0.3000 
    131 H131        3.2076  -15.7856  -47.2607 H         1 UNK         0.0600 
    132 H132        0.8088  -15.8332  -47.8707 H         1 UNK         0.0800 
    133 H133        0.9932  -14.4432  -48.9067 H         1 UNK         0.0800 
    134 H134        0.9456  -18.2544  -48.7391 H         1 UNK         0.0800 
    135 H135        0.9689  -18.5392  -50.4613 H         1 UNK         0.0800 
    136 H136       -0.4226  -16.3297  -51.6753 H         1 UNK         0.1150 
    137 H137       -4.4454  -16.4008  -50.1929 H         1 UNK         0.1150 
    138 H138       -1.3189  -18.3316  -47.9959 H         1 UNK         0.1150 
    139 H139       -3.5696  -17.5880  -46.9294 H         1 UNK         0.0800 
    140 H140       -4.8854  -17.1855  -47.9822 H         1 UNK         0.0800 
    141 H141       -5.1242  -20.4164  -45.8864 H         1 UNK         0.0800 
    142 H142       -3.6746  -19.4601  -45.7126 H         1 UNK         0.0800 
    143 H143       -3.7537  -22.1017  -47.1969 H         1 UNK         0.0600 
    144 H144       -1.5758  -20.2759  -46.7178 H         1 UNK         0.3000 
    145 H145        0.9790  -22.5681  -47.5015 H         1 UNK         0.0600 
    146 H146        1.5146  -21.0591  -49.4313 H         1 UNK         0.0600 
    147 H147        0.2313  -22.1896  -49.8217 H         1 UNK         0.0600 
    148 H148       -0.1668  -20.5171  -49.4638 H         1 UNK         0.0600 
    149 H149        1.2182  -19.8033  -47.3797 H         1 UNK         0.3000 
    150 H150        2.4573  -19.5611  -44.4996 H         1 UNK         0.0600 
    151 H151        2.3662  -18.2605  -46.5460 H         1 UNK         0.0600 
    152 H152        1.8496  -17.1951  -45.2582 H         1 UNK         0.0600 
    153 H153        0.6573  -17.8921  -46.3357 H         1 UNK         0.0600 
    154 H154       -0.2509  -18.4673  -43.9500 H         1 UNK         0.3000 
    155 H155       -0.8524  -20.1092  -41.2527 H         1 UNK         0.0600 
    156 H156        0.7082  -17.6893  -40.2306 H         1 UNK         0.0600 
    157 H157        0.8694  -19.3477  -39.6765 H         1 UNK         0.0600 
    158 H158       -0.6282  -18.4763  -39.4005 H         1 UNK         0.0600 
    159 H159       -1.0650  -17.2327  -42.0214 H         1 UNK         0.3000 
    160 H160       -4.1477  -17.8823  -43.7213 H         1 UNK         0.0600 
    161 H161       -3.6396  -16.2450  -41.1804 H         1 UNK         0.0600 
    162 H162       -4.8606  -17.5026  -41.3469 H         1 UNK         0.0600 
    163 H163       -4.9815  -16.0346  -42.3046 H         1 UNK         0.0600 
    164 H164       -2.8513  -15.4294  -43.4247 H         1 UNK         0.3000 
    165 H165       -0.4472  -15.6727  -46.0187 H         1 UNK         0.0600 
    166 H166       -3.1468  -14.2425  -45.8493 H         1 UNK         0.0600 
    167 H167       -1.7747  -13.7272  -46.8296 H         1 UNK         0.0600 
    168 H168       -2.5760  -15.2491  -47.1702 H         1 UNK         0.0600 
    169 H169        0.3299  -14.3862  -44.4661 H         1 UNK         0.3000 
    170 H170       -0.1997  -11.9460  -42.8888 H         1 UNK         0.0600 
    171 H171       -1.9239  -12.2306  -41.1436 H         1 UNK         0.0600 
    172 H172       -1.2278  -13.7683  -40.6487 H         1 UNK         0.0600 
    173 H173       -0.3333  -12.2687  -40.4043 H         1 UNK         0.0600 
    174 H174        1.7526  -12.8989  -42.5186 H         1 UNK         0.3000 
    175 H175        3.0772  -14.9590  -40.8550 H         1 UNK         0.0600 
    176 H176        2.7941  -16.8587  -43.2373 H         1 UNK         0.0600 
    177 H177        4.1943  -16.7903  -42.1730 H         1 UNK         0.0600 
    178 H178        2.6363  -17.2768  -41.5359 H         1 UNK         0.0600 
    179 H179        3.2921  -14.2620  -43.7544 H         1 UNK         0.3000 
    180 H180        5.2859  -11.4947  -42.9976 H         1 UNK         0.0600 
    181 H181        6.3383  -13.9802  -44.4499 H         1 UNK         0.0600 
    182 H182        7.1731  -13.0897  -43.1840 H         1 UNK         0.0600 
    183 H183        6.8784  -12.3262  -44.7391 H         1 UNK         0.0600 
    184 H184        4.4777  -12.6513  -45.4869 H         1 UNK         0.3000 
    185 H185        1.0815  -11.7495  -45.4371 H         1 UNK         0.0600 
    186 H186        3.2128  -10.0536  -46.8460 H         1 UNK         0.0600 
    187 H187        1.5117  -10.1711  -47.2995 H         1 UNK         0.0600 
    188 H188        1.9645   -9.4311  -45.7731 H         1 UNK         0.0600 
    189 H189        2.7180  -12.3447  -47.6543 H         1 UNK         0.3000 
    190 H190       -1.3951  -22.0654  -44.7632 H         1 UNK         0.3000 
    191 H191       -2.9945  -24.0729  -43.2120 H         1 UNK         0.0600 
    192 H192       -1.3395  -23.6677  -41.3842 H         1 UNK         0.0600 
    193 H193       -2.2674  -22.2230  -41.7499 H         1 UNK         0.0600 
    194 H194       -0.6061  -22.3695  -42.3196 H         1 UNK         0.0600 
    195 H195        0.3025  -23.2166  -44.3868 H         1 UNK         0.3000 
    196 H196        1.4406  -25.7156  -43.7935 H         1 UNK         0.0600 
    197 H197        2.4253  -23.4982  -45.6656 H         1 UNK         0.0600 
    198 H198        2.6938  -23.5747  -43.9257 H         1 UNK         0.0600 
    199 H199        3.4199  -24.7775  -44.9807 H         1 UNK         0.0600 
    200 H200       -0.1614  -24.6708  -46.7672 H         1 UNK         0.3000 
    201 H201        0.5263  -27.2662  -48.0920 H         1 UNK         0.0600 
    202 H202       -0.0112  -24.5715  -49.4466 H         1 UNK         0.0600 
    203 H203        0.4438  -26.0779  -50.2266 H         1 UNK         0.0600 
    204 H204        1.5968  -25.2488  -49.1947 H         1 UNK         0.0600 
    205 H205       -1.7286  -26.2209  -46.2367 H         1 UNK         0.3000 
    206 H206       -3.9174  -26.3565  -45.9370 H         1 UNK         0.0600 
    207 H207       -3.3563  -28.7679  -46.3207 H         1 UNK         0.0600 
    208 H208       -5.0101  -28.4059  -46.7820 H         1 UNK         0.0600 
    209 H209       -3.7790  -28.5971  -48.0240 H         1 UNK         0.0600 
    210 H210       -3.1227  -24.4002  -47.9223 H         1 UNK         0.3000 
    211 H211       -3.9666  -22.8564  -49.2432 H         1 UNK         0.0600 
    212 H212       -6.3378  -22.3388  -49.2864 H         1 UNK         0.0600 
    213 H213       -5.9647  -22.8994  -47.6673 H         1 UNK         0.0600 
    214 H214       -6.7828  -23.9678  -48.8041 H         1 UNK         0.0600 
    215 H215       -3.1101  -25.4865  -50.3574 H         1 UNK         0.3000 
    216 H216       -4.4466  -25.8832  -52.8358 H         1 UNK         0.0600 
    217 H217       -1.4998  -26.2804  -52.0869 H         1 UNK         0.0600 
    218 H218       -2.2817  -26.9345  -53.5220 H         1 UNK         0.0600 
    219 H219       -2.7834  -27.4785  -51.9289 H         1 UNK         0.0600 
    220 H220       -2.0977  -23.4520  -51.8064 H         1 UNK         0.3000 
    221 H221       -1.4576  -22.3445  -54.3618 H         1 UNK         0.0600 
    222 H222       -0.0820  -21.9505  -52.3265 H         1 UNK         0.0600 
    223 H223       -1.4158  -21.0752  -51.5687 H         1 UNK         0.0600 
    224 H224       -0.6268  -20.4220  -52.9974 H         1 UNK         0.0600 
    225 H225       -4.2029  -21.8594  -52.1733 H         1 UNK         0.3000 
    226 H226       -5.0829  -19.3466  -53.2391 H         1 UNK         0.0600 
    227 H227       -6.6383  -21.3912  -51.5793 H         1 UNK         0.0600 
    228 H228       -5.5705  -20.1546  -50.9096 H         1 UNK         0.0600 
    229 H229       -7.0202  -19.6901  -51.7838 H         1 UNK         0.0600 
    230 H230       -5.2390  -22.4529  -54.6028 H         1 UNK         0.3000 
    231 H231       -7.6668  -22.1500  -56.1630 H         1 UNK         0.0600 
    232 H232       -5.1849  -23.8913  -56.6239 H         1 UNK         0.0600 
    233 H233       -6.7332  -24.0597  -57.4409 H         1 UNK         0.0600 
    234 H234       -6.6170  -24.3763  -55.7161 H         1 UNK         0.0600 
    235 H235       -4.3831  -20.9241  -56.3735 H         1 UNK         0.3000 
    236 H236       -4.8589  -19.8187  -59.1192 H         1 UNK         0.0600 
    237 H237       -2.9149  -21.3535  -59.0105 H         1 UNK         0.0600 
    238 H238       -2.3766  -19.6987  -59.2543 H         1 UNK         0.0600 
    239 H239       -2.2333  -20.4421  -57.6649 H         1 UNK         0.0600 
    240 H240       -3.5557  -19.1327  -55.8331 H         1 UNK         0.3000 
    241 H241       -3.1519  -16.3431  -56.3126 H         1 UNK         0.0600 
    242 H242       -6.2466  -14.8137  -55.5119 H         1 UNK         0.3800 
    243 H243       -4.7213  -14.7115  -56.3451 H         1 UNK         0.3800 
    244 H244       -3.3104  -17.7170  -53.5779 H         1 UNK         0.0800 
    245 H245       -1.9279  -17.8592  -54.6212 H         1 UNK         0.0800 
    246 H246       -4.0342  -15.5458  -52.4092 H         1 UNK         0.0800 
    247 H247       -2.8517  -14.3556  -51.9272 H         1 UNK         0.0800 
@<TRIPOS>BOND
     1    1    2 1    
     2    1  127 1    
     3    1  128 1    
     4    1  129 1    
     5    2    3 2    
     6    2    4 am   BACKBONE|DICT|INTERRES
     7    4    5 1    
     8    4  130 1    
     9    5    6 1    
    10    5   65 1    
    11    5  131 1    
    12    6    7 1    
    13    6  132 1    
    14    6  133 1    
    15    7    8 1    
    16    8    9 1    
    17    8  134 1    
    18    8  135 1    
    19    9   10 ar   
    20    9   14 ar   
    21   10   11 ar   
    22   10  136 1    
    23   11   12 ar   
    24   11  126 1    
    25   12   13 ar   
    26   12  137 1    
    27   13   14 ar   
    28   13   15 1    
    29   14  138 1    
    30   15   16 1    
    31   15  139 1    
    32   15  140 1    
    33   16   17 1    
    34   17   18 1    
    35   17  141 1    
    36   17  142 1    
    37   18   19 1    
    38   18   67 1    
    39   18  143 1    
    40   19   20 am   BACKBONE|DICT|INTERRES
    41   19  144 1    
    42   20   21 2    
    43   20   22 1    
    44   22   23 1    
    45   22   24 1    
    46   22  145 1    
    47   23  146 1    
    48   23  147 1    
    49   23  148 1    
    50   24   25 am   BACKBONE|DICT|INTERRES
    51   24  149 1    
    52   25   26 2    
    53   25   27 1    
    54   27   28 1    
    55   27   29 1    
    56   27  150 1    
    57   28  151 1    
    58   28  152 1    
    59   28  153 1    
    60   29   30 am   BACKBONE|DICT|INTERRES
    61   29  154 1    
    62   30   31 2    
    63   30   32 1    
    64   32   33 1    
    65   32   34 1    
    66   32  155 1    
    67   33  156 1    
    68   33  157 1    
    69   33  158 1    
    70   34   35 am   BACKBONE|DICT|INTERRES
    71   34  159 1    
    72   35   36 2    
    73   35   37 1    
    74   37   38 1    
    75   37   39 1    
    76   37  160 1    
    77   38  161 1    
    78   38  162 1    
    79   38  163 1    
    80   39   40 am   BACKBONE|DICT|INTERRES
    81   39  164 1    
    82   40   41 2    
    83   40   42 1    
    84   42   43 1    
    85   42   44 1    
    86   42  165 1    
    87   43  166 1    
    88   43  167 1    
    89   43  168 1    
    90   44   45 am   BACKBONE|DICT|INTERRES
    91   44  169 1    
    92   45   46 2    
    93   45   47 1    
    94   47   48 1    
    95   47   49 1    
    96   47  170 1    
    97   48  171 1    
    98   48  172 1    
    99   48  173 1    
   100   49   50 am   BACKBONE|DICT|INTERRES
   101   49  174 1    
   102   50   51 2    
   103   50   52 1    
   104   52   53 1    
   105   52   54 1    
   106   52  175 1    
   107   53  176 1    
   108   53  177 1    
   109   53  178 1    
   110   54   55 am   BACKBONE|DICT|INTERRES
   111   54  179 1    
   112   55   56 2    
   113   55   57 1    
   114   57   58 1    
   115   57   59 1    
   116   57  180 1    
   117   58  181 1    
   118   58  182 1    
   119   58  183 1    
   120   59   60 am   BACKBONE|DICT|INTERRES
   121   59  184 1    
   122   60   61 2    
   123   60   62 1    
   124   62   63 1    
   125   62   64 1    
   126   62  185 1    
   127   63  186 1    
   128   63  187 1    
   129   63  188 1    
   130   64   65 am   BACKBONE|DICT|INTERRES
   131   64  189 1    
   132   65   66 2    
   133   67   68 2    
   134   67   69 am   BACKBONE|DICT|INTERRES
   135   69   70 1    
   136   69  190 1    
   137   70   71 1    
   138   70   72 1    
   139   70  191 1    
   140   71  192 1    
   141   71  193 1    
   142   71  194 1    
   143   72   73 2    
   144   72   74 am   BACKBONE|DICT|INTERRES
   145   74   75 1    
   146   74  195 1    
   147   75   76 1    
   148   75   77 1    
   149   75  196 1    
   150   76  197 1    
   151   76  198 1    
   152   76  199 1    
   153   77   78 2    
   154   77   79 am   BACKBONE|DICT|INTERRES
   155   79   80 1    
   156   79  200 1    
   157   80   81 1    
   158   80   82 1    
   159   80  201 1    
   160   81  202 1    
   161   81  203 1    
   162   81  204 1    
   163   82   83 2    
   164   82   84 am   BACKBONE|DICT|INTERRES
   165   84   85 1    
   166   84  205 1    
   167   85   86 1    
   168   85   87 1    
   169   85  206 1    
   170   86  207 1    
   171   86  208 1    
   172   86  209 1    
   173   87   88 2    
   174   87   89 am   BACKBONE|DICT|INTERRES
   175   89   90 1    
   176   89  210 1    
   177   90   91 1    
   178   90   92 1    
   179   90  211 1    
   180   91  212 1    
   181   91  213 1    
   182   91  214 1    
   183   92   93 2    
   184   92   94 am   BACKBONE|DICT|INTERRES
   185   94   95 1    
   186   94  215 1    
   187   95   96 1    
   188   95   97 1    
   189   95  216 1    
   190   96  217 1    
   191   96  218 1    
   192   96  219 1    
   193   97   98 2    
   194   97   99 am   BACKBONE|DICT|INTERRES
   195   99  100 1    
   196   99  220 1    
   197  100  101 1    
   198  100  102 1    
   199  100  221 1    
   200  101  222 1    
   201  101  223 1    
   202  101  224 1    
   203  102  103 2    
   204  102  104 am   BACKBONE|DICT|INTERRES
   205  104  105 1    
   206  104  225 1    
   207  105  106 1    
   208  105  107 1    
   209  105  226 1    
   210  106  227 1    
   211  106  228 1    
   212  106  229 1    
   213  107  108 2    
   214  107  109 am   BACKBONE|DICT|INTERRES
   215  109  110 1    
   216  109  230 1    
   217  110  111 1    
   218  110  112 1    
   219  110  231 1    
   220  111  232 1    
   221  111  233 1    
   222  111  234 1    
   223  112  113 2    
   224  112  114 am   BACKBONE|DICT|INTERRES
   225  114  115 1    
   226  114  235 1    
   227  115  116 1    
   228  115  117 1    
   229  115  236 1    
   230  116  237 1    
   231  116  238 1    
   232  116  239 1    
   233  117  118 2    
   234  117  119 am   BACKBONE|DICT|INTERRES
   235  119  120 1    
   236  119  240 1    
   237  120  121 1    
   238  120  124 1    
   239  120  241 1    
   240  121  122 am   BACKBONE|DICT|INTERRES
   241  121  123 2    
   242  122  242 1    
   243  122  243 1    
   244  124  125 1    
   245  124  244 1    
   246  124  245 1    
   247  125  126 1    
   248  126  246 1    
   249  126  247 1    
@<TRIPOS>SUBSTRUCTURE
     1 UNK         1 GROUP             0       ****    0 ROOT    
