@<TRIPOS>MOLECULE
3R540
247   249    1
SMALL
USER_CHARGES


@<TRIPOS>ATOM
      1 CA         -2.3308  -13.1781  -52.9020 C.3       0 UNK        -0.1800 
      2 C          -1.9132  -13.0688  -51.4417 C.2       0 UNK         0.5000 
      3 O          -1.9844  -11.9853  -50.8610 O.2       0 UNK        -0.5000 
      4 N          -1.4703  -14.1849  -50.8531 N.am      1 UNK        -0.5000 
      5 CA         -1.1170  -14.3169  -49.4369 C.3       1 UNK         0.1400 
      6 C6         -0.2420  -15.5724  -49.1724 C.3       23 UNK        -0.0398 
      7 S7         -0.8538  -17.1102  -49.9577 S.3       23 UNK        -0.2404 
      8 C8          0.4192  -17.4270  -51.2274 C.3       23 UNK        -0.0205 
      9 C9          1.5130  -18.3788  -50.7513 C.ar      23 UNK        -0.0193 
     10 C10         1.7551  -19.5689  -51.4466 C.ar      23 UNK        -0.1150 
     11 C11         2.7576  -20.4494  -51.0287 C.ar      23 UNK        -0.0193 
     12 C12         3.5264  -20.1329  -49.9072 C.ar      23 UNK        -0.1150 
     13 C13         3.2974  -18.9487  -49.2026 C.ar      23 UNK        -0.0193 
     14 C14         2.2976  -18.0722  -49.6340 C.ar      23 UNK        -0.1150 
     15 C15         4.1205  -18.6291  -47.9645 C.3       23 UNK        -0.0205 
     16 S16         3.7504  -19.7727  -46.5978 S.3       23 UNK        -0.2404 
     17 C17         1.9883  -19.4205  -46.2837 C.3       23 UNK        -0.0398 
     18 CA          1.0071  -20.4161  -46.9527 C.3       11 UNK         0.1400 
     19 N           1.3678  -21.8180  -46.7325 N.am      11 UNK        -0.5000 
     20 C           0.8220  -22.8573  -47.3787 C.2       10 UNK         0.5000 
     21 O          -0.0522  -22.7487  -48.2367 O.2       10 UNK        -0.5000 
     22 CA          1.2901  -24.2580  -46.9431 C.3       10 UNK         0.1400 
     23 CB          2.6129  -24.6251  -47.6326 C.3       10 UNK        -0.1800 
     24 N           1.4529  -24.3655  -45.4917 N.am      10 UNK        -0.5000 
     25 C           0.4568  -24.2368  -44.6026 C.2       9 UNK         0.5000 
     26 O          -0.7227  -24.0877  -44.9177 O.2       9 UNK        -0.5000 
     27 CA          0.8491  -24.2129  -43.1125 C.3       9 UNK         0.1400 
     28 CB          0.8028  -25.6293  -42.5212 C.3       9 UNK        -0.1800 
     29 N           2.1690  -23.6247  -42.8614 N.am      9 UNK        -0.5000 
     30 C           2.5176  -22.3681  -43.1667 C.2       8 UNK         0.5000 
     31 O           1.7557  -21.5567  -43.7024 O.2       8 UNK        -0.5000 
     32 CA          3.9718  -21.9764  -42.8712 C.3       8 UNK         0.1400 
     33 CB          4.9387  -22.6915  -43.8341 C.3       8 UNK        -0.1800 
     34 N           4.1096  -20.5344  -43.0252 N.am      8 UNK        -0.5000 
     35 C           5.0569  -19.7657  -42.4781 C.2       7 UNK         0.5000 
     36 O           5.9417  -20.1974  -41.7378 O.2       7 UNK        -0.5000 
     37 CA          5.0244  -18.2628  -42.8207 C.3       7 UNK         0.1400 
     38 CB          6.1104  -17.9279  -43.8556 C.3       7 UNK        -0.1800 
     39 N           3.7293  -17.8210  -43.3433 N.am      7 UNK        -0.5000 
     40 C           2.6659  -17.5289  -42.5847 C.2       6 UNK         0.5000 
     41 O           2.6645  -17.5753  -41.3530 O.2       6 UNK        -0.5000 
     42 CA          1.3822  -17.1296  -43.3344 C.3       6 UNK         0.1400 
     43 CB          0.2591  -18.1460  -43.0785 C.3       6 UNK        -0.1800 
     44 N           0.9169  -15.7968  -42.9623 N.am      6 UNK        -0.5000 
     45 C           1.5679  -14.6530  -43.2194 C.2       5 UNK         0.5000 
     46 O           2.6584  -14.6109  -43.7912 O.2       5 UNK        -0.5000 
     47 CA          0.8885  -13.3340  -42.7977 C.3       5 UNK         0.1400 
     48 CB          0.8530  -12.3323  -43.9658 C.3       5 UNK        -0.1800 
     49 N          -0.4847  -13.5480  -42.3401 N.am      5 UNK        -0.5000 
     50 C          -0.9187  -13.4207  -41.0790 C.2       4 UNK         0.5000 
     51 O          -0.1932  -13.1040  -40.1357 O.2       4 UNK        -0.5000 
     52 CA         -2.4176  -13.6849  -40.8192 C.3       4 UNK         0.1400 
     53 CB         -3.1722  -12.3574  -40.6472 C.3       4 UNK        -0.1800 
     54 N          -3.0656  -14.4574  -41.8814 N.am      4 UNK        -0.5000 
     55 C          -2.8571  -15.7597  -42.1173 C.2       3 UNK         0.5000 
     56 O          -2.1413  -16.4715  -41.4148 O.2       3 UNK        -0.5000 
     57 CA         -3.5128  -16.3498  -43.3812 C.3       3 UNK         0.1400 
     58 CB         -4.8428  -17.0376  -43.0409 C.3       3 UNK        -0.1800 
     59 N          -3.7350  -15.3626  -44.4438 N.am      3 UNK        -0.5000 
     60 C          -2.7569  -14.7324  -45.1073 C.2       2 UNK         0.5000 
     61 O          -1.5603  -14.8499  -44.8350 O.2       2 UNK        -0.5000 
     62 CA         -3.1848  -13.7841  -46.2336 C.3       2 UNK         0.1400 
     63 CB         -3.2917  -12.3471  -45.6993 C.3       2 UNK        -0.1800 
     64 N          -2.1735  -13.8260  -47.2866 N.am      2 UNK        -0.5000 
     65 C          -2.3684  -14.2766  -48.5310 C.2       1 UNK         0.5000 
     66 O          -3.4611  -14.6539  -48.9618 O.2       1 UNK        -0.5000 
     67 C          -0.4295  -20.1371  -46.4730 C.2       11 UNK         0.5000 
     68 O          -1.1750  -19.4398  -47.1565 O.2       11 UNK        -0.5000 
     69 N          -0.8011  -20.7112  -45.3185 N.am      12 UNK        -0.5000 
     70 CA         -2.1518  -20.6335  -44.7606 C.3       12 UNK         0.1400 
     71 CB         -2.1547  -21.1845  -43.3274 C.3       12 UNK        -0.1800 
     72 C          -3.1894  -21.3576  -45.6384 C.2       12 UNK         0.5000 
     73 O          -4.2758  -20.8219  -45.8579 O.2       12 UNK        -0.5000 
     74 N          -2.8222  -22.5363  -46.1614 N.am      13 UNK        -0.5000 
     75 CA         -3.6205  -23.3050  -47.1159 C.3       13 UNK         0.1400 
     76 CB         -2.9810  -24.6827  -47.3442 C.3       13 UNK        -0.1800 
     77 C          -3.8189  -22.5606  -48.4475 C.2       13 UNK         0.5000 
     78 O          -4.9433  -22.5056  -48.9431 O.2       13 UNK        -0.5000 
     79 N          -2.7436  -21.9611  -48.9778 N.am      14 UNK        -0.5000 
     80 CA         -2.7793  -21.1131  -50.1692 C.3       14 UNK         0.1400 
     81 CB         -1.3517  -20.7658  -50.6054 C.3       14 UNK        -0.1800 
     82 C          -3.6200  -19.8408  -49.9696 C.2       14 UNK         0.5000 
     83 O          -4.3654  -19.4655  -50.8715 O.2       14 UNK        -0.5000 
     84 N          -3.5342  -19.2207  -48.7860 N.am      15 UNK        -0.5000 
     85 CA         -4.3560  -18.0730  -48.4072 C.3       15 UNK         0.1400 
     86 CB         -3.8666  -17.4957  -47.0745 C.3       15 UNK        -0.1800 
     87 C          -5.8531  -18.4232  -48.3379 C.2       15 UNK         0.5000 
     88 O          -6.6737  -17.6846  -48.8826 O.2       15 UNK        -0.5000 
     89 N          -6.1773  -19.5678  -47.7187 N.am      16 UNK        -0.5000 
     90 CA         -7.5329  -20.1177  -47.6370 C.3       16 UNK         0.1400 
     91 CB         -7.5384  -21.3203  -46.6814 C.3       16 UNK        -0.1800 
     92 C          -8.1136  -20.5065  -49.0116 C.2       16 UNK         0.5000 
     93 O          -9.3074  -20.3136  -49.2437 O.2       16 UNK        -0.5000 
     94 N          -7.2553  -21.0127  -49.9068 N.am      17 UNK        -0.5000 
     95 CA         -7.5779  -21.3456  -51.2963 C.3       17 UNK         0.1400 
     96 CB         -6.5097  -22.3123  -51.8332 C.3       17 UNK        -0.1800 
     97 C          -7.7116  -20.1156  -52.2212 C.2       17 UNK         0.5000 
     98 O          -8.1633  -20.2769  -53.3558 O.2       17 UNK        -0.5000 
     99 N          -7.3314  -18.9258  -51.7287 N.am      18 UNK        -0.5000 
    100 CA        -7.2627  -17.6430  -52.4344 C.3       18 UNK         0.1400 
    101 CB        -8.6586  -17.1790  -52.9019 C.3       18 UNK        -0.1800 
    102 C         -6.2085  -17.6724  -53.5597 C.2       18 UNK         0.5000 
    103 O         -6.5265  -17.4227  -54.7243 O.2       18 UNK        -0.5000 
    104 N         -4.9706  -17.9900  -53.1599 N.am      19 UNK        -0.5000 
    105 CA        -3.7834  -18.2542  -53.9735 C.3       19 UNK         0.1400 
    106 CB        -3.4784  -17.1079  -54.9643 C.3       19 UNK        -0.1800 
    107 C         -3.8418  -19.6556  -54.6147 C.2       19 UNK         0.5000 
    108 O         -4.5988  -20.5113  -54.1514 O.2       19 UNK        -0.5000 
    109 N         -2.9978  -19.8856  -55.6309 N.am      20 UNK        -0.5000 
    110 CA        -2.7143  -21.1854  -56.2490 C.3       20 UNK         0.1400 
    111 CB        -3.9518  -21.7400  -56.9922 C.3       20 UNK        -0.1800 
    112 C         -2.0889  -22.1505  -55.2178 C.2       20 UNK         0.5000 
    113 O         -1.1128  -21.7633  -54.5703 O.2       20 UNK        -0.5000 
    114 N         -2.6367  -23.3683  -55.0841 N.am      21 UNK        -0.5000 
    115 CA        -2.2011  -24.4378  -54.1788 C.3       21 UNK         0.1400 
    116 CB        -2.4968  -24.0558  -52.7098 C.3       21 UNK        -0.1800 
    117 C         -0.7324  -24.8315  -54.4447 C.2       21 UNK         0.5000 
    118 O         -0.4545  -25.4482  -55.4747 O.2       21 UNK        -0.5000 
    119 N          0.1749  -24.4483  -53.5397 N.am      22 UNK        -0.5000 
    120 CA         1.6330  -24.5572  -53.6950 C.3       22 UNK         0.1400 
    121 C          2.2554  -23.6074  -54.7622 C.2       22 UNK         0.5000 
    122 N          1.5618  -22.5779  -55.2333 N.am      22 UNK        -0.7600 
    123 O          3.3928  -23.8154  -55.1756 O.2       22 UNK        -0.5000 
    124 C124        2.3662  -24.4413  -52.3304 C.3       23 UNK        -0.0398 
    125 S125        1.8291  -23.0298  -51.2992 S.3       23 UNK        -0.2404 
    126 C126        3.0119  -21.7401  -51.7893 C.3       23 UNK        -0.0205 
    127 H127       -3.3857  -12.9261  -53.0100 H         1 UNK         0.0600 
    128 H128       -2.1803  -14.1850  -53.2924 H         1 UNK         0.0600 
    129 H129       -1.7492  -12.4870  -53.5121 H         1 UNK         0.0600 
    130 H130       -1.4767  -15.0542  -51.3666 H         1 UNK         0.3000 
    131 H131       -0.5134  -13.4447  -49.1754 H         1 UNK         0.0600 
    132 H132       -0.1297  -15.7560  -48.1021 H         1 UNK         0.0800 
    133 H133        0.7661  -15.3663  -49.5315 H         1 UNK         0.0800 
    134 H134       -0.0845  -17.8452  -52.1001 H         1 UNK         0.0800 
    135 H135        0.8688  -16.4919  -51.5632 H         1 UNK         0.0800 
    136 H136        1.1586  -19.8202  -52.3127 H         1 UNK         0.1150 
    137 H137        4.2951  -20.8145  -49.5707 H         1 UNK         0.1150 
    138 H138        2.1228  -17.1578  -49.0882 H         1 UNK         0.1150 
    139 H139        5.1806  -18.7036  -48.2104 H         1 UNK         0.0800 
    140 H140        3.9534  -17.6026  -47.6349 H         1 UNK         0.0800 
    141 H141        1.7615  -18.4006  -46.5992 H         1 UNK         0.0800 
    142 H142        1.8613  -19.4369  -45.2035 H         1 UNK         0.0800 
    143 H143        1.0286  -20.2421  -48.0303 H         1 UNK         0.0600 
    144 H144        2.0431  -21.9918  -46.0028 H         1 UNK         0.3000 
    145 H145        0.5293  -24.9774  -47.2531 H         1 UNK         0.0600 
    146 H146        2.9239  -25.6381  -47.3771 H         1 UNK         0.0600 
    147 H147        2.5106  -24.5819  -48.7175 H         1 UNK         0.0600 
    148 H148        3.4177  -23.9442  -47.3522 H         1 UNK         0.0600 
    149 H149        2.3919  -24.4912  -45.1450 H         1 UNK         0.3000 
    150 H150        0.1108  -23.6009  -42.5905 H         1 UNK         0.0600 
    151 H151        1.5437  -26.2833  -42.9828 H         1 UNK         0.0600 
    152 H152       -0.1771  -26.0840  -42.6736 H         1 UNK         0.0600 
    153 H153        0.9887  -25.6151  -41.4471 H         1 UNK         0.0600 
    154 H154        2.8522  -24.2297  -42.4286 H         1 UNK         0.3000 
    155 H155        4.1978  -22.2550  -41.8399 H         1 UNK         0.0600 
    156 H156        4.7289  -22.4373  -44.8741 H         1 UNK         0.0600 
    157 H157        4.8680  -23.7754  -43.7383 H         1 UNK         0.0600 
    158 H158        5.9743  -22.4200  -43.6291 H         1 UNK         0.0600 
    159 H159        3.3806  -20.1073  -43.5795 H         1 UNK         0.3000 
    160 H160        5.2460  -17.7101  -41.9052 H         1 UNK         0.0600 
    161 H161        5.9504  -18.4585  -44.7949 H         1 UNK         0.0600 
    162 H162        7.0993  -18.2047  -43.4878 H         1 UNK         0.0600 
    163 H163        6.1331  -16.8597  -44.0723 H         1 UNK         0.0600 
    164 H164        3.6668  -17.7231  -44.3460 H         1 UNK         0.3000 
    165 H165        1.5875  -17.1155  -44.4062 H         1 UNK         0.0600 
    166 H166       -0.5975  -17.9549  -43.7239 H         1 UNK         0.0600 
    167 H167        0.5922  -19.1648  -43.2717 H         1 UNK         0.0600 
    168 H168       -0.0824  -18.1151  -42.0434 H         1 UNK         0.0600 
    169 H169        0.0397  -15.7489  -42.4645 H         1 UNK         0.3000 
    170 H170        1.4968  -12.9043  -41.9997 H         1 UNK         0.0600 
    171 H171        1.8596  -12.0877  -44.3070 H         1 UNK         0.0600 
    172 H172        0.3037  -12.7304  -44.8197 H         1 UNK         0.0600 
    173 H173        0.3776  -11.3974  -43.6684 H         1 UNK         0.0600 
    174 H174       -1.1309  -13.8616  -43.0553 H         1 UNK         0.3000 
    175 H175       -2.4955  -14.2476  -39.8865 H         1 UNK         0.0600 
    176 H176       -3.1366  -11.7538  -41.5551 H         1 UNK         0.0600 
    177 H177       -4.2195  -12.5280  -40.3970 H         1 UNK         0.0600 
    178 H178       -2.7401  -11.7631  -39.8409 H         1 UNK         0.0600 
    179 H179       -3.6726  -13.9487  -42.5069 H         1 UNK         0.3000 
    180 H180       -2.8346  -17.1097  -43.7737 H         1 UNK         0.0600 
    181 H181       -4.7034  -17.7968  -42.2700 H         1 UNK         0.0600 
    182 H182       -5.2624  -17.5382  -43.9140 H         1 UNK         0.0600 
    183 H183       -5.5819  -16.3256  -42.6718 H         1 UNK         0.0600 
    184 H184       -4.6963  -15.1918  -44.7018 H         1 UNK         0.3000 
    185 H185       -4.1604  -14.0955  -46.6125 H         1 UNK         0.0600 
    186 H186       -3.5797  -11.6554  -46.4911 H         1 UNK         0.0600 
    187 H187       -4.0464  -12.2748  -44.9152 H         1 UNK         0.0600 
    188 H188       -2.3467  -11.9990  -45.2796 H         1 UNK         0.0600 
    189 H189       -1.2364  -13.6020  -46.9823 H         1 UNK         0.3000 
    190 H190       -0.1194  -21.2594  -44.8076 H         1 UNK         0.3000 
    191 H191       -2.4337  -19.5796  -44.7159 H         1 UNK         0.0600 
    192 H192       -1.4477  -20.6480  -42.6947 H         1 UNK         0.0600 
    193 H193       -3.1412  -21.0793  -42.8742 H         1 UNK         0.0600 
    194 H194       -1.8935  -22.2421  -43.2996 H         1 UNK         0.0600 
    195 H195       -1.9339  -22.9421  -45.8811 H         1 UNK         0.3000 
    196 H196       -4.6066  -23.4603  -46.6732 H         1 UNK         0.0600 
    197 H197       -3.5784  -25.2802  -48.0339 H         1 UNK         0.0600 
    198 H198       -2.9050  -25.2409  -46.4109 H         1 UNK         0.0600 
    199 H199       -1.9793  -24.5992  -47.7654 H         1 UNK         0.0600 
    200 H200       -1.8349  -22.0964  -48.5422 H         1 UNK         0.3000 
    201 H201       -3.2453  -21.6873  -50.9713 H         1 UNK         0.0600 
    202 H202       -0.7782  -21.6645  -50.8272 H         1 UNK         0.0600 
    203 H203       -0.8172  -20.2151  -49.8311 H         1 UNK         0.0600 
    204 H204       -1.3567  -20.1519  -51.5067 H         1 UNK         0.0600 
    205 H205       -2.8305  -19.5235  -48.1182 H         1 UNK         0.3000 
    206 H206       -4.2275  -17.3064  -49.1742 H         1 UNK         0.0600 
    207 H207       -2.8305  -17.1640  -47.1463 H         1 UNK         0.0600 
    208 H208       -4.4705  -16.6329  -46.7968 H         1 UNK         0.0600 
    209 H209       -3.9325  -18.2192  -46.2630 H         1 UNK         0.0600 
    210 H210       -5.4419  -20.1008  -47.2623 H         1 UNK         0.3000 
    211 H211       -8.1783  -19.3455  -47.2134 H         1 UNK         0.0600 
    212 H212       -6.8882  -22.1200  -47.0369 H         1 UNK         0.0600 
    213 H213       -8.5424  -21.7335  -46.5784 H         1 UNK         0.0600 
    214 H214       -7.2000  -21.0335  -45.6856 H         1 UNK         0.0600 
    215 H215       -6.3057  -21.2126  -49.6072 H         1 UNK         0.3000 
    216 H216       -8.5385  -21.8643  -51.3096 H         1 UNK         0.0600 
    217 H217       -6.7299  -22.6142  -52.8578 H         1 UNK         0.0600 
    218 H218       -6.4562  -23.2192  -51.2309 H         1 UNK         0.0600 
    219 H219       -5.5216  -21.8521  -51.8360 H         1 UNK         0.0600 
    220 H220       -6.9644  -18.9142  -50.7855 H         1 UNK         0.3000 
    221 H221       -6.9103  -16.9149  -51.7020 H         1 UNK         0.0600 
    222 H222       -9.0699  -17.8259  -53.6769 H         1 UNK         0.0600 
    223 H223       -9.3647  -17.1590  -52.0717 H         1 UNK         0.0600 
    224 H224       -8.6121  -16.1703  -53.3135 H         1 UNK         0.0600 
    225 H225       -4.8706  -18.3196  -52.2013 H         1 UNK         0.3000 
    226 H226       -2.9578  -18.2918  -53.2611 H         1 UNK         0.0600 
    227 H227       -2.4621  -17.1809  -55.3519 H         1 UNK         0.0600 
    228 H228       -4.1557  -17.1164  -55.8188 H         1 UNK         0.0600 
    229 H229       -3.5637  -16.1354  -54.4794 H         1 UNK         0.0600 
    230 H230       -2.3931  -19.1313  -55.9227 H         1 UNK         0.3000 
    231 H231       -1.9405  -21.0046  -56.9964 H         1 UNK         0.0600 
    232 H232       -4.7647  -21.9994  -56.3134 H         1 UNK         0.0600 
    233 H233       -3.6986  -22.6329  -57.5649 H         1 UNK         0.0600 
    234 H234       -4.3381  -21.0075  -57.7010 H         1 UNK         0.0600 
    235 H235       -3.4221  -23.5959  -55.6766 H         1 UNK         0.3000 
    236 H236       -2.8034  -25.3156  -54.4175 H         1 UNK         0.0600 
    237 H237       -3.5601  -23.8641  -52.5640 H         1 UNK         0.0600 
    238 H238       -2.2188  -24.8613  -52.0291 H         1 UNK         0.0600 
    239 H239       -1.9592  -23.1600  -52.4005 H         1 UNK         0.0600 
    240 H240       -0.1328  -23.9085  -52.7435 H         1 UNK         0.3000 
    241 H241        1.8307  -25.5639  -54.0684 H         1 UNK         0.0600 
    242 H242        1.9795  -21.9784  -55.9263 H         1 UNK         0.3800 
    243 H243        0.6269  -22.3719  -54.8895 H         1 UNK         0.3800 
    244 H244        2.1687  -25.3442  -51.7514 H         1 UNK         0.0800 
    245 H245        3.4499  -24.4169  -52.4585 H         1 UNK         0.0800 
    246 H246        4.0292  -22.0926  -51.6125 H         1 UNK         0.0800 
    247 H247        2.9310  -21.5481  -52.8592 H         1 UNK         0.0800 
@<TRIPOS>BOND
     1    1    2 1    
     2    1  127 1    
     3    1  128 1    
     4    1  129 1    
     5    2    3 2    
     6    2    4 am   BACKBONE|DICT|INTERRES
     7    4    5 1    
     8    4  130 1    
     9    5    6 1    
    10    5   65 1    
    11    5  131 1    
    12    6    7 1    
    13    6  132 1    
    14    6  133 1    
    15    7    8 1    
    16    8    9 1    
    17    8  134 1    
    18    8  135 1    
    19    9   10 ar   
    20    9   14 ar   
    21   10   11 ar   
    22   10  136 1    
    23   11   12 ar   
    24   11  126 1    
    25   12   13 ar   
    26   12  137 1    
    27   13   14 ar   
    28   13   15 1    
    29   14  138 1    
    30   15   16 1    
    31   15  139 1    
    32   15  140 1    
    33   16   17 1    
    34   17   18 1    
    35   17  141 1    
    36   17  142 1    
    37   18   19 1    
    38   18   67 1    
    39   18  143 1    
    40   19   20 am   BACKBONE|DICT|INTERRES
    41   19  144 1    
    42   20   21 2    
    43   20   22 1    
    44   22   23 1    
    45   22   24 1    
    46   22  145 1    
    47   23  146 1    
    48   23  147 1    
    49   23  148 1    
    50   24   25 am   BACKBONE|DICT|INTERRES
    51   24  149 1    
    52   25   26 2    
    53   25   27 1    
    54   27   28 1    
    55   27   29 1    
    56   27  150 1    
    57   28  151 1    
    58   28  152 1    
    59   28  153 1    
    60   29   30 am   BACKBONE|DICT|INTERRES
    61   29  154 1    
    62   30   31 2    
    63   30   32 1    
    64   32   33 1    
    65   32   34 1    
    66   32  155 1    
    67   33  156 1    
    68   33  157 1    
    69   33  158 1    
    70   34   35 am   BACKBONE|DICT|INTERRES
    71   34  159 1    
    72   35   36 2    
    73   35   37 1    
    74   37   38 1    
    75   37   39 1    
    76   37  160 1    
    77   38  161 1    
    78   38  162 1    
    79   38  163 1    
    80   39   40 am   BACKBONE|DICT|INTERRES
    81   39  164 1    
    82   40   41 2    
    83   40   42 1    
    84   42   43 1    
    85   42   44 1    
    86   42  165 1    
    87   43  166 1    
    88   43  167 1    
    89   43  168 1    
    90   44   45 am   BACKBONE|DICT|INTERRES
    91   44  169 1    
    92   45   46 2    
    93   45   47 1    
    94   47   48 1    
    95   47   49 1    
    96   47  170 1    
    97   48  171 1    
    98   48  172 1    
    99   48  173 1    
   100   49   50 am   BACKBONE|DICT|INTERRES
   101   49  174 1    
   102   50   51 2    
   103   50   52 1    
   104   52   53 1    
   105   52   54 1    
   106   52  175 1    
   107   53  176 1    
   108   53  177 1    
   109   53  178 1    
   110   54   55 am   BACKBONE|DICT|INTERRES
   111   54  179 1    
   112   55   56 2    
   113   55   57 1    
   114   57   58 1    
   115   57   59 1    
   116   57  180 1    
   117   58  181 1    
   118   58  182 1    
   119   58  183 1    
   120   59   60 am   BACKBONE|DICT|INTERRES
   121   59  184 1    
   122   60   61 2    
   123   60   62 1    
   124   62   63 1    
   125   62   64 1    
   126   62  185 1    
   127   63  186 1    
   128   63  187 1    
   129   63  188 1    
   130   64   65 am   BACKBONE|DICT|INTERRES
   131   64  189 1    
   132   65   66 2    
   133   67   68 2    
   134   67   69 am   BACKBONE|DICT|INTERRES
   135   69   70 1    
   136   69  190 1    
   137   70   71 1    
   138   70   72 1    
   139   70  191 1    
   140   71  192 1    
   141   71  193 1    
   142   71  194 1    
   143   72   73 2    
   144   72   74 am   BACKBONE|DICT|INTERRES
   145   74   75 1    
   146   74  195 1    
   147   75   76 1    
   148   75   77 1    
   149   75  196 1    
   150   76  197 1    
   151   76  198 1    
   152   76  199 1    
   153   77   78 2    
   154   77   79 am   BACKBONE|DICT|INTERRES
   155   79   80 1    
   156   79  200 1    
   157   80   81 1    
   158   80   82 1    
   159   80  201 1    
   160   81  202 1    
   161   81  203 1    
   162   81  204 1    
   163   82   83 2    
   164   82   84 am   BACKBONE|DICT|INTERRES
   165   84   85 1    
   166   84  205 1    
   167   85   86 1    
   168   85   87 1    
   169   85  206 1    
   170   86  207 1    
   171   86  208 1    
   172   86  209 1    
   173   87   88 2    
   174   87   89 am   BACKBONE|DICT|INTERRES
   175   89   90 1    
   176   89  210 1    
   177   90   91 1    
   178   90   92 1    
   179   90  211 1    
   180   91  212 1    
   181   91  213 1    
   182   91  214 1    
   183   92   93 2    
   184   92   94 am   BACKBONE|DICT|INTERRES
   185   94   95 1    
   186   94  215 1    
   187   95   96 1    
   188   95   97 1    
   189   95  216 1    
   190   96  217 1    
   191   96  218 1    
   192   96  219 1    
   193   97   98 2    
   194   97   99 am   BACKBONE|DICT|INTERRES
   195   99  100 1    
   196   99  220 1    
   197  100  101 1    
   198  100  102 1    
   199  100  221 1    
   200  101  222 1    
   201  101  223 1    
   202  101  224 1    
   203  102  103 2    
   204  102  104 am   BACKBONE|DICT|INTERRES
   205  104  105 1    
   206  104  225 1    
   207  105  106 1    
   208  105  107 1    
   209  105  226 1    
   210  106  227 1    
   211  106  228 1    
   212  106  229 1    
   213  107  108 2    
   214  107  109 am   BACKBONE|DICT|INTERRES
   215  109  110 1    
   216  109  230 1    
   217  110  111 1    
   218  110  112 1    
   219  110  231 1    
   220  111  232 1    
   221  111  233 1    
   222  111  234 1    
   223  112  113 2    
   224  112  114 am   BACKBONE|DICT|INTERRES
   225  114  115 1    
   226  114  235 1    
   227  115  116 1    
   228  115  117 1    
   229  115  236 1    
   230  116  237 1    
   231  116  238 1    
   232  116  239 1    
   233  117  118 2    
   234  117  119 am   BACKBONE|DICT|INTERRES
   235  119  120 1    
   236  119  240 1    
   237  120  121 1    
   238  120  124 1    
   239  120  241 1    
   240  121  122 am   BACKBONE|DICT|INTERRES
   241  121  123 2    
   242  122  242 1    
   243  122  243 1    
   244  124  125 1    
   245  124  244 1    
   246  124  245 1    
   247  125  126 1    
   248  126  246 1    
   249  126  247 1    
@<TRIPOS>SUBSTRUCTURE
     1 UNK         1 GROUP             0       ****    0 ROOT    
