@<TRIPOS>MOLECULE
3R540
247   249    1
SMALL
USER_CHARGES


@<TRIPOS>ATOM
      1 CA          5.9615  -14.0603  -44.3457 C.3       0 UNK        -0.1800 
      2 C           4.7542  -14.5729  -45.1169 C.2       0 UNK         0.5000 
      3 O           3.8860  -15.2238  -44.5350 O.2       0 UNK        -0.5000 
      4 N           4.6866  -14.2746  -46.4208 N.am      1 UNK        -0.5000 
      5 CA          3.6118  -14.6682  -47.3395 C.3       1 UNK         0.1400 
      6 C6          4.1301  -14.7355  -48.8009 C.3       23 UNK        -0.0398 
      7 S7          3.0661  -15.7707  -49.8603 S.3       23 UNK        -0.2404 
      8 C8          4.1078  -17.2461  -50.1282 C.3       23 UNK        -0.0205 
      9 C9          3.3361  -18.4753  -50.6085 C.ar      23 UNK        -0.0193 
     10 C10         2.1993  -18.3656  -51.4180 C.ar      23 UNK        -0.1150 
     11 C11         1.4976  -19.5002  -51.8322 C.ar      23 UNK        -0.0193 
     12 C12         1.9489  -20.7636  -51.4434 C.ar      23 UNK        -0.1150 
     13 C13         3.0929  -20.8947  -50.6513 C.ar      23 UNK        -0.0193 
     14 C14         3.7813  -19.7485  -50.2409 C.ar      23 UNK        -0.1150 
     15 C15         3.5952  -22.2749  -50.2518 C.3       23 UNK        -0.0205 
     16 S16         3.5246  -22.5401  -48.4528 S.3       23 UNK        -0.2404 
     17 C17         1.7309  -22.4417  -48.1319 C.3       23 UNK        -0.0398 
     18 CA          1.2901  -23.3686  -46.9734 C.3       11 UNK         0.1400 
     19 N           2.0309  -23.1093  -45.7389 N.am      11 UNK        -0.5000 
     20 C           2.2729  -24.0140  -44.7833 C.2       10 UNK         0.5000 
     21 O           1.9206  -25.1916  -44.8498 O.2       10 UNK        -0.5000 
     22 CA          3.0328  -23.5179  -43.5373 C.3       10 UNK         0.1400 
     23 CB          4.5400  -23.7692  -43.6947 C.3       10 UNK        -0.1800 
     24 N           2.8140  -22.0972  -43.2545 N.am      10 UNK        -0.5000 
     25 C           1.6496  -21.5797  -42.8408 C.2       9 UNK         0.5000 
     26 O           0.6367  -22.2492  -42.6380 O.2       9 UNK        -0.5000 
     27 CA          1.5949  -20.0487  -42.6791 C.3       9 UNK         0.1400 
     28 CB          2.1281  -19.6286  -41.3016 C.3       9 UNK        -0.1800 
     29 N           2.3020  -19.2971  -43.7247 N.am      9 UNK        -0.5000 
     30 C           2.0486  -19.3906  -45.0363 C.2       8 UNK         0.5000 
     31 O           1.2847  -20.2243  -45.5240 O.2       8 UNK        -0.5000 
     32 CA          2.7853  -18.4160  -45.9678 C.3       8 UNK         0.1400 
     33 CB          4.1681  -18.9669  -46.3432 C.3       8 UNK        -0.1800 
     34 N           2.0079  -18.2047  -47.1890 N.am      8 UNK        -0.5000 
     35 C           0.9225  -17.4257  -47.2578 C.2       7 UNK         0.5000 
     36 O           0.5677  -16.6601  -46.3583 O.2       7 UNK        -0.5000 
     37 CA          0.0913  -17.5313  -48.5402 C.3       7 UNK         0.1400 
     38 CB         -0.8683  -18.7309  -48.4834 C.3       7 UNK        -0.1800 
     39 N          -0.6650  -16.3020  -48.7202 N.am      7 UNK        -0.5000 
     40 C          -1.0277  -15.7527  -49.8826 C.2       6 UNK         0.5000 
     41 O          -0.7854  -16.2512  -50.9841 O.2       6 UNK        -0.5000 
     42 CA         -1.8235  -14.4313  -49.7834 C.3       6 UNK         0.1400 
     43 CB         -2.1969  -13.8617  -51.1640 C.3       6 UNK        -0.1800 
     44 N          -3.0507  -14.5943  -48.9979 N.am      6 UNK        -0.5000 
     45 C          -3.1118  -14.6633  -47.6627 C.2       5 UNK         0.5000 
     46 O          -2.1248  -14.5297  -46.9342 O.2       5 UNK        -0.5000 
     47 CA         -4.4906  -14.9900  -47.0583 C.3       5 UNK         0.1400 
     48 CB         -4.8943  -16.4340  -47.3922 C.3       5 UNK        -0.1800 
     49 N          -4.4567  -14.8562  -45.6067 N.am      5 UNK        -0.5000 
     50 C          -4.6284  -13.7215  -44.9243 C.2       4 UNK         0.5000 
     51 O          -5.0160  -12.6677  -45.4310 O.2       4 UNK        -0.5000 
     52 CA         -4.2655  -13.7617  -43.4272 C.3       4 UNK         0.1400 
     53 CB         -5.3092  -14.5402  -42.6028 C.3       4 UNK        -0.1800 
     54 N          -2.8983  -14.2427  -43.1848 N.am      4 UNK        -0.5000 
     55 C          -2.3763  -15.4636  -43.3719 C.2       3 UNK         0.5000 
     56 O          -3.0324  -16.4467  -43.7224 O.2       3 UNK        -0.5000 
     57 CA         -0.8482  -15.5699  -43.1913 C.3       3 UNK         0.1400 
     58 CB         -0.3528  -17.0251  -43.1684 C.3       3 UNK        -0.1800 
     59 N          -0.1466  -14.8416  -44.2515 N.am      3 UNK        -0.5000 
     60 C          -0.0081  -13.5094  -44.3018 C.2       2 UNK         0.5000 
     61 O          -0.4032  -12.7632  -43.4025 O.2       2 UNK        -0.5000 
     62 CA          0.6800  -12.9160  -45.5437 C.3       2 UNK         0.1400 
     63 CB          1.1234  -11.4518  -45.3404 C.3       2 UNK        -0.1800 
     64 N           1.8215  -13.7347  -45.9406 N.am      2 UNK        -0.5000 
     65 C           2.3614  -13.7693  -47.1631 C.2       1 UNK         0.5000 
     66 O           1.9328  -13.1021  -48.1066 O.2       1 UNK        -0.5000 
     67 C          -0.2191  -23.2355  -46.7060 C.2       11 UNK         0.5000 
     68 O          -0.9928  -24.1016  -47.1120 O.2       11 UNK        -0.5000 
     69 N          -0.6092  -22.1701  -45.9910 N.am      12 UNK        -0.5000 
     70 CA         -1.9799  -21.8638  -45.5798 C.3       12 UNK         0.1400 
     71 CB         -1.9976  -20.5116  -44.8511 C.3       12 UNK        -0.1800 
     72 C          -2.6145  -22.9615  -44.7065 C.2       12 UNK         0.5000 
     73 O          -3.8204  -23.1861  -44.8015 O.2       12 UNK        -0.5000 
     74 N          -1.7859  -23.6715  -43.9274 N.am      13 UNK        -0.5000 
     75 CA         -2.1560  -24.8512  -43.1418 C.3       13 UNK         0.1400 
     76 CB         -0.9457  -25.2926  -42.3050 C.3       13 UNK        -0.1800 
     77 C          -2.6894  -26.0338  -43.9805 C.2       13 UNK         0.5000 
     78 O          -3.4303  -26.8582  -43.4442 O.2       13 UNK        -0.5000 
     79 N          -2.3370  -26.0915  -45.2743 N.am      14 UNK        -0.5000 
     80 CA         -2.8535  -27.0714  -46.2343 C.3       14 UNK         0.1400 
     81 CB         -1.7896  -27.3273  -47.3149 C.3       14 UNK        -0.1800 
     82 C          -4.1896  -26.6356  -46.8739 C.2       14 UNK         0.5000 
     83 O          -4.7280  -27.3785  -47.6956 O.2       14 UNK        -0.5000 
     84 N          -4.6911  -25.4425  -46.5169 N.am      15 UNK        -0.5000 
     85 CA         -5.9360  -24.7854  -46.9349 C.3       15 UNK         0.1400 
     86 CB         -7.1719  -25.6389  -46.5956 C.3       15 UNK        -0.1800 
     87 C          -5.9650  -24.3255  -48.4034 C.2       15 UNK         0.5000 
     88 O          -6.4243  -23.2161  -48.6709 O.2       15 UNK        -0.5000 
     89 N          -5.4646  -25.1555  -49.3266 N.am      16 UNK        -0.5000 
     90 CA         -5.4687  -24.9270  -50.7739 C.3       16 UNK         0.1400 
     91 CB         -4.8504  -26.1429  -51.4793 C.3       16 UNK        -0.1800 
     92 C          -4.7568  -23.6307  -51.2014 C.2       16 UNK         0.5000 
     93 O          -5.2709  -22.9077  -52.0543 O.2       16 UNK        -0.5000 
     94 N          -3.6132  -23.3351  -50.5684 N.am      17 UNK        -0.5000 
     95 CA         -2.8355  -22.1187  -50.8113 C.3       17 UNK         0.1400 
     96 CB         -1.4615  -22.2516  -50.1418 C.3       17 UNK        -0.1800 
     97 C          -3.5413  -20.8438  -50.3167 C.2       17 UNK         0.5000 
     98 O          -3.3596  -19.7902  -50.9222 O.2       17 UNK        -0.5000 
     99 N          -4.3247  -20.9651  -49.2351 N.am      18 UNK        -0.5000 
    100 CA        -5.1000  -19.8706  -48.6516 C.3       18 UNK         0.1400 
    101 CB        -5.3499  -20.1567  -47.1629 C.3       18 UNK        -0.1800 
    102 C         -6.4265  -19.6289  -49.3939 C.2       18 UNK         0.5000 
    103 O         -6.8975  -18.4923  -49.4343 O.2       18 UNK        -0.5000 
    104 N         -7.0058  -20.6936  -49.9667 N.am      19 UNK        -0.5000 
    105 CA        -8.1688  -20.6309  -50.8526 C.3       19 UNK         0.1400 
    106 CB        -8.7346  -22.0460  -51.0479 C.3       19 UNK        -0.1800 
    107 C         -7.8223  -19.9833  -52.2073 C.2       19 UNK         0.5000 
    108 O         -8.6260  -19.2192  -52.7441 O.2       19 UNK        -0.5000 
    109 N         -6.6226  -20.2889  -52.7161 N.am      20 UNK        -0.5000 
    110 CA        -5.9991  -19.6510  -53.8723 C.3       20 UNK         0.1400 
    111 CB        -5.0779  -20.6861  -54.5480 C.3       20 UNK        -0.1800 
    112 C         -5.2360  -18.3706  -53.4604 C.2       20 UNK         0.5000 
    113 O         -5.4574  -17.8223  -52.3790 O.2       20 UNK        -0.5000 
    114 N         -4.3421  -17.9123  -54.3395 N.am      21 UNK        -0.5000 
    115 CA        -3.3772  -16.8460  -54.1050 C.3       21 UNK         0.1400 
    116 CB        -4.0376  -15.4698  -54.3017 C.3       21 UNK        -0.1800 
    117 C         -2.2255  -17.0551  -55.0952 C.2       21 UNK         0.5000 
    118 O         -2.4687  -17.5382  -56.2055 O.2       21 UNK        -0.5000 
    119 N         -1.0074  -16.6895  -54.6858 N.am      22 UNK        -0.5000 
    120 CA         0.2213  -16.8350  -55.4903 C.3       22 UNK         0.1400 
    121 C          0.8549  -15.4707  -55.8930 C.2       22 UNK         0.5000 
    122 N          0.2284  -14.3341  -55.6123 N.am      22 UNK        -0.7600 
    123 O          1.9278  -15.4380  -56.4898 O.2       22 UNK        -0.5000 
    124 C124        1.2569  -17.7619  -54.8010 C.3       23 UNK        -0.0398 
    125 S125        0.6138  -19.4408  -54.4644 S.3       23 UNK        -0.2404 
    126 C126        0.2434  -19.3608  -52.6831 C.3       23 UNK        -0.0205 
    127 H127        5.6384  -13.4036  -43.5380 H         1 UNK         0.0600 
    128 H128        6.6452  -13.5022  -44.9857 H         1 UNK         0.0600 
    129 H129        6.5090  -14.8956  -43.9092 H         1 UNK         0.0600 
    130 H130        5.4142  -13.7025  -46.8258 H         1 UNK         0.3000 
    131 H131        3.3112  -15.6781  -47.0600 H         1 UNK         0.0600 
    132 H132        4.2146  -13.7402  -49.2405 H         1 UNK         0.0800 
    133 H133        5.1392  -15.1492  -48.8219 H         1 UNK         0.0800 
    134 H134        4.8817  -17.0071  -50.8584 H         1 UNK         0.0800 
    135 H135        4.6199  -17.4828  -49.1952 H         1 UNK         0.0800 
    136 H136        1.8370  -17.3899  -51.7053 H         1 UNK         0.1150 
    137 H137        1.4114  -21.6444  -51.7654 H         1 UNK         0.1150 
    138 H138        4.6657  -19.8533  -49.6278 H         1 UNK         0.1150 
    139 H139        3.0284  -23.0604  -50.7540 H         1 UNK         0.0800 
    140 H140        4.6286  -22.3844  -50.5832 H         1 UNK         0.0800 
    141 H141        1.1963  -22.7100  -49.0440 H         1 UNK         0.0800 
    142 H142        1.4827  -21.3999  -47.9245 H         1 UNK         0.0800 
    143 H143        1.4778  -24.3983  -47.2859 H         1 UNK         0.0600 
    144 H144        2.3060  -22.1494  -45.5815 H         1 UNK         0.3000 
    145 H145        2.6756  -24.0951  -42.6817 H         1 UNK         0.0600 
    146 H146        4.7424  -24.8250  -43.8799 H         1 UNK         0.0600 
    147 H147        5.0837  -23.4889  -42.7923 H         1 UNK         0.0600 
    148 H148        4.9572  -23.2039  -44.5292 H         1 UNK         0.0600 
    149 H149        3.5929  -21.4735  -43.4065 H         1 UNK         0.3000 
    150 H150        0.5434  -19.7627  -42.7314 H         1 UNK         0.0600 
    151 H151        3.1928  -19.8417  -41.1994 H         1 UNK         0.0600 
    152 H152        1.6083  -20.1593  -40.5027 H         1 UNK         0.0600 
    153 H153        1.9803  -18.5623  -41.1298 H         1 UNK         0.0600 
    154 H154        2.9621  -18.6027  -43.4053 H         1 UNK         0.3000 
    155 H155        2.9087  -17.4660  -45.4469 H         1 UNK         0.0600 
    156 H156        4.7681  -19.1631  -45.4538 H         1 UNK         0.0600 
    157 H157        4.7223  -18.2528  -46.9513 H         1 UNK         0.0600 
    158 H158        4.0935  -19.9004  -46.9021 H         1 UNK         0.0600 
    159 H159        2.2156  -18.8214  -47.9602 H         1 UNK         0.3000 
    160 H160        0.7745  -17.6557  -49.3753 H         1 UNK         0.0600 
    161 H161       -1.6211  -18.6080  -47.7041 H         1 UNK         0.0600 
    162 H162       -0.3337  -19.6602  -48.2842 H         1 UNK         0.0600 
    163 H163       -1.3859  -18.8511  -49.4336 H         1 UNK         0.0600 
    164 H164       -0.8878  -15.8095  -47.8586 H         1 UNK         0.3000 
    165 H165       -1.1777  -13.7035  -49.2868 H         1 UNK         0.0600 
    166 H166       -2.7016  -12.9000  -51.0705 H         1 UNK         0.0600 
    167 H167       -1.3085  -13.7023  -51.7765 H         1 UNK         0.0600 
    168 H168       -2.8579  -14.5361  -51.7085 H         1 UNK         0.0600 
    169 H169       -3.8945  -14.7512  -49.5296 H         1 UNK         0.3000 
    170 H170       -5.2304  -14.3046  -47.4767 H         1 UNK         0.0600 
    171 H171       -5.8593  -16.6864  -46.9524 H         1 UNK         0.0600 
    172 H172       -4.1597  -17.1509  -47.0220 H         1 UNK         0.0600 
    173 H173       -4.9858  -16.5786  -48.4691 H         1 UNK         0.0600 
    174 H174       -4.0540  -15.6358  -45.0935 H         1 UNK         0.3000 
    175 H175       -4.2788  -12.7297  -43.0732 H         1 UNK         0.0600 
    176 H176       -6.2984  -14.0948  -42.7141 H         1 UNK         0.0600 
    177 H177       -5.3880  -15.5822  -42.9131 H         1 UNK         0.0600 
    178 H178       -5.0631  -14.5244  -41.5411 H         1 UNK         0.0600 
    179 H179       -2.2251  -13.5095  -42.9830 H         1 UNK         0.3000 
    180 H180       -0.5969  -15.1242  -42.2266 H         1 UNK         0.0600 
    181 H181       -0.5729  -17.5460  -44.1010 H         1 UNK         0.0600 
    182 H182       -0.8244  -17.5854  -42.3606 H         1 UNK         0.0600 
    183 H183        0.7240  -17.0635  -43.0079 H         1 UNK         0.0600 
    184 H184        0.1428  -15.3985  -45.0541 H         1 UNK         0.3000 
    185 H185       -0.0617  -12.9401  -46.3439 H         1 UNK         0.0600 
    186 H186        0.2776  -10.8178  -45.0721 H         1 UNK         0.0600 
    187 H187        1.8660  -11.3673  -44.5462 H         1 UNK         0.0600 
    188 H188        1.5569  -11.0348  -46.2492 H         1 UNK         0.0600 
    189 H189        2.2408  -14.3102  -45.2154 H         1 UNK         0.3000 
    190 H190        0.0978  -21.4872  -45.7196 H         1 UNK         0.3000 
    191 H191       -2.5795  -21.7772  -46.4878 H         1 UNK         0.0600 
    192 H192       -1.6076  -19.7138  -45.4833 H         1 UNK         0.0600 
    193 H193       -3.0114  -20.2323  -44.5620 H         1 UNK         0.0600 
    194 H194       -1.3955  -20.5404  -43.9430 H         1 UNK         0.0600 
    195 H195       -0.8204  -23.3722  -43.8615 H         1 UNK         0.3000 
    196 H196       -2.9538  -24.5535  -42.4587 H         1 UNK         0.0600 
    197 H197       -1.1875  -26.1621  -41.6925 H         1 UNK         0.0600 
    198 H198       -0.6234  -24.5008  -41.6286 H         1 UNK         0.0600 
    199 H199       -0.0979  -25.5604  -42.9365 H         1 UNK         0.0600 
    200 H200       -1.7426  -25.3657  -45.6606 H         1 UNK         0.3000 
    201 H201       -3.0352  -28.0161  -45.7180 H         1 UNK         0.0600 
    202 H202       -2.0800  -28.1603  -47.9563 H         1 UNK         0.0600 
    203 H203       -0.8263  -27.5805  -46.8719 H         1 UNK         0.0600 
    204 H204       -1.6470  -26.4596  -47.9586 H         1 UNK         0.0600 
    205 H205       -4.1513  -24.8951  -45.8552 H         1 UNK         0.3000 
    206 H206       -5.9988  -23.8785  -46.3316 H         1 UNK         0.0600 
    207 H207       -7.1862  -25.9082  -45.5395 H         1 UNK         0.0600 
    208 H208       -8.0908  -25.0891  -46.8033 H         1 UNK         0.0600 
    209 H209       -7.2075  -26.5599  -47.1780 H         1 UNK         0.0600 
    210 H210       -5.1263  -26.0564  -48.9997 H         1 UNK         0.3000 
    211 H211       -6.5113  -24.8450  -51.0875 H         1 UNK         0.0600 
    212 H212       -3.8177  -26.3066  -51.1688 H         1 UNK         0.0600 
    213 H213       -4.8523  -26.0102  -52.5620 H         1 UNK         0.0600 
    214 H214       -5.4126  -27.0514  -51.2627 H         1 UNK         0.0600 
    215 H215       -3.2619  -23.9775  -49.8733 H         1 UNK         0.3000 
    216 H216       -2.6834  -22.0200  -51.8884 H         1 UNK         0.0600 
    217 H217       -0.8376  -21.3823  -50.3505 H         1 UNK         0.0600 
    218 H218       -0.9269  -23.1327  -50.4972 H         1 UNK         0.0600 
    219 H219       -1.5606  -22.3252  -49.0604 H         1 UNK         0.0600 
    220 H220       -4.4682  -21.8827  -48.8391 H         1 UNK         0.3000 
    221 H221       -4.5110  -18.9549  -48.7250 H         1 UNK         0.0600 
    222 H222       -5.8804  -21.0973  -47.0125 H         1 UNK         0.0600 
    223 H223       -4.4127  -20.2057  -46.6114 H         1 UNK         0.0600 
    224 H224       -5.9487  -19.3665  -46.7084 H         1 UNK         0.0600 
    225 H225       -6.6143  -21.6128  -49.7893 H         1 UNK         0.3000 
    226 H226       -8.9349  -20.0192  -50.3716 H         1 UNK         0.0600 
    227 H227       -9.6246  -22.0264  -51.6779 H         1 UNK         0.0600 
    228 H228       -8.0101  -22.7082  -51.5228 H         1 UNK         0.0600 
    229 H229       -9.0187  -22.4918  -50.0944 H         1 UNK         0.0600 
    230 H230       -6.0462  -20.9545  -52.2150 H         1 UNK         0.3000 
    231 H231       -6.7727  -19.3614  -54.5860 H         1 UNK         0.0600 
    232 H232       -4.2190  -20.9271  -53.9197 H         1 UNK         0.0600 
    233 H233       -4.7003  -20.3268  -55.5056 H         1 UNK         0.0600 
    234 H234       -5.6116  -21.6156  -54.7475 H         1 UNK         0.0600 
    235 H235       -4.1951  -18.4018  -55.2138 H         1 UNK         0.3000 
    236 H236       -2.9877  -16.9288  -53.0872 H         1 UNK         0.0600 
    237 H237       -4.8341  -15.3052  -53.5759 H         1 UNK         0.0600 
    238 H238       -3.3126  -14.6653  -54.1754 H         1 UNK         0.0600 
    239 H239       -4.4676  -15.3709  -55.2991 H         1 UNK         0.0600 
    240 H240       -0.8857  -16.3080  -53.7573 H         1 UNK         0.3000 
    241 H241       -0.0239  -17.3027  -56.4452 H         1 UNK         0.0600 
    242 H242        0.6465  -13.4586  -55.8861 H         1 UNK         0.3800 
    243 H243       -0.6678  -14.3385  -55.1536 H         1 UNK         0.3800 
    244 H244        1.6180  -17.3004  -53.8849 H         1 UNK         0.0800 
    245 H245        2.1359  -17.8839  -55.4359 H         1 UNK         0.0800 
    246 H246       -0.4577  -20.1595  -52.4386 H         1 UNK         0.0800 
    247 H247       -0.2753  -18.4301  -52.4515 H         1 UNK         0.0800 
@<TRIPOS>BOND
     1    1    2 1    
     2    1  127 1    
     3    1  128 1    
     4    1  129 1    
     5    2    3 2    
     6    2    4 am   BACKBONE|DICT|INTERRES
     7    4    5 1    
     8    4  130 1    
     9    5    6 1    
    10    5   65 1    
    11    5  131 1    
    12    6    7 1    
    13    6  132 1    
    14    6  133 1    
    15    7    8 1    
    16    8    9 1    
    17    8  134 1    
    18    8  135 1    
    19    9   10 ar   
    20    9   14 ar   
    21   10   11 ar   
    22   10  136 1    
    23   11   12 ar   
    24   11  126 1    
    25   12   13 ar   
    26   12  137 1    
    27   13   14 ar   
    28   13   15 1    
    29   14  138 1    
    30   15   16 1    
    31   15  139 1    
    32   15  140 1    
    33   16   17 1    
    34   17   18 1    
    35   17  141 1    
    36   17  142 1    
    37   18   19 1    
    38   18   67 1    
    39   18  143 1    
    40   19   20 am   BACKBONE|DICT|INTERRES
    41   19  144 1    
    42   20   21 2    
    43   20   22 1    
    44   22   23 1    
    45   22   24 1    
    46   22  145 1    
    47   23  146 1    
    48   23  147 1    
    49   23  148 1    
    50   24   25 am   BACKBONE|DICT|INTERRES
    51   24  149 1    
    52   25   26 2    
    53   25   27 1    
    54   27   28 1    
    55   27   29 1    
    56   27  150 1    
    57   28  151 1    
    58   28  152 1    
    59   28  153 1    
    60   29   30 am   BACKBONE|DICT|INTERRES
    61   29  154 1    
    62   30   31 2    
    63   30   32 1    
    64   32   33 1    
    65   32   34 1    
    66   32  155 1    
    67   33  156 1    
    68   33  157 1    
    69   33  158 1    
    70   34   35 am   BACKBONE|DICT|INTERRES
    71   34  159 1    
    72   35   36 2    
    73   35   37 1    
    74   37   38 1    
    75   37   39 1    
    76   37  160 1    
    77   38  161 1    
    78   38  162 1    
    79   38  163 1    
    80   39   40 am   BACKBONE|DICT|INTERRES
    81   39  164 1    
    82   40   41 2    
    83   40   42 1    
    84   42   43 1    
    85   42   44 1    
    86   42  165 1    
    87   43  166 1    
    88   43  167 1    
    89   43  168 1    
    90   44   45 am   BACKBONE|DICT|INTERRES
    91   44  169 1    
    92   45   46 2    
    93   45   47 1    
    94   47   48 1    
    95   47   49 1    
    96   47  170 1    
    97   48  171 1    
    98   48  172 1    
    99   48  173 1    
   100   49   50 am   BACKBONE|DICT|INTERRES
   101   49  174 1    
   102   50   51 2    
   103   50   52 1    
   104   52   53 1    
   105   52   54 1    
   106   52  175 1    
   107   53  176 1    
   108   53  177 1    
   109   53  178 1    
   110   54   55 am   BACKBONE|DICT|INTERRES
   111   54  179 1    
   112   55   56 2    
   113   55   57 1    
   114   57   58 1    
   115   57   59 1    
   116   57  180 1    
   117   58  181 1    
   118   58  182 1    
   119   58  183 1    
   120   59   60 am   BACKBONE|DICT|INTERRES
   121   59  184 1    
   122   60   61 2    
   123   60   62 1    
   124   62   63 1    
   125   62   64 1    
   126   62  185 1    
   127   63  186 1    
   128   63  187 1    
   129   63  188 1    
   130   64   65 am   BACKBONE|DICT|INTERRES
   131   64  189 1    
   132   65   66 2    
   133   67   68 2    
   134   67   69 am   BACKBONE|DICT|INTERRES
   135   69   70 1    
   136   69  190 1    
   137   70   71 1    
   138   70   72 1    
   139   70  191 1    
   140   71  192 1    
   141   71  193 1    
   142   71  194 1    
   143   72   73 2    
   144   72   74 am   BACKBONE|DICT|INTERRES
   145   74   75 1    
   146   74  195 1    
   147   75   76 1    
   148   75   77 1    
   149   75  196 1    
   150   76  197 1    
   151   76  198 1    
   152   76  199 1    
   153   77   78 2    
   154   77   79 am   BACKBONE|DICT|INTERRES
   155   79   80 1    
   156   79  200 1    
   157   80   81 1    
   158   80   82 1    
   159   80  201 1    
   160   81  202 1    
   161   81  203 1    
   162   81  204 1    
   163   82   83 2    
   164   82   84 am   BACKBONE|DICT|INTERRES
   165   84   85 1    
   166   84  205 1    
   167   85   86 1    
   168   85   87 1    
   169   85  206 1    
   170   86  207 1    
   171   86  208 1    
   172   86  209 1    
   173   87   88 2    
   174   87   89 am   BACKBONE|DICT|INTERRES
   175   89   90 1    
   176   89  210 1    
   177   90   91 1    
   178   90   92 1    
   179   90  211 1    
   180   91  212 1    
   181   91  213 1    
   182   91  214 1    
   183   92   93 2    
   184   92   94 am   BACKBONE|DICT|INTERRES
   185   94   95 1    
   186   94  215 1    
   187   95   96 1    
   188   95   97 1    
   189   95  216 1    
   190   96  217 1    
   191   96  218 1    
   192   96  219 1    
   193   97   98 2    
   194   97   99 am   BACKBONE|DICT|INTERRES
   195   99  100 1    
   196   99  220 1    
   197  100  101 1    
   198  100  102 1    
   199  100  221 1    
   200  101  222 1    
   201  101  223 1    
   202  101  224 1    
   203  102  103 2    
   204  102  104 am   BACKBONE|DICT|INTERRES
   205  104  105 1    
   206  104  225 1    
   207  105  106 1    
   208  105  107 1    
   209  105  226 1    
   210  106  227 1    
   211  106  228 1    
   212  106  229 1    
   213  107  108 2    
   214  107  109 am   BACKBONE|DICT|INTERRES
   215  109  110 1    
   216  109  230 1    
   217  110  111 1    
   218  110  112 1    
   219  110  231 1    
   220  111  232 1    
   221  111  233 1    
   222  111  234 1    
   223  112  113 2    
   224  112  114 am   BACKBONE|DICT|INTERRES
   225  114  115 1    
   226  114  235 1    
   227  115  116 1    
   228  115  117 1    
   229  115  236 1    
   230  116  237 1    
   231  116  238 1    
   232  116  239 1    
   233  117  118 2    
   234  117  119 am   BACKBONE|DICT|INTERRES
   235  119  120 1    
   236  119  240 1    
   237  120  121 1    
   238  120  124 1    
   239  120  241 1    
   240  121  122 am   BACKBONE|DICT|INTERRES
   241  121  123 2    
   242  122  242 1    
   243  122  243 1    
   244  124  125 1    
   245  124  244 1    
   246  124  245 1    
   247  125  126 1    
   248  126  246 1    
   249  126  247 1    
@<TRIPOS>SUBSTRUCTURE
     1 UNK         1 GROUP             0       ****    0 ROOT    
