@<TRIPOS>MOLECULE
3R540
247   249    1
SMALL
USER_CHARGES


@<TRIPOS>ATOM
      1 CA         -1.2670   -9.6851  -49.4481 C.3       0 UNK        -0.1800 
      2 C          -2.3071  -10.5995  -48.8175 C.2       0 UNK         0.5000 
      3 O          -3.2121  -10.1166  -48.1363 O.2       0 UNK        -0.5000 
      4 N          -2.1679  -11.9159  -49.0283 N.am      1 UNK        -0.5000 
      5 CA         -3.0220  -13.0135  -48.5423 C.3       1 UNK         0.1400 
      6 C6         -4.5177  -12.9142  -48.9567 C.3       23 UNK        -0.0398 
      7 S7         -4.7541  -12.7204  -50.7593 S.3       23 UNK        -0.2404 
      8 C8         -5.1553  -14.4198  -51.2829 C.3       23 UNK        -0.0205 
      9 C9         -4.0293  -15.3913  -50.9644 C.ar      23 UNK        -0.0193 
     10 C10        -2.8003  -15.2814  -51.6210 C.ar      23 UNK        -0.1150 
     11 C11        -1.7378  -16.1252  -51.2876 C.ar      23 UNK        -0.0193 
     12 C12        -1.9243  -17.1027  -50.3044 C.ar      23 UNK        -0.1150 
     13 C13        -3.1564  -17.2403  -49.6594 C.ar      23 UNK        -0.0193 
     14 C14        -4.2044  -16.3782  -49.9908 C.ar      23 UNK        -0.1150 
     15 C15        -3.3586  -18.3164  -48.6055 C.3       23 UNK        -0.0205 
     16 S16        -2.6766  -17.8019  -47.0003 S.3       23 UNK        -0.2404 
     17 C17        -3.5709  -18.8909  -45.8471 C.3       23 UNK        -0.0398 
     18 CA         -3.2376  -20.3910  -46.0215 C.3       11 UNK         0.1400 
     19 N          -1.8103  -20.6866  -45.8473 N.am      11 UNK        -0.5000 
     20 C          -1.2262  -21.8232  -46.2523 C.2       10 UNK         0.5000 
     21 O          -1.8245  -22.7098  -46.8589 O.2       10 UNK        -0.5000 
     22 CA          0.2368  -22.0440  -45.8327 C.3       10 UNK         0.1400 
     23 CB          1.2087  -21.4595  -46.8633 C.3       10 UNK        -0.1800 
     24 N           0.5065  -21.4618  -44.5200 N.am      10 UNK        -0.5000 
     25 C           0.0642  -21.9758  -43.3655 C.2       9 UNK         0.5000 
     26 O          -0.5809  -23.0233  -43.3075 O.2       9 UNK        -0.5000 
     27 CA          0.3314  -21.1602  -42.0828 C.3       9 UNK         0.1400 
     28 CB          0.4296  -22.0412  -40.8206 C.3       9 UNK        -0.1800 
     29 N           1.4795  -20.2541  -42.1943 N.am      9 UNK        -0.5000 
     30 C           2.7718  -20.5812  -42.3518 C.2       8 UNK         0.5000 
     31 O           3.1861  -21.7406  -42.3754 O.2       8 UNK        -0.5000 
     32 CA          3.7767  -19.4265  -42.5489 C.3       8 UNK         0.1400 
     33 CB          4.3561  -19.4704  -43.9725 C.3       8 UNK        -0.1800 
     34 N           3.2004  -18.0993  -42.3219 N.am      8 UNK        -0.5000 
     35 C           2.9282  -17.5652  -41.1237 C.2       7 UNK         0.5000 
     36 O           3.1965  -18.1125  -40.0539 O.2       7 UNK        -0.5000 
     37 CA          2.1872  -16.2126  -41.1251 C.3       7 UNK         0.1400 
     38 CB          3.1779  -15.0474  -41.2616 C.3       7 UNK        -0.1800 
     39 N           1.1711  -16.1165  -42.1781 N.am      7 UNK        -0.5000 
     40 C           0.0827  -16.8965  -42.2616 C.2       6 UNK         0.5000 
     41 O          -0.1931  -17.7765  -41.4470 O.2       6 UNK        -0.5000 
     42 CA         -0.8210  -16.7022  -43.4883 C.3       6 UNK         0.1400 
     43 CB         -1.8008  -15.5423  -43.2752 C.3       6 UNK        -0.1800 
     44 N          -0.0319  -16.4775  -44.6970 N.am      6 UNK        -0.5000 
     45 C           0.5989  -17.4554  -45.3601 C.2       5 UNK         0.5000 
     46 O           0.5181  -18.6453  -45.0503 O.2       5 UNK        -0.5000 
     47 CA          1.4968  -17.0379  -46.5406 C.3       5 UNK         0.1400 
     48 CB          0.6962  -16.9845  -47.8481 C.3       5 UNK        -0.1800 
     49 N           2.1684  -15.7540  -46.3269 N.am      5 UNK        -0.5000 
     50 C           3.1140  -15.5519  -45.3997 C.2       4 UNK         0.5000 
     51 O           3.5119  -16.4270  -44.6333 O.2       4 UNK        -0.5000 
     52 CA          3.6923  -14.1308  -45.2782 C.3       4 UNK         0.1400 
     53 CB          4.8721  -13.9498  -46.2448 C.3       4 UNK        -0.1800 
     54 N           2.7262  -13.0495  -45.4903 N.am      4 UNK        -0.5000 
     55 C           1.5817  -12.8668  -44.8160 C.2       3 UNK         0.5000 
     56 O           1.1445  -13.6798  -43.9981 O.2       3 UNK        -0.5000 
     57 CA          0.8141  -11.5526  -45.0895 C.3       3 UNK         0.1400 
     58 CB          1.3337  -10.7631  -46.3095 C.3       3 UNK        -0.1800 
     59 N          -0.6108  -11.7983  -45.2841 N.am      3 UNK        -0.5000 
     60 C          -1.5390  -11.8890  -44.3233 C.2       2 UNK         0.5000 
     61 O          -1.2962  -11.7419  -43.1247 O.2       2 UNK        -0.5000 
     62 CA         -2.9931  -12.1558  -44.7745 C.3       2 UNK         0.1400 
     63 CB         -3.9485  -11.0861  -44.2195 C.3       2 UNK        -0.1800 
     64 N          -3.1496  -12.1981  -46.2307 N.am      2 UNK        -0.5000 
     65 C          -2.8684  -13.2380  -47.0239 C.2       1 UNK         0.5000 
     66 O          -2.4468  -14.3130  -46.6041 O.2       1 UNK        -0.5000 
     67 C          -4.1461  -21.2508  -45.1139 C.2       11 UNK         0.5000 
     68 O          -5.3329  -21.3712  -45.4142 O.2       11 UNK        -0.5000 
     69 N          -3.5952  -21.8436  -44.0421 N.am      12 UNK        -0.5000 
     70 CA         -4.3050  -22.8042  -43.1925 C.3       12 UNK         0.1400 
     71 CB         -3.6423  -22.8782  -41.8082 C.3       12 UNK        -0.1800 
     72 C          -4.3780  -24.1950  -43.8512 C.2       12 UNK         0.5000 
     73 O          -5.3937  -24.8767  -43.7096 O.2       12 UNK        -0.5000 
     74 N          -3.3217  -24.5756  -44.5872 N.am      13 UNK        -0.5000 
     75 CA         -3.3038  -25.7533  -45.4601 C.3       13 UNK         0.1400 
     76 CB         -1.8548  -26.0884  -45.8430 C.3       13 UNK        -0.1800 
     77 C          -4.1852  -25.5477  -46.7090 C.2       13 UNK         0.5000 
     78 O          -4.8916  -26.4714  -47.1136 O.2       13 UNK        -0.5000 
     79 N          -4.1677  -24.3174  -47.2417 N.am      14 UNK        -0.5000 
     80 CA         -5.0356  -23.7696  -48.2817 C.3       14 UNK         0.1400 
     81 CB         -6.5078  -23.7290  -47.8120 C.3       14 UNK        -0.1800 
     82 C          -4.8447  -24.4544  -49.6462 C.2       14 UNK         0.5000 
     83 O          -3.9147  -24.0931  -50.3694 O.2       14 UNK        -0.5000 
     84 N          -5.7613  -25.3668  -50.0037 N.am      15 UNK        -0.5000 
     85 CA         -5.8868  -26.0296  -51.3078 C.3       15 UNK         0.1400 
     86 CB         -4.6849  -26.9651  -51.5615 C.3       15 UNK        -0.1800 
     87 C          -6.1115  -25.0106  -52.4459 C.2       15 UNK         0.5000 
     88 O          -5.4382  -25.0706  -53.4727 O.2       15 UNK        -0.5000 
     89 N          -7.0099  -24.0407  -52.2077 N.am      16 UNK        -0.5000 
     90 CA         -7.2742  -22.8657  -53.0551 C.3       16 UNK         0.1400 
     91 CB         -7.9091  -23.2822  -54.3987 C.3       16 UNK        -0.1800 
     92 C          -6.0278  -21.9647  -53.2259 C.2       16 UNK         0.5000 
     93 O          -5.8111  -21.3917  -54.2940 O.2       16 UNK        -0.5000 
     94 N          -5.2267  -21.8898  -52.1529 N.am      17 UNK        -0.5000 
     95 CA         -3.9319  -21.2152  -52.0146 C.3       17 UNK         0.1400 
     96 CB         -4.0423  -19.7058  -52.3006 C.3       17 UNK        -0.1800 
     97 C          -2.7762  -21.8893  -52.7861 C.2       17 UNK         0.5000 
     98 O          -1.6794  -21.3278  -52.8367 O.2       17 UNK        -0.5000 
     99 N          -2.9935  -23.1041  -53.3158 N.am      18 UNK        -0.5000 
    100 CA        -1.9589  -23.9081  -53.9695 C.3       18 UNK         0.1400 
    101 CB        -2.5941  -25.0618  -54.7570 C.3       18 UNK        -0.1800 
    102 C         -0.9082  -24.4471  -52.9825 C.2       18 UNK         0.5000 
    103 O          0.2255  -24.6833  -53.3978 O.2       18 UNK        -0.5000 
    104 N         -1.2608  -24.5768  -51.6927 N.am      19 UNK        -0.5000 
    105 CA        -0.3212  -24.9248  -50.6209 C.3       19 UNK         0.1400 
    106 CB        -1.0995  -25.2658  -49.3431 C.3       19 UNK        -0.1800 
    107 C          0.7093  -23.8097  -50.3460 C.2       19 UNK         0.5000 
    108 O          1.8172  -24.1036  -49.8976 O.2       19 UNK        -0.5000 
    109 N          0.3370  -22.5594  -50.6532 N.am      20 UNK        -0.5000 
    110 CA         1.2125  -21.3870  -50.6315 C.3       20 UNK         0.1400 
    111 CB         0.3729  -20.1702  -50.2086 C.3       20 UNK        -0.1800 
    112 C          1.8935  -21.1390  -51.9944 C.2       20 UNK         0.5000 
    113 O          2.7333  -20.2440  -52.0898 O.2       20 UNK        -0.5000 
    114 N          1.5175  -21.9245  -53.0169 N.am      21 UNK        -0.5000 
    115 CA         1.9135  -21.8312  -54.4264 C.3       21 UNK         0.1400 
    116 CB         3.4206  -22.1145  -54.5968 C.3       21 UNK        -0.1800 
    117 C          1.4622  -20.5175  -55.1019 C.2       21 UNK         0.5000 
    118 O          2.1116  -20.0554  -56.0425 O.2       21 UNK        -0.5000 
    119 N          0.3597  -19.9396  -54.6125 N.am      22 UNK        -0.5000 
    120 CA        -0.2198  -18.6825  -55.1029 C.3       22 UNK         0.1400 
    121 C         -1.2206  -18.9204  -56.2663 C.2       22 UNK         0.5000 
    122 N         -1.4552  -17.9152  -57.0991 N.am      22 UNK        -0.7600 
    123 O         -1.8063  -19.9911  -56.4142 O.2       22 UNK        -0.5000 
    124 C124       -0.8812  -17.8852  -53.9519 C.3       23 UNK        -0.0398 
    125 S125        0.3136  -17.4719  -52.6353 S.3       23 UNK        -0.2404 
    126 C126       -0.3805  -15.9342  -51.9536 C.3       23 UNK        -0.0205 
    127 H127       -0.5208  -10.2459  -50.0115 H         1 UNK         0.0600 
    128 H128       -1.7491   -8.9825  -50.1278 H         1 UNK         0.0600 
    129 H129       -0.7516   -9.1150  -48.6752 H         1 UNK         0.0600 
    130 H130       -1.3915  -12.2227  -49.5970 H         1 UNK         0.3000 
    131 H131       -2.6180  -13.9106  -49.0129 H         1 UNK         0.0600 
    132 H132       -4.9994  -12.0664  -48.4679 H         1 UNK         0.0800 
    133 H133       -5.0636  -13.7974  -48.6209 H         1 UNK         0.0800 
    134 H134       -5.3396  -14.4259  -52.3580 H         1 UNK         0.0800 
    135 H135       -6.0877  -14.7317  -50.8097 H         1 UNK         0.0800 
    136 H136       -2.6645  -14.5103  -52.3664 H         1 UNK         0.1150 
    137 H137       -1.1067  -17.7543  -50.0367 H         1 UNK         0.1150 
    138 H138       -5.1530  -16.4686  -49.4804 H         1 UNK         0.1150 
    139 H139       -4.4209  -18.5422  -48.5010 H         1 UNK         0.0800 
    140 H140       -2.8735  -19.2395  -48.9263 H         1 UNK         0.0800 
    141 H141       -3.3414  -18.5658  -44.8314 H         1 UNK         0.0800 
    142 H142       -4.6390  -18.7124  -45.9862 H         1 UNK         0.0800 
    143 H143       -3.5013  -20.6686  -47.0439 H         1 UNK         0.0600 
    144 H144       -1.2410  -19.9801  -45.3970 H         1 UNK         0.3000 
    145 H145        0.4119  -23.1207  -45.7766 H         1 UNK         0.0600 
    146 H146        2.2444  -21.5810  -46.5458 H         1 UNK         0.0600 
    147 H147        1.0987  -21.9798  -47.8130 H         1 UNK         0.0600 
    148 H148        1.0322  -20.3981  -47.0392 H         1 UNK         0.0600 
    149 H149        0.9335  -20.5415  -44.5131 H         1 UNK         0.3000 
    150 H150       -0.5405  -20.5166  -41.9590 H         1 UNK         0.0600 
    151 H151       -0.5008  -22.5832  -40.6486 H         1 UNK         0.0600 
    152 H152        0.6200  -21.4377  -39.9331 H         1 UNK         0.0600 
    153 H153        1.2256  -22.7817  -40.9017 H         1 UNK         0.0600 
    154 H154        1.2466  -19.2694  -42.1682 H         1 UNK         0.3000 
    155 H155        4.5935  -19.5781  -41.8405 H         1 UNK         0.0600 
    156 H156        4.8310  -20.4308  -44.1767 H         1 UNK         0.0600 
    157 H157        5.1135  -18.6992  -44.1137 H         1 UNK         0.0600 
    158 H158        3.5806  -19.3202  -44.7251 H         1 UNK         0.0600 
    159 H159        3.0272  -17.5394  -43.1528 H         1 UNK         0.3000 
    160 H160        1.6763  -16.1130  -40.1652 H         1 UNK         0.0600 
    161 H161        3.7520  -15.1150  -42.1850 H         1 UNK         0.0600 
    162 H162        2.6635  -14.0862  -41.2548 H         1 UNK         0.0600 
    163 H163        3.8892  -15.0435  -40.4349 H         1 UNK         0.0600 
    164 H164        1.3019  -15.3942  -42.8791 H         1 UNK         0.3000 
    165 H165       -1.4087  -17.6132  -43.6179 H         1 UNK         0.0600 
    166 H166       -2.4731  -15.4396  -44.1266 H         1 UNK         0.0600 
    167 H167       -2.4177  -15.7096  -42.3916 H         1 UNK         0.0600 
    168 H168       -1.2789  -14.5961  -43.1362 H         1 UNK         0.0600 
    169 H169        0.1102  -15.5169  -44.9781 H         1 UNK         0.3000 
    170 H170        2.2655  -17.8060  -46.6495 H         1 UNK         0.0600 
    171 H171        0.2070  -17.9406  -48.0362 H         1 UNK         0.0600 
    172 H172       -0.0804  -16.2187  -47.8161 H         1 UNK         0.0600 
    173 H173        1.3403  -16.7771  -48.7026 H         1 UNK         0.0600 
    174 H174        1.8857  -14.9807  -46.9102 H         1 UNK         0.3000 
    175 H175        4.0736  -14.0227  -44.2617 H         1 UNK         0.0600 
    176 H176        4.5506  -13.9973  -47.2860 H         1 UNK         0.0600 
    177 H177        5.3676  -12.9914  -46.0890 H         1 UNK         0.0600 
    178 H178        5.6219  -14.7284  -46.0968 H         1 UNK         0.0600 
    179 H179        3.0016  -12.3370  -46.1504 H         1 UNK         0.3000 
    180 H180        0.9481  -10.9235  -44.2073 H         1 UNK         0.0600 
    181 H181        2.3713  -10.4548  -46.1755 H         1 UNK         0.0600 
    182 H182        1.2680  -11.3446  -47.2303 H         1 UNK         0.0600 
    183 H183        0.7543   -9.8512  -46.4565 H         1 UNK         0.0600 
    184 H184       -0.9123  -11.9617  -46.2321 H         1 UNK         0.3000 
    185 H185       -3.2893  -13.1214  -44.3610 H         1 UNK         0.0600 
    186 H186       -3.9151  -11.0536  -43.1298 H         1 UNK         0.0600 
    187 H187       -3.6929  -10.0915  -44.5871 H         1 UNK         0.0600 
    188 H188       -4.9803  -11.2938  -44.5036 H         1 UNK         0.0600 
    189 H189       -3.4068  -11.3257  -46.6863 H         1 UNK         0.3000 
    190 H190       -2.6105  -21.7177  -43.8630 H         1 UNK         0.3000 
    191 H191       -5.3279  -22.4495  -43.0473 H         1 UNK         0.0600 
    192 H192       -4.2460  -23.4781  -41.1261 H         1 UNK         0.0600 
    193 H193       -3.5369  -21.8886  -41.3635 H         1 UNK         0.0600 
    194 H194       -2.6559  -23.3374  -41.8495 H         1 UNK         0.0600 
    195 H195       -2.5137  -23.9703  -44.6255 H         1 UNK         0.3000 
    196 H196       -3.7093  -26.6013  -44.9041 H         1 UNK         0.0600 
    197 H197       -1.8161  -26.9462  -46.5156 H         1 UNK         0.0600 
    198 H198       -1.2646  -26.3384  -44.9612 H         1 UNK         0.0600 
    199 H199       -1.3645  -25.2547  -46.3438 H         1 UNK         0.0600 
    200 H200       -3.4453  -23.6828  -46.9121 H         1 UNK         0.3000 
    201 H201       -4.7153  -22.7355  -48.4177 H         1 UNK         0.0600 
    202 H202       -6.6115  -23.1328  -46.9064 H         1 UNK         0.0600 
    203 H203       -6.9062  -24.7195  -47.5916 H         1 UNK         0.0600 
    204 H204       -7.1489  -23.2740  -48.5680 H         1 UNK         0.0600 
    205 H205       -6.4635  -25.6117  -49.3195 H         1 UNK         0.3000 
    206 H206       -6.7849  -26.6471  -51.2632 H         1 UNK         0.0600 
    207 H207       -4.5607  -27.6751  -50.7439 H         1 UNK         0.0600 
    208 H208       -4.8267  -27.5429  -52.4754 H         1 UNK         0.0600 
    209 H209       -3.7509  -26.4129  -51.6676 H         1 UNK         0.0600 
    210 H210       -7.5199  -24.0745  -51.3361 H         1 UNK         0.3000 
    211 H211       -8.0094  -22.2623  -52.5207 H         1 UNK         0.0600 
    212 H212       -7.2073  -23.8286  -55.0293 H         1 UNK         0.0600 
    213 H213       -8.2391  -22.4084  -54.9616 H         1 UNK         0.0600 
    214 H214       -8.7827  -23.9149  -54.2426 H         1 UNK         0.0600 
    215 H215       -5.4912  -22.4475  -51.3549 H         1 UNK         0.3000 
    216 H216       -3.6693  -21.3174  -50.9607 H         1 UNK         0.0600 
    217 H217       -4.8965  -19.2636  -51.7881 H         1 UNK         0.0600 
    218 H218       -4.1410  -19.4987  -53.3665 H         1 UNK         0.0600 
    219 H219       -3.1545  -19.1853  -51.9438 H         1 UNK         0.0600 
    220 H220       -3.9081  -23.5302  -53.2267 H         1 UNK         0.3000 
    221 H221       -1.4413  -23.2633  -54.6833 H         1 UNK         0.0600 
    222 H222       -3.0296  -25.8102  -54.0946 H         1 UNK         0.0600 
    223 H223       -3.3764  -24.7040  -55.4267 H         1 UNK         0.0600 
    224 H224       -1.8476  -25.5688  -55.3694 H         1 UNK         0.0600 
    225 H225       -2.2149  -24.3694  -51.4105 H         1 UNK         0.3000 
    226 H226        0.2290  -25.8160  -50.9300 H         1 UNK         0.0600 
    227 H227       -1.8287  -26.0571  -49.5186 H         1 UNK         0.0600 
    228 H228       -0.4233  -25.6115  -48.5608 H         1 UNK         0.0600 
    229 H229       -1.6327  -24.3978  -48.9554 H         1 UNK         0.0600 
    230 H230       -0.5875  -22.4119  -51.0343 H         1 UNK         0.3000 
    231 H231        2.0079  -21.5287  -49.8977 H         1 UNK         0.0600 
    232 H232       -0.1276  -20.3370  -49.2553 H         1 UNK         0.0600 
    233 H233        0.9996  -19.2846  -50.0982 H         1 UNK         0.0600 
    234 H234       -0.3947  -19.9377  -50.9468 H         1 UNK         0.0600 
    235 H235        0.8516  -22.6577  -52.8157 H         1 UNK         0.3000 
    236 H236        1.3740  -22.6271  -54.9411 H         1 UNK         0.0600 
    237 H237        3.7026  -23.0492  -54.1121 H         1 UNK         0.0600 
    238 H238        3.6846  -22.2053  -55.6510 H         1 UNK         0.0600 
    239 H239        4.0339  -21.3180  -54.1750 H         1 UNK         0.0600 
    240 H240       -0.1618  -20.4082  -53.8794 H         1 UNK         0.3000 
    241 H241        0.5887  -18.0660  -55.5013 H         1 UNK         0.0600 
    242 H242       -2.1086  -18.0509  -57.8550 H         1 UNK         0.3800 
    243 H243       -0.9875  -17.0266  -57.0061 H         1 UNK         0.3800 
    244 H244       -1.3188  -16.9595  -54.3294 H         1 UNK         0.0800 
    245 H245       -1.6980  -18.4563  -53.5135 H         1 UNK         0.0800 
    246 H246        0.3142  -15.5403  -51.2108 H         1 UNK         0.0800 
    247 H247       -0.4351  -15.1890  -52.7485 H         1 UNK         0.0800 
@<TRIPOS>BOND
     1    1    2 1    
     2    1  127 1    
     3    1  128 1    
     4    1  129 1    
     5    2    3 2    
     6    2    4 am   BACKBONE|DICT|INTERRES
     7    4    5 1    
     8    4  130 1    
     9    5    6 1    
    10    5   65 1    
    11    5  131 1    
    12    6    7 1    
    13    6  132 1    
    14    6  133 1    
    15    7    8 1    
    16    8    9 1    
    17    8  134 1    
    18    8  135 1    
    19    9   10 ar   
    20    9   14 ar   
    21   10   11 ar   
    22   10  136 1    
    23   11   12 ar   
    24   11  126 1    
    25   12   13 ar   
    26   12  137 1    
    27   13   14 ar   
    28   13   15 1    
    29   14  138 1    
    30   15   16 1    
    31   15  139 1    
    32   15  140 1    
    33   16   17 1    
    34   17   18 1    
    35   17  141 1    
    36   17  142 1    
    37   18   19 1    
    38   18   67 1    
    39   18  143 1    
    40   19   20 am   BACKBONE|DICT|INTERRES
    41   19  144 1    
    42   20   21 2    
    43   20   22 1    
    44   22   23 1    
    45   22   24 1    
    46   22  145 1    
    47   23  146 1    
    48   23  147 1    
    49   23  148 1    
    50   24   25 am   BACKBONE|DICT|INTERRES
    51   24  149 1    
    52   25   26 2    
    53   25   27 1    
    54   27   28 1    
    55   27   29 1    
    56   27  150 1    
    57   28  151 1    
    58   28  152 1    
    59   28  153 1    
    60   29   30 am   BACKBONE|DICT|INTERRES
    61   29  154 1    
    62   30   31 2    
    63   30   32 1    
    64   32   33 1    
    65   32   34 1    
    66   32  155 1    
    67   33  156 1    
    68   33  157 1    
    69   33  158 1    
    70   34   35 am   BACKBONE|DICT|INTERRES
    71   34  159 1    
    72   35   36 2    
    73   35   37 1    
    74   37   38 1    
    75   37   39 1    
    76   37  160 1    
    77   38  161 1    
    78   38  162 1    
    79   38  163 1    
    80   39   40 am   BACKBONE|DICT|INTERRES
    81   39  164 1    
    82   40   41 2    
    83   40   42 1    
    84   42   43 1    
    85   42   44 1    
    86   42  165 1    
    87   43  166 1    
    88   43  167 1    
    89   43  168 1    
    90   44   45 am   BACKBONE|DICT|INTERRES
    91   44  169 1    
    92   45   46 2    
    93   45   47 1    
    94   47   48 1    
    95   47   49 1    
    96   47  170 1    
    97   48  171 1    
    98   48  172 1    
    99   48  173 1    
   100   49   50 am   BACKBONE|DICT|INTERRES
   101   49  174 1    
   102   50   51 2    
   103   50   52 1    
   104   52   53 1    
   105   52   54 1    
   106   52  175 1    
   107   53  176 1    
   108   53  177 1    
   109   53  178 1    
   110   54   55 am   BACKBONE|DICT|INTERRES
   111   54  179 1    
   112   55   56 2    
   113   55   57 1    
   114   57   58 1    
   115   57   59 1    
   116   57  180 1    
   117   58  181 1    
   118   58  182 1    
   119   58  183 1    
   120   59   60 am   BACKBONE|DICT|INTERRES
   121   59  184 1    
   122   60   61 2    
   123   60   62 1    
   124   62   63 1    
   125   62   64 1    
   126   62  185 1    
   127   63  186 1    
   128   63  187 1    
   129   63  188 1    
   130   64   65 am   BACKBONE|DICT|INTERRES
   131   64  189 1    
   132   65   66 2    
   133   67   68 2    
   134   67   69 am   BACKBONE|DICT|INTERRES
   135   69   70 1    
   136   69  190 1    
   137   70   71 1    
   138   70   72 1    
   139   70  191 1    
   140   71  192 1    
   141   71  193 1    
   142   71  194 1    
   143   72   73 2    
   144   72   74 am   BACKBONE|DICT|INTERRES
   145   74   75 1    
   146   74  195 1    
   147   75   76 1    
   148   75   77 1    
   149   75  196 1    
   150   76  197 1    
   151   76  198 1    
   152   76  199 1    
   153   77   78 2    
   154   77   79 am   BACKBONE|DICT|INTERRES
   155   79   80 1    
   156   79  200 1    
   157   80   81 1    
   158   80   82 1    
   159   80  201 1    
   160   81  202 1    
   161   81  203 1    
   162   81  204 1    
   163   82   83 2    
   164   82   84 am   BACKBONE|DICT|INTERRES
   165   84   85 1    
   166   84  205 1    
   167   85   86 1    
   168   85   87 1    
   169   85  206 1    
   170   86  207 1    
   171   86  208 1    
   172   86  209 1    
   173   87   88 2    
   174   87   89 am   BACKBONE|DICT|INTERRES
   175   89   90 1    
   176   89  210 1    
   177   90   91 1    
   178   90   92 1    
   179   90  211 1    
   180   91  212 1    
   181   91  213 1    
   182   91  214 1    
   183   92   93 2    
   184   92   94 am   BACKBONE|DICT|INTERRES
   185   94   95 1    
   186   94  215 1    
   187   95   96 1    
   188   95   97 1    
   189   95  216 1    
   190   96  217 1    
   191   96  218 1    
   192   96  219 1    
   193   97   98 2    
   194   97   99 am   BACKBONE|DICT|INTERRES
   195   99  100 1    
   196   99  220 1    
   197  100  101 1    
   198  100  102 1    
   199  100  221 1    
   200  101  222 1    
   201  101  223 1    
   202  101  224 1    
   203  102  103 2    
   204  102  104 am   BACKBONE|DICT|INTERRES
   205  104  105 1    
   206  104  225 1    
   207  105  106 1    
   208  105  107 1    
   209  105  226 1    
   210  106  227 1    
   211  106  228 1    
   212  106  229 1    
   213  107  108 2    
   214  107  109 am   BACKBONE|DICT|INTERRES
   215  109  110 1    
   216  109  230 1    
   217  110  111 1    
   218  110  112 1    
   219  110  231 1    
   220  111  232 1    
   221  111  233 1    
   222  111  234 1    
   223  112  113 2    
   224  112  114 am   BACKBONE|DICT|INTERRES
   225  114  115 1    
   226  114  235 1    
   227  115  116 1    
   228  115  117 1    
   229  115  236 1    
   230  116  237 1    
   231  116  238 1    
   232  116  239 1    
   233  117  118 2    
   234  117  119 am   BACKBONE|DICT|INTERRES
   235  119  120 1    
   236  119  240 1    
   237  120  121 1    
   238  120  124 1    
   239  120  241 1    
   240  121  122 am   BACKBONE|DICT|INTERRES
   241  121  123 2    
   242  122  242 1    
   243  122  243 1    
   244  124  125 1    
   245  124  244 1    
   246  124  245 1    
   247  125  126 1    
   248  126  246 1    
   249  126  247 1    
@<TRIPOS>SUBSTRUCTURE
     1 UNK         1 GROUP             0       ****    0 ROOT    
