@<TRIPOS>MOLECULE
3R540
247   249    1
SMALL
USER_CHARGES


@<TRIPOS>ATOM
      1 CA          1.3977  -11.8306  -51.2469 C.3       0 UNK        -0.1800 
      2 C           0.7419  -13.1957  -51.0931 C.2       0 UNK         0.5000 
      3 O           0.0747  -13.6633  -52.0158 O.2       0 UNK        -0.5000 
      4 N           0.9273  -13.8345  -49.9347 N.am      1 UNK        -0.5000 
      5 CA          0.3963  -15.1528  -49.6061 C.3       1 UNK         0.1400 
      6 C6         -1.0782  -15.0787  -49.1340 C.3       23 UNK        -0.0398 
      7 S7         -1.8539  -16.7196  -48.9359 S.3       23 UNK        -0.2404 
      8 C8         -3.3926  -16.4992  -49.8923 C.3       23 UNK        -0.0205 
      9 C9         -4.3396  -17.7011  -49.9317 C.ar      23 UNK        -0.0193 
     10 C10        -5.5256  -17.5747  -50.6609 C.ar      23 UNK        -0.1150 
     11 C11        -6.4283  -18.6363  -50.7714 C.ar      23 UNK        -0.0193 
     12 C12        -6.1513  -19.8352  -50.1063 C.ar      23 UNK        -0.1150 
     13 C13        -4.9721  -19.9816  -49.3722 C.ar      23 UNK        -0.0193 
     14 C14        -4.0714  -18.9169  -49.2890 C.ar      23 UNK        -0.1150 
     15 C15        -4.6437  -21.3022  -48.7007 C.3       23 UNK        -0.0205 
     16 S16        -5.0794  -21.3056  -46.9364 S.3       23 UNK        -0.2404 
     17 C17        -4.0136  -22.6630  -46.3438 C.3       23 UNK        -0.0398 
     18 CA         -2.8106  -22.1196  -45.5243 C.3       11 UNK         0.1400 
     19 N          -3.1987  -21.4955  -44.2494 N.am      11 UNK        -0.5000 
     20 C          -3.7263  -22.1065  -43.1774 C.2       10 UNK         0.5000 
     21 O          -4.1026  -23.2789  -43.1722 O.2       10 UNK        -0.5000 
     22 CA         -3.7992  -21.2942  -41.8684 C.3       10 UNK         0.1400 
     23 CB         -2.6257  -21.6700  -40.9504 C.3       10 UNK        -0.1800 
     24 N          -3.7786  -19.8467  -42.0763 N.am      10 UNK        -0.5000 
     25 C          -4.8318  -19.1247  -42.4805 C.2       9 UNK         0.5000 
     26 O          -5.9527  -19.5963  -42.6749 O.2       9 UNK        -0.5000 
     27 CA         -4.5827  -17.6248  -42.7268 C.3       9 UNK         0.1400 
     28 CB         -4.6852  -16.8319  -41.4150 C.3       9 UNK        -0.1800 
     29 N          -3.2867  -17.3608  -43.3542 N.am      9 UNK        -0.5000 
     30 C          -2.9422  -17.7697  -44.5839 C.2       8 UNK         0.5000 
     31 O          -3.6900  -18.3911  -45.3357 O.2       8 UNK        -0.5000 
     32 CA         -1.5059  -17.4673  -45.0323 C.3       8 UNK         0.1400 
     33 CB         -1.3724  -15.9952  -45.4483 C.3       8 UNK        -0.1800 
     34 N          -0.5273  -17.7722  -43.9899 N.am      8 UNK        -0.5000 
     35 C          -0.2409  -18.9946  -43.5231 C.2       7 UNK         0.5000 
     36 O          -0.7066  -20.0342  -43.9847 O.2       7 UNK        -0.5000 
     37 CA          0.7090  -19.0758  -42.3169 C.3       7 UNK         0.1400 
     38 CB          2.1700  -19.1812  -42.7753 C.3       7 UNK        -0.1800 
     39 N           0.5536  -17.9395  -41.4110 N.am      7 UNK        -0.5000 
     40 C          -0.5202  -17.7373  -40.6344 C.2       6 UNK         0.5000 
     41 O          -1.4835  -18.5028  -40.5850 O.2       6 UNK        -0.5000 
     42 CA         -0.5324  -16.4353  -39.8134 C.3       6 UNK         0.1400 
     43 CB          0.2973  -16.5930  -38.5306 C.3       6 UNK        -0.1800 
     44 N          -0.0305  -15.2941  -40.5819 N.am      6 UNK        -0.5000 
     45 C          -0.6703  -14.7584  -41.6307 C.2       5 UNK         0.5000 
     46 O          -1.7707  -15.1447  -42.0248 O.2       5 UNK        -0.5000 
     47 CA          0.0605  -13.6344  -42.3921 C.3       5 UNK         0.1400 
     48 CB         -0.2232  -12.2722  -41.7419 C.3       5 UNK        -0.1800 
     49 N           1.5114  -13.8313  -42.4952 N.am      5 UNK        -0.5000 
     50 C           2.0991  -14.8715  -43.1006 C.2       4 UNK         0.5000 
     51 O           1.4776  -15.8119  -43.6006 O.2       4 UNK        -0.5000 
     52 CA          3.6331  -14.8948  -43.1078 C.3       4 UNK         0.1400 
     53 CB          4.1681  -15.2798  -41.7141 C.3       4 UNK        -0.1800 
     54 N           4.0675  -15.8721  -44.1013 N.am      4 UNK        -0.5000 
     55 C           5.3075  -16.0289  -44.5787 C.2       3 UNK         0.5000 
     56 O           6.2539  -15.3060  -44.2648 O.2       3 UNK        -0.5000 
     57 CA          5.5456  -17.1977  -45.5551 C.3       3 UNK         0.1400 
     58 CB          6.1925  -18.3790  -44.8138 C.3       3 UNK        -0.1800 
     59 N           4.3111  -17.6694  -46.1857 N.am      3 UNK        -0.5000 
     60 C           3.8404  -17.2452  -47.3653 C.2       2 UNK         0.5000 
     61 O           4.4329  -16.4356  -48.0827 O.2       2 UNK        -0.5000 
     62 CA          2.5046  -17.8666  -47.8393 C.3       2 UNK         0.1400 
     63 CB          1.5953  -18.3232  -46.6791 C.3       2 UNK        -0.1800 
     64 N           1.7332  -17.0141  -48.7506 N.am      2 UNK        -0.5000 
     65 C           1.3178  -15.7574  -48.5341 C.2       1 UNK         0.5000 
     66 O           1.6072  -15.0811  -47.5438 O.2       1 UNK        -0.5000 
     67 C          -1.6846  -23.1629  -45.3150 C.2       11 UNK         0.5000 
     68 O          -1.6533  -24.1953  -45.9855 O.2       11 UNK        -0.5000 
     69 N          -0.7846  -22.8710  -44.3657 N.am      12 UNK        -0.5000 
     70 CA          0.2492  -23.7811  -43.8754 C.3       12 UNK         0.1400 
     71 CB          0.5890  -23.4105  -42.4235 C.3       12 UNK        -0.1800 
     72 C           1.5200  -23.7696  -44.7388 C.2       12 UNK         0.5000 
     73 O           2.1564  -24.8138  -44.8839 O.2       12 UNK        -0.5000 
     74 N           1.8667  -22.5974  -45.2867 N.am      13 UNK        -0.5000 
     75 CA          3.0543  -22.3875  -46.1238 C.3       13 UNK         0.1400 
     76 CB          4.0576  -21.4891  -45.3784 C.3       13 UNK        -0.1800 
     77 C           2.6884  -21.8250  -47.5094 C.2       13 UNK         0.5000 
     78 O           3.5739  -21.3782  -48.2392 O.2       13 UNK        -0.5000 
     79 N           1.3945  -21.8543  -47.8543 N.am      14 UNK        -0.5000 
     80 CA          0.8896  -21.5649  -49.1940 C.3       14 UNK         0.1400 
     81 CB         -0.6151  -21.2727  -49.0928 C.3       14 UNK        -0.1800 
     82 C           1.1851  -22.7583  -50.1254 C.2       14 UNK         0.5000 
     83 O           1.1118  -23.9051  -49.6757 O.2       14 UNK        -0.5000 
     84 N           1.5241  -22.4710  -51.3882 N.am      15 UNK        -0.5000 
     85 CA          1.9602  -23.4245  -52.4141 C.3       15 UNK         0.1400 
     86 CB          2.3331  -22.6439  -53.6857 C.3       15 UNK        -0.1800 
     87 C           0.9125  -24.5164  -52.7099 C.2       15 UNK         0.5000 
     88 O          -0.0419  -24.2706  -53.4475 O.2       15 UNK        -0.5000 
     89 N           1.0967  -25.6921  -52.0918 N.am      16 UNK        -0.5000 
     90 CA          0.1669  -26.8289  -52.0750 C.3       16 UNK         0.1400 
     91 CB          0.0341  -27.4602  -53.4774 C.3       16 UNK        -0.1800 
     92 C          -1.1941  -26.4700  -51.4358 C.2       16 UNK         0.5000 
     93 O          -2.2332  -26.9679  -51.8723 O.2       16 UNK        -0.5000 
     94 N          -1.1477  -25.6051  -50.4100 N.am      17 UNK        -0.5000 
     95 CA         -2.2768  -25.0503  -49.6599 C.3       17 UNK         0.1400 
     96 CB         -3.0207  -26.1506  -48.8742 C.3       17 UNK        -0.1800 
     97 C          -3.2093  -24.1803  -50.5304 C.2       17 UNK         0.5000 
     98 O          -4.4301  -24.2522  -50.3857 O.2       17 UNK        -0.5000 
     99 N          -2.6194  -23.3573  -51.4058 N.am      18 UNK        -0.5000 
    100 CA        -3.3041  -22.3829  -52.2506 C.3       18 UNK         0.1400 
    101 CB        -3.8694  -23.0801  -53.4992 C.3       18 UNK        -0.1800 
    102 C         -2.3127  -21.2775  -52.6413 C.2       18 UNK         0.5000 
    103 O         -1.1095  -21.5309  -52.7001 O.2       18 UNK        -0.5000 
    104 N         -2.8238  -20.0732  -52.9034 N.am      19 UNK        -0.5000 
    105 CA        -2.0724  -18.8947  -53.3269 C.3       19 UNK         0.1400 
    106 CB        -1.1201  -18.4243  -52.2073 C.3       19 UNK        -0.1800 
    107 C         -3.0745  -17.7945  -53.7048 C.2       19 UNK         0.5000 
    108 O         -4.2655  -17.9317  -53.4153 O.2       19 UNK        -0.5000 
    109 N         -2.5795  -16.7205  -54.3357 N.am      20 UNK        -0.5000 
    110 CA        -3.3213  -15.5136  -54.7211 C.3       20 UNK         0.1400 
    111 CB        -3.5970  -14.6501  -53.4686 C.3       20 UNK        -0.1800 
    112 C         -4.5851  -15.8449  -55.5472 C.2       20 UNK         0.5000 
    113 O         -4.4637  -16.4502  -56.6141 O.2       20 UNK        -0.5000 
    114 N         -5.7691  -15.4921  -55.0271 N.am      21 UNK        -0.5000 
    115 CA        -7.0820  -15.7690  -55.6164 C.3       21 UNK         0.1400 
    116 CB        -8.1578  -15.0626  -54.7770 C.3       21 UNK        -0.1800 
    117 C         -7.4136  -17.2695  -55.7585 C.2       21 UNK         0.5000 
    118 O         -8.2253  -17.6237  -56.6148 O.2       21 UNK        -0.5000 
    119 N         -6.7789  -18.1182  -54.9404 N.am      22 UNK        -0.5000 
    120 CA        -6.8533  -19.5834  -55.0315 C.3       22 UNK         0.1400 
    121 C         -5.8153  -20.1908  -56.0230 C.2       22 UNK         0.5000 
    122 N         -4.9315  -19.4166  -56.6439 N.am      22 UNK        -0.7600 
    123 O         -5.8241  -21.3964  -56.2531 O.2       22 UNK        -0.5000 
    124 C124       -6.7551  -20.2469  -53.6326 C.3       23 UNK        -0.0398 
    125 S125       -8.2060  -19.9152  -52.5738 S.3       23 UNK        -0.2404 
    126 C126       -7.6957  -18.4521  -51.6036 C.3       23 UNK        -0.0205 
    127 H127        1.9530  -11.5445  -50.3532 H         1 UNK         0.0600 
    128 H128        0.6401  -11.0697  -51.4346 H         1 UNK         0.0600 
    129 H129        2.0896  -11.8395  -52.0890 H         1 UNK         0.0600 
    130 H130        1.4996  -13.4264  -49.2059 H         1 UNK         0.3000 
    131 H131        0.4486  -15.7777  -50.5008 H         1 UNK         0.0600 
    132 H132       -1.6601  -14.5033  -49.8550 H         1 UNK         0.0800 
    133 H133       -1.1566  -14.5351  -48.1911 H         1 UNK         0.0800 
    134 H134       -3.1209  -16.2423  -50.9164 H         1 UNK         0.0800 
    135 H135       -3.9338  -15.6443  -49.4847 H         1 UNK         0.0800 
    136 H136       -5.7351  -16.6444  -51.1697 H         1 UNK         0.1150 
    137 H137       -6.8454  -20.6610  -50.1708 H         1 UNK         0.1150 
    138 H138       -3.1654  -19.0527  -48.7178 H         1 UNK         0.1150 
    139 H139       -5.1799  -22.1144  -49.1905 H         1 UNK         0.0800 
    140 H140       -3.5802  -21.5071  -48.8250 H         1 UNK         0.0800 
    141 H141       -3.6771  -23.2403  -47.2061 H         1 UNK         0.0800 
    142 H142       -4.6158  -23.3504  -45.7494 H         1 UNK         0.0800 
    143 H143       -2.3463  -21.3255  -46.1118 H         1 UNK         0.0600 
    144 H144       -2.9088  -20.5324  -44.1439 H         1 UNK         0.3000 
    145 H145       -4.7283  -21.5645  -41.3621 H         1 UNK         0.0600 
    146 H146       -2.7001  -21.1628  -39.9883 H         1 UNK         0.0600 
    147 H147       -2.6084  -22.7424  -40.7523 H         1 UNK         0.0600 
    148 H148       -1.6674  -21.4004  -41.3955 H         1 UNK         0.0600 
    149 H149       -2.9103  -19.3664  -41.8664 H         1 UNK         0.3000 
    150 H150       -5.3608  -17.2659  -43.4036 H         1 UNK         0.0600 
    151 H151       -5.6502  -16.9951  -40.9336 H         1 UNK         0.0600 
    152 H152       -4.5874  -15.7609  -41.5937 H         1 UNK         0.0600 
    153 H153       -3.9098  -17.1237  -40.7060 H         1 UNK         0.0600 
    154 H154       -2.6254  -16.8069  -42.8192 H         1 UNK         0.3000 
    155 H155       -1.2927  -18.0920  -45.9013 H         1 UNK         0.0600 
    156 H156       -1.5214  -15.3207  -44.6081 H         1 UNK         0.0600 
    157 H157       -2.1156  -15.7330  -46.2006 H         1 UNK         0.0600 
    158 H158       -0.3890  -15.7904  -45.8684 H         1 UNK         0.0600 
    159 H159       -0.0096  -16.9828  -43.6145 H         1 UNK         0.3000 
    160 H160        0.4632  -19.9835  -41.7622 H         1 UNK         0.0600 
    161 H161        2.4679  -18.3315  -43.3890 H         1 UNK         0.0600 
    162 H162        2.3190  -20.0861  -43.3632 H         1 UNK         0.0600 
    163 H163        2.8491  -19.2352  -41.9243 H         1 UNK         0.0600 
    164 H164        1.2755  -17.2357  -41.4344 H         1 UNK         0.3000 
    165 H165       -1.5666  -16.2301  -39.5285 H         1 UNK         0.0600 
    166 H166        0.2337  -15.7002  -37.9084 H         1 UNK         0.0600 
    167 H167       -0.0648  -17.4308  -37.9330 H         1 UNK         0.0600 
    168 H168        1.3503  -16.7760  -38.7487 H         1 UNK         0.0600 
    169 H169        0.8676  -14.9174  -40.3176 H         1 UNK         0.3000 
    170 H170       -0.3396  -13.6128  -43.4074 H         1 UNK         0.0600 
    171 H171       -1.2964  -12.0894  -41.6711 H         1 UNK         0.0600 
    172 H172        0.1872  -12.2132  -40.7330 H         1 UNK         0.0600 
    173 H173        0.2051  -11.4585  -42.3274 H         1 UNK         0.0600 
    174 H174        2.0907  -13.1065  -42.0966 H         1 UNK         0.3000 
    175 H175        3.9976  -13.9059  -43.3923 H         1 UNK         0.0600 
    176 H176        3.8363  -16.2761  -41.4190 H         1 UNK         0.0600 
    177 H177        5.2576  -15.2713  -41.6877 H         1 UNK         0.0600 
    178 H178        3.8268  -14.5794  -40.9511 H         1 UNK         0.0600 
    179 H179        3.3132  -16.4453  -44.4556 H         1 UNK         0.3000 
    180 H180        6.2457  -16.8536  -46.3192 H         1 UNK         0.0600 
    181 H181        5.5427  -18.7692  -44.0292 H         1 UNK         0.0600 
    182 H182        7.1305  -18.0799  -44.3442 H         1 UNK         0.0600 
    183 H183        6.4205  -19.1962  -45.4985 H         1 UNK         0.0600 
    184 H184        3.7785  -18.3528  -45.6713 H         1 UNK         0.3000 
    185 H185        2.7762  -18.7503  -48.4170 H         1 UNK         0.0600 
    186 H186        2.0471  -19.1177  -46.0891 H         1 UNK         0.0600 
    187 H187        1.3684  -17.4961  -46.0067 H         1 UNK         0.0600 
    188 H188        0.6528  -18.7174  -47.0581 H         1 UNK         0.0600 
    189 H189        1.4678  -17.4534  -49.6197 H         1 UNK         0.3000 
    190 H190       -0.8444  -21.9555  -43.9297 H         1 UNK         0.3000 
    191 H191       -0.1466  -24.7991  -43.8796 H         1 UNK         0.0600 
    192 H192       -0.2848  -23.5056  -41.7793 H         1 UNK         0.0600 
    193 H193        0.9582  -22.3877  -42.3427 H         1 UNK         0.0600 
    194 H194        1.3591  -24.0702  -42.0213 H         1 UNK         0.0600 
    195 H195        1.2795  -21.7932  -45.1165 H         1 UNK         0.3000 
    196 H196        3.5513  -23.3393  -46.3205 H         1 UNK         0.0600 
    197 H197        4.9875  -21.3899  -45.9397 H         1 UNK         0.0600 
    198 H198        4.3135  -21.9088  -44.4054 H         1 UNK         0.0600 
    199 H199        3.6673  -20.4872  -45.2173 H         1 UNK         0.0600 
    200 H200        0.7556  -22.3180  -47.2271 H         1 UNK         0.3000 
    201 H201        1.3911  -20.6747  -49.5796 H         1 UNK         0.0600 
    202 H202       -0.8100  -20.4419  -48.4139 H         1 UNK         0.0600 
    203 H203       -1.1712  -22.1363  -48.7301 H         1 UNK         0.0600 
    204 H204       -1.0257  -20.9928  -50.0611 H         1 UNK         0.0600 
    205 H205        1.4701  -21.5101  -51.6927 H         1 UNK         0.3000 
    206 H206        2.8668  -23.9105  -52.0481 H         1 UNK         0.0600 
    207 H207        3.1510  -21.9483  -53.4971 H         1 UNK         0.0600 
    208 H208        2.6574  -23.3196  -54.4781 H         1 UNK         0.0600 
    209 H209        1.4869  -22.0711  -54.0681 H         1 UNK         0.0600 
    210 H210        1.8922  -25.7788  -51.4740 H         1 UNK         0.3000 
    211 H211        0.6155  -27.5785  -51.4217 H         1 UNK         0.0600 
    212 H212       -0.4797  -26.7986  -54.1752 H         1 UNK         0.0600 
    213 H213       -0.5336  -28.3904  -53.4338 H         1 UNK         0.0600 
    214 H214        1.0115  -27.6976  -53.8973 H         1 UNK         0.0600 
    215 H215       -0.2394  -25.2267  -50.1536 H         1 UNK         0.3000 
    216 H216       -1.8397  -24.3777  -48.9218 H         1 UNK         0.0600 
    217 H217       -3.7649  -25.7158  -48.2060 H         1 UNK         0.0600 
    218 H218       -2.3318  -26.7260  -48.2559 H         1 UNK         0.0600 
    219 H219       -3.5412  -26.8440  -49.5351 H         1 UNK         0.0600 
    220 H220       -1.6129  -23.3626  -51.5185 H         1 UNK         0.3000 
    221 H221       -4.1207  -21.9267  -51.6872 H         1 UNK         0.0600 
    222 H222       -3.0840  -23.5886  -54.0602 H         1 UNK         0.0600 
    223 H223       -4.6246  -23.8199  -53.2339 H         1 UNK         0.0600 
    224 H224       -4.3397  -22.3617  -54.1700 H         1 UNK         0.0600 
    225 H225       -3.8179  -19.8985  -52.8277 H         1 UNK         0.3000 
    226 H226       -1.4963  -19.1445  -54.2199 H         1 UNK         0.0600 
    227 H227       -0.2644  -19.0912  -52.1070 H         1 UNK         0.0600 
    228 H228       -0.7241  -17.4262  -52.3974 H         1 UNK         0.0600 
    229 H229       -1.6305  -18.4015  -51.2465 H         1 UNK         0.0600 
    230 H230       -1.5969  -16.7130  -54.5690 H         1 UNK         0.3000 
    231 H231       -2.6672  -14.9417  -55.3806 H         1 UNK         0.0600 
    232 H232       -4.2531  -15.1530  -52.7576 H         1 UNK         0.0600 
    233 H233       -4.0587  -13.6992  -53.7377 H         1 UNK         0.0600 
    234 H234       -2.6684  -14.4155  -52.9472 H         1 UNK         0.0600 
    235 H235       -5.7718  -15.0231  -54.1335 H         1 UNK         0.3000 
    236 H236       -7.0914  -15.3383  -56.6196 H         1 UNK         0.0600 
    237 H237       -9.1506  -15.2196  -55.2009 H         1 UNK         0.0600 
    238 H238       -8.1763  -15.4351  -53.7520 H         1 UNK         0.0600 
    239 H239       -7.9884  -13.9863  -54.7415 H         1 UNK         0.0600 
    240 H240       -6.0766  -17.7601  -54.3012 H         1 UNK         0.3000 
    241 H241       -7.8274  -19.8541  -55.4431 H         1 UNK         0.0600 
    242 H242       -4.2845  -19.8368  -57.2915 H         1 UNK         0.3800 
    243 H243       -4.9155  -18.4122  -56.5064 H         1 UNK         0.3800 
    244 H244       -6.6958  -21.3322  -53.7299 H         1 UNK         0.0800 
    245 H245       -5.8425  -19.9481  -53.1205 H         1 UNK         0.0800 
    246 H246       -7.5788  -17.6124  -52.2895 H         1 UNK         0.0800 
    247 H247       -8.5104  -18.1838  -50.9302 H         1 UNK         0.0800 
@<TRIPOS>BOND
     1    1    2 1    
     2    1  127 1    
     3    1  128 1    
     4    1  129 1    
     5    2    3 2    
     6    2    4 am   BACKBONE|DICT|INTERRES
     7    4    5 1    
     8    4  130 1    
     9    5    6 1    
    10    5   65 1    
    11    5  131 1    
    12    6    7 1    
    13    6  132 1    
    14    6  133 1    
    15    7    8 1    
    16    8    9 1    
    17    8  134 1    
    18    8  135 1    
    19    9   10 ar   
    20    9   14 ar   
    21   10   11 ar   
    22   10  136 1    
    23   11   12 ar   
    24   11  126 1    
    25   12   13 ar   
    26   12  137 1    
    27   13   14 ar   
    28   13   15 1    
    29   14  138 1    
    30   15   16 1    
    31   15  139 1    
    32   15  140 1    
    33   16   17 1    
    34   17   18 1    
    35   17  141 1    
    36   17  142 1    
    37   18   19 1    
    38   18   67 1    
    39   18  143 1    
    40   19   20 am   BACKBONE|DICT|INTERRES
    41   19  144 1    
    42   20   21 2    
    43   20   22 1    
    44   22   23 1    
    45   22   24 1    
    46   22  145 1    
    47   23  146 1    
    48   23  147 1    
    49   23  148 1    
    50   24   25 am   BACKBONE|DICT|INTERRES
    51   24  149 1    
    52   25   26 2    
    53   25   27 1    
    54   27   28 1    
    55   27   29 1    
    56   27  150 1    
    57   28  151 1    
    58   28  152 1    
    59   28  153 1    
    60   29   30 am   BACKBONE|DICT|INTERRES
    61   29  154 1    
    62   30   31 2    
    63   30   32 1    
    64   32   33 1    
    65   32   34 1    
    66   32  155 1    
    67   33  156 1    
    68   33  157 1    
    69   33  158 1    
    70   34   35 am   BACKBONE|DICT|INTERRES
    71   34  159 1    
    72   35   36 2    
    73   35   37 1    
    74   37   38 1    
    75   37   39 1    
    76   37  160 1    
    77   38  161 1    
    78   38  162 1    
    79   38  163 1    
    80   39   40 am   BACKBONE|DICT|INTERRES
    81   39  164 1    
    82   40   41 2    
    83   40   42 1    
    84   42   43 1    
    85   42   44 1    
    86   42  165 1    
    87   43  166 1    
    88   43  167 1    
    89   43  168 1    
    90   44   45 am   BACKBONE|DICT|INTERRES
    91   44  169 1    
    92   45   46 2    
    93   45   47 1    
    94   47   48 1    
    95   47   49 1    
    96   47  170 1    
    97   48  171 1    
    98   48  172 1    
    99   48  173 1    
   100   49   50 am   BACKBONE|DICT|INTERRES
   101   49  174 1    
   102   50   51 2    
   103   50   52 1    
   104   52   53 1    
   105   52   54 1    
   106   52  175 1    
   107   53  176 1    
   108   53  177 1    
   109   53  178 1    
   110   54   55 am   BACKBONE|DICT|INTERRES
   111   54  179 1    
   112   55   56 2    
   113   55   57 1    
   114   57   58 1    
   115   57   59 1    
   116   57  180 1    
   117   58  181 1    
   118   58  182 1    
   119   58  183 1    
   120   59   60 am   BACKBONE|DICT|INTERRES
   121   59  184 1    
   122   60   61 2    
   123   60   62 1    
   124   62   63 1    
   125   62   64 1    
   126   62  185 1    
   127   63  186 1    
   128   63  187 1    
   129   63  188 1    
   130   64   65 am   BACKBONE|DICT|INTERRES
   131   64  189 1    
   132   65   66 2    
   133   67   68 2    
   134   67   69 am   BACKBONE|DICT|INTERRES
   135   69   70 1    
   136   69  190 1    
   137   70   71 1    
   138   70   72 1    
   139   70  191 1    
   140   71  192 1    
   141   71  193 1    
   142   71  194 1    
   143   72   73 2    
   144   72   74 am   BACKBONE|DICT|INTERRES
   145   74   75 1    
   146   74  195 1    
   147   75   76 1    
   148   75   77 1    
   149   75  196 1    
   150   76  197 1    
   151   76  198 1    
   152   76  199 1    
   153   77   78 2    
   154   77   79 am   BACKBONE|DICT|INTERRES
   155   79   80 1    
   156   79  200 1    
   157   80   81 1    
   158   80   82 1    
   159   80  201 1    
   160   81  202 1    
   161   81  203 1    
   162   81  204 1    
   163   82   83 2    
   164   82   84 am   BACKBONE|DICT|INTERRES
   165   84   85 1    
   166   84  205 1    
   167   85   86 1    
   168   85   87 1    
   169   85  206 1    
   170   86  207 1    
   171   86  208 1    
   172   86  209 1    
   173   87   88 2    
   174   87   89 am   BACKBONE|DICT|INTERRES
   175   89   90 1    
   176   89  210 1    
   177   90   91 1    
   178   90   92 1    
   179   90  211 1    
   180   91  212 1    
   181   91  213 1    
   182   91  214 1    
   183   92   93 2    
   184   92   94 am   BACKBONE|DICT|INTERRES
   185   94   95 1    
   186   94  215 1    
   187   95   96 1    
   188   95   97 1    
   189   95  216 1    
   190   96  217 1    
   191   96  218 1    
   192   96  219 1    
   193   97   98 2    
   194   97   99 am   BACKBONE|DICT|INTERRES
   195   99  100 1    
   196   99  220 1    
   197  100  101 1    
   198  100  102 1    
   199  100  221 1    
   200  101  222 1    
   201  101  223 1    
   202  101  224 1    
   203  102  103 2    
   204  102  104 am   BACKBONE|DICT|INTERRES
   205  104  105 1    
   206  104  225 1    
   207  105  106 1    
   208  105  107 1    
   209  105  226 1    
   210  106  227 1    
   211  106  228 1    
   212  106  229 1    
   213  107  108 2    
   214  107  109 am   BACKBONE|DICT|INTERRES
   215  109  110 1    
   216  109  230 1    
   217  110  111 1    
   218  110  112 1    
   219  110  231 1    
   220  111  232 1    
   221  111  233 1    
   222  111  234 1    
   223  112  113 2    
   224  112  114 am   BACKBONE|DICT|INTERRES
   225  114  115 1    
   226  114  235 1    
   227  115  116 1    
   228  115  117 1    
   229  115  236 1    
   230  116  237 1    
   231  116  238 1    
   232  116  239 1    
   233  117  118 2    
   234  117  119 am   BACKBONE|DICT|INTERRES
   235  119  120 1    
   236  119  240 1    
   237  120  121 1    
   238  120  124 1    
   239  120  241 1    
   240  121  122 am   BACKBONE|DICT|INTERRES
   241  121  123 2    
   242  122  242 1    
   243  122  243 1    
   244  124  125 1    
   245  124  244 1    
   246  124  245 1    
   247  125  126 1    
   248  126  246 1    
   249  126  247 1    
@<TRIPOS>SUBSTRUCTURE
     1 UNK         1 GROUP             0       ****    0 ROOT    
