@<TRIPOS>MOLECULE
3R540
247   249    1
SMALL
USER_CHARGES


@<TRIPOS>ATOM
      1 CA         -1.3820  -11.9548  -43.7728 C.3       0 UNK        -0.1800 
      2 C          -1.3839  -11.9506  -45.2947 C.2       0 UNK         0.5000 
      3 O          -0.7864  -12.8325  -45.9102 O.2       0 UNK        -0.5000 
      4 N          -2.0536  -10.9610  -45.9020 N.am      1 UNK        -0.5000 
      5 CA         -2.1833  -10.7360  -47.3485 C.3       1 UNK         0.1400 
      6 C6         -2.9042  -11.8865  -48.1065 C.3       23 UNK        -0.0398 
      7 S7         -4.6940  -11.9451  -47.7520 S.3       23 UNK        -0.2404 
      8 C8         -4.8065  -13.1697  -46.3988 C.3       23 UNK        -0.0205 
      9 C9         -4.4110  -14.6081  -46.7406 C.ar      23 UNK        -0.0193 
     10 C10        -4.3353  -15.0865  -48.0571 C.ar      23 UNK        -0.1150 
     11 C11        -3.9745  -16.4126  -48.3140 C.ar      23 UNK        -0.0193 
     12 C12        -3.7058  -17.2713  -47.2474 C.ar      23 UNK        -0.1150 
     13 C13        -3.7845  -16.8141  -45.9312 C.ar      23 UNK        -0.0193 
     14 C14        -4.1354  -15.4846  -45.6848 C.ar      23 UNK        -0.1150 
     15 C15        -3.4428  -17.7552  -44.7898 C.3       23 UNK        -0.0205 
     16 S16        -4.7316  -19.0026  -44.5141 S.3       23 UNK        -0.2404 
     17 C17        -3.7968  -20.2798  -43.5991 C.3       23 UNK        -0.0398 
     18 CA         -3.2312  -21.3472  -44.5673 C.3       11 UNK         0.1400 
     19 N          -2.0248  -20.8987  -45.2739 N.am      11 UNK        -0.5000 
     20 C          -1.6732  -21.3518  -46.4840 C.2       10 UNK         0.5000 
     21 O          -2.3160  -22.2002  -47.1017 O.2       10 UNK        -0.5000 
     22 CA         -0.3878  -20.7922  -47.1105 C.3       10 UNK         0.1400 
     23 CB         -0.6461  -19.4127  -47.7331 C.3       10 UNK        -0.1800 
     24 N           0.7426  -20.7182  -46.1852 N.am      10 UNK        -0.5000 
     25 C           1.3241  -21.7763  -45.6033 C.2       9 UNK         0.5000 
     26 O           0.8875  -22.9234  -45.6889 O.2       9 UNK        -0.5000 
     27 CA          2.6034  -21.5100  -44.7917 C.3       9 UNK         0.1400 
     28 CB          3.7899  -21.1984  -45.7174 C.3       9 UNK        -0.1800 
     29 N           2.4166  -20.4085  -43.8521 N.am      9 UNK        -0.5000 
     30 C           1.8833  -20.5447  -42.6308 C.2       8 UNK         0.5000 
     31 O           1.5833  -21.6291  -42.1334 O.2       8 UNK        -0.5000 
     32 CA          1.6107  -19.2541  -41.8332 C.3       8 UNK         0.1400 
     33 CB          2.8101  -18.9097  -40.9378 C.3       8 UNK        -0.1800 
     34 N           1.2838  -18.0994  -42.6718 N.am      8 UNK        -0.5000 
     35 C           0.2473  -18.0398  -43.5195 C.2       7 UNK         0.5000 
     36 O          -0.5634  -18.9536  -43.6760 O.2       7 UNK        -0.5000 
     37 CA          0.1339  -16.7697  -44.3799 C.3       7 UNK         0.1400 
     38 CB         -0.5126  -15.6335  -43.5771 C.3       7 UNK        -0.1800 
     39 N           1.4203  -16.3235  -44.9160 N.am      7 UNK        -0.5000 
     40 C           2.2185  -17.0499  -45.7117 C.2       6 UNK         0.5000 
     41 O           1.9454  -18.1822  -46.1061 O.2       6 UNK        -0.5000 
     42 CA          3.5799  -16.4368  -46.0737 C.3       6 UNK         0.1400 
     43 CB          3.4426  -15.3838  -47.1837 C.3       6 UNK        -0.1800 
     44 N           4.2208  -15.8488  -44.8990 N.am      6 UNK        -0.5000 
     45 C           4.7621  -16.5632  -43.9016 C.2       5 UNK         0.5000 
     46 O           4.8437  -17.7917  -43.9065 O.2       5 UNK        -0.5000 
     47 CA          5.2764  -15.7734  -42.6831 C.3       5 UNK         0.1400 
     48 CB          6.7430  -15.3646  -42.8861 C.3       5 UNK        -0.1800 
     49 N           4.4783  -14.5782  -42.4028 N.am      5 UNK        -0.5000 
     50 C           3.2152  -14.5974  -41.9538 C.2       4 UNK         0.5000 
     51 O           2.5986  -15.6303  -41.6941 O.2       4 UNK        -0.5000 
     52 CA          2.5087  -13.2326  -41.8291 C.3       4 UNK         0.1400 
     53 CB          2.8233  -12.5802  -40.4750 C.3       4 UNK        -0.1800 
     54 N           2.8546  -12.3042  -42.9121 N.am      4 UNK        -0.5000 
     55 C           2.5894  -12.5319  -44.2044 C.2       3 UNK         0.5000 
     56 O           2.0244  -13.5490  -44.6105 O.2       3 UNK        -0.5000 
     57 CA          3.0928  -11.4954  -45.2156 C.3       3 UNK         0.1400 
     58 CB          4.5811  -11.7657  -45.5233 C.3       3 UNK        -0.1800 
     59 N           2.2763  -11.6087  -46.4222 N.am      3 UNK        -0.5000 
     60 C           2.3614  -10.8546  -47.5253 C.2       2 UNK         0.5000 
     61 O           3.1348   -9.9051  -47.6546 O.2       2 UNK        -0.5000 
     62 CA          1.4040  -11.2123  -48.6751 C.3       2 UNK         0.1400 
     63 CB          1.8494  -12.5006  -49.3851 C.3       2 UNK        -0.1800 
     64 N           0.0354  -11.3752  -48.1927 N.am      2 UNK        -0.5000 
     65 C          -0.8228  -10.3708  -47.9805 C.2       1 UNK         0.5000 
     66 O          -0.5760   -9.1932  -48.2461 O.2       1 UNK        -0.5000 
     67 C          -3.0265  -22.7200  -43.8952 C.2       11 UNK         0.5000 
     68 O          -4.0054  -23.4493  -43.7331 O.2       11 UNK        -0.5000 
     69 N          -1.7737  -23.0991  -43.5950 N.am      12 UNK        -0.5000 
     70 CA         -1.4143  -24.4685  -43.2062 C.3       12 UNK         0.1400 
     71 CB          0.0049  -24.4986  -42.6230 C.3       12 UNK        -0.1800 
     72 C          -1.5506  -25.4527  -44.3857 C.2       12 UNK         0.5000 
     73 O          -1.9514  -26.5984  -44.1828 O.2       12 UNK        -0.5000 
     74 N          -1.2873  -24.9614  -45.6041 N.am      13 UNK        -0.5000 
     75 CA         -1.5230  -25.6368  -46.8807 C.3       13 UNK         0.1400 
     76 CB         -0.5054  -25.1127  -47.9102 C.3       13 UNK        -0.1800 
     77 C          -2.9773  -25.4884  -47.3866 C.2       13 UNK         0.5000 
     78 O          -3.2143  -25.6559  -48.5828 O.2       13 UNK        -0.5000 
     79 N          -3.9224  -25.1730  -46.4864 N.am      14 UNK        -0.5000 
     80 CA         -5.3682  -25.0577  -46.7109 C.3       14 UNK         0.1400 
     81 CB         -5.9774  -26.4426  -47.0136 C.3       14 UNK        -0.1800 
     82 C          -5.7414  -23.9844  -47.7552 C.2       14 UNK         0.5000 
     83 O          -6.5590  -24.2367  -48.6414 O.2       14 UNK        -0.5000 
     84 N          -5.1161  -22.8066  -47.6177 N.am      15 UNK        -0.5000 
     85 CA         -5.1860  -21.6444  -48.5097 C.3       15 UNK         0.1400 
     86 CB         -6.6168  -21.0751  -48.6052 C.3       15 UNK        -0.1800 
     87 C          -4.5444  -21.9550  -49.8749 C.2       15 UNK         0.5000 
     88 O          -5.1412  -21.6960  -50.9207 O.2       15 UNK        -0.5000 
     89 N          -3.3273  -22.5163  -49.8143 N.am      16 UNK        -0.5000 
     90 CA         -2.4788  -22.9374  -50.9320 C.3       16 UNK         0.1400 
     91 CB         -1.9082  -21.7037  -51.6614 C.3       16 UNK        -0.1800 
     92 C          -3.1902  -23.9228  -51.8825 C.2       16 UNK         0.5000 
     93 O          -3.2441  -23.6899  -53.0930 O.2       16 UNK        -0.5000 
     94 N          -3.7420  -25.0013  -51.3100 N.am      17 UNK        -0.5000 
     95 CA         -4.4423  -26.0662  -52.0284 C.3       17 UNK         0.1400 
     96 CB         -5.0150  -27.0687  -51.0167 C.3       17 UNK        -0.1800 
     97 C          -3.5334  -26.7773  -53.0483 C.2       17 UNK         0.5000 
     98 O          -2.3297  -26.9110  -52.8135 O.2       17 UNK        -0.5000 
     99 N          -4.1263  -27.1831  -54.1788 N.am      18 UNK        -0.5000 
    100 CA        -3.5123  -27.7699  -55.3804 C.3       18 UNK         0.1400 
    101 CB        -2.7488  -29.0702  -55.0625 C.3       18 UNK        -0.1800 
    102 C         -2.6398  -26.7866  -56.1899 C.2       18 UNK         0.5000 
    103 O         -2.6919  -26.8151  -57.4200 O.2       18 UNK        -0.5000 
    104 N         -1.8815  -25.9209  -55.5045 N.am      19 UNK        -0.5000 
    105 CA        -1.1063  -24.8284  -56.0930 C.3       19 UNK         0.1400 
    106 CB        -0.1375  -24.2676  -55.0398 C.3       19 UNK        -0.1800 
    107 C         -2.0067  -23.7111  -56.6522 C.2       19 UNK         0.5000 
    108 O         -1.7157  -23.1786  -57.7237 O.2       19 UNK        -0.5000 
    109 N         -3.0833  -23.3936  -55.9154 N.am      20 UNK        -0.5000 
    110 CA        -4.1092  -22.3880  -56.2133 C.3       20 UNK         0.1400 
    111 CB        -4.9198  -22.7857  -57.4645 C.3       20 UNK        -0.1800 
    112 C         -3.5477  -20.9517  -56.2827 C.2       20 UNK         0.5000 
    113 O         -4.0276  -20.1335  -57.0692 O.2       20 UNK        -0.5000 
    114 N         -2.5298  -20.6734  -55.4561 N.am      21 UNK        -0.5000 
    115 CA        -1.8431  -19.3816  -55.3886 C.3       21 UNK         0.1400 
    116 CB        -0.4825  -19.5778  -54.7017 C.3       21 UNK        -0.1800 
    117 C         -2.6616  -18.2944  -54.6649 C.2       21 UNK         0.5000 
    118 O         -2.4520  -17.1082  -54.9213 O.2       21 UNK        -0.5000 
    119 N         -3.5624  -18.7139  -53.7686 N.am      22 UNK        -0.5000 
    120 CA        -4.4728  -17.8424  -53.0175 C.3       22 UNK         0.1400 
    121 C         -5.6592  -17.3580  -53.8956 C.2       22 UNK         0.5000 
    122 N         -6.0000  -16.0775  -53.8469 N.am      22 UNK        -0.7600 
    123 O         -6.2937  -18.1430  -54.5967 O.2       22 UNK        -0.5000 
    124 C124       -4.9577  -18.5579  -51.7322 C.3       23 UNK        -0.0398 
    125 S125       -5.4722  -17.4159  -50.4077 S.3       23 UNK        -0.2404 
    126 C126       -3.8541  -16.9216  -49.7400 C.3       23 UNK        -0.0205 
    127 H127       -1.7719  -11.0223  -43.3646 H         1 UNK         0.0600 
    128 H128       -0.3680  -12.0918  -43.3979 H         1 UNK         0.0600 
    129 H129       -1.9967  -12.7744  -43.4012 H         1 UNK         0.0600 
    130 H130       -2.5040  -10.2617  -45.3286 H         1 UNK         0.3000 
    131 H131       -2.8030   -9.8434  -47.4523 H         1 UNK         0.0600 
    132 H132       -2.4516  -12.8562  -47.8994 H         1 UNK         0.0800 
    133 H133       -2.8112  -11.7429  -49.1845 H         1 UNK         0.0800 
    134 H134       -4.2058  -12.8149  -45.5613 H         1 UNK         0.0800 
    135 H135       -5.8382  -13.1826  -46.0454 H         1 UNK         0.0800 
    136 H136       -4.5548  -14.4364  -48.8911 H         1 UNK         0.1150 
    137 H137       -3.4328  -18.2993  -47.4384 H         1 UNK         0.1150 
    138 H138       -4.1909  -15.1287  -44.6654 H         1 UNK         0.1150 
    139 H139       -2.5145  -18.2554  -45.0485 H         1 UNK         0.0800 
    140 H140       -3.2666  -17.2102  -43.8626 H         1 UNK         0.0800 
    141 H141       -4.4971  -20.7283  -42.8920 H         1 UNK         0.0800 
    142 H142       -3.0089  -19.8262  -42.9962 H         1 UNK         0.0800 
    143 H143       -4.0066  -21.5244  -45.3152 H         1 UNK         0.0600 
    144 H144       -1.4363  -20.2191  -44.7969 H         1 UNK         0.3000 
    145 H145       -0.1014  -21.4706  -47.9168 H         1 UNK         0.0600 
    146 H146       -0.8978  -18.6699  -46.9762 H         1 UNK         0.0600 
    147 H147        0.2316  -19.0540  -48.2710 H         1 UNK         0.0600 
    148 H148       -1.4692  -19.4531  -48.4477 H         1 UNK         0.0600 
    149 H149        1.1716  -19.8010  -46.0742 H         1 UNK         0.3000 
    150 H150        2.8454  -22.4207  -44.2394 H         1 UNK         0.0600 
    151 H151        3.9595  -22.0143  -46.4210 H         1 UNK         0.0600 
    152 H152        4.7084  -21.0651  -45.1455 H         1 UNK         0.0600 
    153 H153        3.6274  -20.2911  -46.2998 H         1 UNK         0.0600 
    154 H154        2.6168  -19.4780  -44.1935 H         1 UNK         0.3000 
    155 H155        0.7491  -19.4452  -41.1904 H         1 UNK         0.0600 
    156 H156        3.0674  -19.7473  -40.2882 H         1 UNK         0.0600 
    157 H157        2.5909  -18.0568  -40.2953 H         1 UNK         0.0600 
    158 H158        3.6945  -18.6669  -41.5274 H         1 UNK         0.0600 
    159 H159        1.8711  -17.2782  -42.5627 H         1 UNK         0.3000 
    160 H160       -0.5108  -16.9959  -45.2301 H         1 UNK         0.0600 
    161 H161       -0.7233  -14.7822  -44.2198 H         1 UNK         0.0600 
    162 H162        0.1319  -15.2910  -42.7686 H         1 UNK         0.0600 
    163 H163       -1.4565  -15.9448  -43.1309 H         1 UNK         0.0600 
    164 H164        1.7012  -15.3740  -44.6817 H         1 UNK         0.3000 
    165 H165        4.2184  -17.2389  -46.4506 H         1 UNK         0.0600 
    166 H166        2.8113  -14.5505  -46.8789 H         1 UNK         0.0600 
    167 H167        4.4146  -14.9807  -47.4681 H         1 UNK         0.0600 
    168 H168        2.9969  -15.8195  -48.0787 H         1 UNK         0.0600 
    169 H169        4.1426  -14.8491  -44.7916 H         1 UNK         0.3000 
    170 H170        5.2216  -16.4321  -41.8136 H         1 UNK         0.0600 
    171 H171        6.8594  -14.6856  -43.7319 H         1 UNK         0.0600 
    172 H172        7.1407  -14.8695  -42.0000 H         1 UNK         0.0600 
    173 H173        7.3683  -16.2377  -43.0773 H         1 UNK         0.0600 
    174 H174        4.9111  -13.6854  -42.5870 H         1 UNK         0.3000 
    175 H175        1.4329  -13.4131  -41.8759 H         1 UNK         0.0600 
    176 H176        3.8834  -12.3432  -40.3771 H         1 UNK         0.0600 
    177 H177        2.2584  -11.6575  -40.3413 H         1 UNK         0.0600 
    178 H178        2.5577  -13.2443  -39.6513 H         1 UNK         0.0600 
    179 H179        3.3321  -11.4550  -42.6458 H         1 UNK         0.3000 
    180 H180        2.9690  -10.4958  -44.7952 H         1 UNK         0.0600 
    181 H181        4.7205  -12.7279  -46.0174 H         1 UNK         0.0600 
    182 H182        5.1784  -11.7757  -44.6108 H         1 UNK         0.0600 
    183 H183        5.0073  -10.9970  -46.1670 H         1 UNK         0.0600 
    184 H184        1.5856  -12.3501  -46.3710 H         1 UNK         0.3000 
    185 H185        1.4355  -10.4004  -49.4050 H         1 UNK         0.0600 
    186 H186        1.2389  -12.6915  -50.2677 H         1 UNK         0.0600 
    187 H187        2.8862  -12.4277  -49.7163 H         1 UNK         0.0600 
    188 H188        1.7715  -13.3708  -48.7334 H         1 UNK         0.0600 
    189 H189       -0.2157  -12.2834  -47.8189 H         1 UNK         0.3000 
    190 H190       -1.0118  -22.4604  -43.7732 H         1 UNK         0.3000 
    191 H191       -2.1030  -24.7945  -42.4237 H         1 UNK         0.0600 
    192 H192        0.7482  -24.1496  -43.3393 H         1 UNK         0.0600 
    193 H193        0.0755  -23.8726  -41.7336 H         1 UNK         0.0600 
    194 H194        0.2842  -25.5109  -42.3286 H         1 UNK         0.0600 
    195 H195       -0.9004  -24.0267  -45.6685 H         1 UNK         0.3000 
    196 H196       -1.3433  -26.7056  -46.7508 H         1 UNK         0.0600 
    197 H197        0.5164  -25.2408  -47.5527 H         1 UNK         0.0600 
    198 H198       -0.6530  -24.0534  -48.1194 H         1 UNK         0.0600 
    199 H199       -0.5853  -25.6497  -48.8562 H         1 UNK         0.0600 
    200 H200       -3.6242  -25.0270  -45.5319 H         1 UNK         0.3000 
    201 H201       -5.7950  -24.7158  -45.7668 H         1 UNK         0.0600 
    202 H202       -7.0635  -26.3852  -47.0942 H         1 UNK         0.0600 
    203 H203       -5.7498  -27.1532  -46.2192 H         1 UNK         0.0600 
    204 H204       -5.6005  -26.8566  -47.9485 H         1 UNK         0.0600 
    205 H205       -4.3802  -22.7576  -46.9252 H         1 UNK         0.3000 
    206 H206       -4.5670  -20.8707  -48.0527 H         1 UNK         0.0600 
    207 H207       -7.0241  -20.8666  -47.6160 H         1 UNK         0.0600 
    208 H208       -7.2978  -21.7571  -49.1143 H         1 UNK         0.0600 
    209 H209       -6.6219  -20.1375  -49.1621 H         1 UNK         0.0600 
    210 H210       -2.9432  -22.6758  -48.8877 H         1 UNK         0.3000 
    211 H211       -1.6402  -23.4821  -50.4960 H         1 UNK         0.0600 
    212 H212       -1.3888  -21.0410  -50.9691 H         1 UNK         0.0600 
    213 H213       -1.1900  -22.0027  -52.4253 H         1 UNK         0.0600 
    214 H214       -2.6915  -21.1274  -52.1532 H         1 UNK         0.0600 
    215 H215       -3.6176  -25.1440  -50.3096 H         1 UNK         0.3000 
    216 H216       -5.2731  -25.6036  -52.5650 H         1 UNK         0.0600 
    217 H217       -5.5599  -27.8685  -51.5194 H         1 UNK         0.0600 
    218 H218       -4.2277  -27.5303  -50.4193 H         1 UNK         0.0600 
    219 H219       -5.7111  -26.5793  -50.3355 H         1 UNK         0.0600 
    220 H220       -5.1173  -27.0056  -54.2691 H         1 UNK         0.3000 
    221 H221       -4.3488  -28.0399  -56.0270 H         1 UNK         0.0600 
    222 H222       -1.8558  -28.8875  -54.4645 H         1 UNK         0.0600 
    223 H223       -3.3787  -29.7753  -54.5203 H         1 UNK         0.0600 
    224 H224       -2.4258  -29.5620  -55.9807 H         1 UNK         0.0600 
    225 H225       -1.8819  -25.9992  -54.4925 H         1 UNK         0.3000 
    226 H226       -0.5176  -25.2314  -56.9197 H         1 UNK         0.0600 
    227 H227        0.5581  -25.0343  -54.6983 H         1 UNK         0.0600 
    228 H228        0.4558  -23.4495  -55.4503 H         1 UNK         0.0600 
    229 H229       -0.6664  -23.8844  -54.1667 H         1 UNK         0.0600 
    230 H230       -3.1743  -23.8282  -55.0004 H         1 UNK         0.3000 
    231 H231       -4.7937  -22.3991  -55.3639 H         1 UNK         0.0600 
    232 H232       -5.7756  -22.1240  -57.6027 H         1 UNK         0.0600 
    233 H233       -5.3068  -23.8009  -57.3764 H         1 UNK         0.0600 
    234 H234       -4.3172  -22.7340  -58.3717 H         1 UNK         0.0600 
    235 H235       -2.1911  -21.4079  -54.8520 H         1 UNK         0.3000 
    236 H236       -1.6610  -19.0343  -56.4079 H         1 UNK         0.0600 
    237 H237        0.1220  -20.3186  -55.2255 H         1 UNK         0.0600 
    238 H238        0.0850  -18.6463  -54.6897 H         1 UNK         0.0600 
    239 H239       -0.5950  -19.9043  -53.6677 H         1 UNK         0.0600 
    240 H240       -3.7065  -19.7069  -53.6668 H         1 UNK         0.3000 
    241 H241       -3.8922  -16.9679  -52.7170 H         1 UNK         0.0600 
    242 H242       -6.7767  -15.7555  -54.4033 H         1 UNK         0.3800 
    243 H243       -5.5044  -15.4211  -53.2636 H         1 UNK         0.3800 
    244 H244       -5.7821  -19.2398  -51.9493 H         1 UNK         0.0800 
    245 H245       -4.1631  -19.1855  -51.3276 H         1 UNK         0.0800 
    246 H246       -3.4207  -16.1476  -50.3751 H         1 UNK         0.0800 
    247 H247       -3.1622  -17.7647  -49.7706 H         1 UNK         0.0800 
@<TRIPOS>BOND
     1    1    2 1    
     2    1  127 1    
     3    1  128 1    
     4    1  129 1    
     5    2    3 2    
     6    2    4 am   BACKBONE|DICT|INTERRES
     7    4    5 1    
     8    4  130 1    
     9    5    6 1    
    10    5   65 1    
    11    5  131 1    
    12    6    7 1    
    13    6  132 1    
    14    6  133 1    
    15    7    8 1    
    16    8    9 1    
    17    8  134 1    
    18    8  135 1    
    19    9   10 ar   
    20    9   14 ar   
    21   10   11 ar   
    22   10  136 1    
    23   11   12 ar   
    24   11  126 1    
    25   12   13 ar   
    26   12  137 1    
    27   13   14 ar   
    28   13   15 1    
    29   14  138 1    
    30   15   16 1    
    31   15  139 1    
    32   15  140 1    
    33   16   17 1    
    34   17   18 1    
    35   17  141 1    
    36   17  142 1    
    37   18   19 1    
    38   18   67 1    
    39   18  143 1    
    40   19   20 am   BACKBONE|DICT|INTERRES
    41   19  144 1    
    42   20   21 2    
    43   20   22 1    
    44   22   23 1    
    45   22   24 1    
    46   22  145 1    
    47   23  146 1    
    48   23  147 1    
    49   23  148 1    
    50   24   25 am   BACKBONE|DICT|INTERRES
    51   24  149 1    
    52   25   26 2    
    53   25   27 1    
    54   27   28 1    
    55   27   29 1    
    56   27  150 1    
    57   28  151 1    
    58   28  152 1    
    59   28  153 1    
    60   29   30 am   BACKBONE|DICT|INTERRES
    61   29  154 1    
    62   30   31 2    
    63   30   32 1    
    64   32   33 1    
    65   32   34 1    
    66   32  155 1    
    67   33  156 1    
    68   33  157 1    
    69   33  158 1    
    70   34   35 am   BACKBONE|DICT|INTERRES
    71   34  159 1    
    72   35   36 2    
    73   35   37 1    
    74   37   38 1    
    75   37   39 1    
    76   37  160 1    
    77   38  161 1    
    78   38  162 1    
    79   38  163 1    
    80   39   40 am   BACKBONE|DICT|INTERRES
    81   39  164 1    
    82   40   41 2    
    83   40   42 1    
    84   42   43 1    
    85   42   44 1    
    86   42  165 1    
    87   43  166 1    
    88   43  167 1    
    89   43  168 1    
    90   44   45 am   BACKBONE|DICT|INTERRES
    91   44  169 1    
    92   45   46 2    
    93   45   47 1    
    94   47   48 1    
    95   47   49 1    
    96   47  170 1    
    97   48  171 1    
    98   48  172 1    
    99   48  173 1    
   100   49   50 am   BACKBONE|DICT|INTERRES
   101   49  174 1    
   102   50   51 2    
   103   50   52 1    
   104   52   53 1    
   105   52   54 1    
   106   52  175 1    
   107   53  176 1    
   108   53  177 1    
   109   53  178 1    
   110   54   55 am   BACKBONE|DICT|INTERRES
   111   54  179 1    
   112   55   56 2    
   113   55   57 1    
   114   57   58 1    
   115   57   59 1    
   116   57  180 1    
   117   58  181 1    
   118   58  182 1    
   119   58  183 1    
   120   59   60 am   BACKBONE|DICT|INTERRES
   121   59  184 1    
   122   60   61 2    
   123   60   62 1    
   124   62   63 1    
   125   62   64 1    
   126   62  185 1    
   127   63  186 1    
   128   63  187 1    
   129   63  188 1    
   130   64   65 am   BACKBONE|DICT|INTERRES
   131   64  189 1    
   132   65   66 2    
   133   67   68 2    
   134   67   69 am   BACKBONE|DICT|INTERRES
   135   69   70 1    
   136   69  190 1    
   137   70   71 1    
   138   70   72 1    
   139   70  191 1    
   140   71  192 1    
   141   71  193 1    
   142   71  194 1    
   143   72   73 2    
   144   72   74 am   BACKBONE|DICT|INTERRES
   145   74   75 1    
   146   74  195 1    
   147   75   76 1    
   148   75   77 1    
   149   75  196 1    
   150   76  197 1    
   151   76  198 1    
   152   76  199 1    
   153   77   78 2    
   154   77   79 am   BACKBONE|DICT|INTERRES
   155   79   80 1    
   156   79  200 1    
   157   80   81 1    
   158   80   82 1    
   159   80  201 1    
   160   81  202 1    
   161   81  203 1    
   162   81  204 1    
   163   82   83 2    
   164   82   84 am   BACKBONE|DICT|INTERRES
   165   84   85 1    
   166   84  205 1    
   167   85   86 1    
   168   85   87 1    
   169   85  206 1    
   170   86  207 1    
   171   86  208 1    
   172   86  209 1    
   173   87   88 2    
   174   87   89 am   BACKBONE|DICT|INTERRES
   175   89   90 1    
   176   89  210 1    
   177   90   91 1    
   178   90   92 1    
   179   90  211 1    
   180   91  212 1    
   181   91  213 1    
   182   91  214 1    
   183   92   93 2    
   184   92   94 am   BACKBONE|DICT|INTERRES
   185   94   95 1    
   186   94  215 1    
   187   95   96 1    
   188   95   97 1    
   189   95  216 1    
   190   96  217 1    
   191   96  218 1    
   192   96  219 1    
   193   97   98 2    
   194   97   99 am   BACKBONE|DICT|INTERRES
   195   99  100 1    
   196   99  220 1    
   197  100  101 1    
   198  100  102 1    
   199  100  221 1    
   200  101  222 1    
   201  101  223 1    
   202  101  224 1    
   203  102  103 2    
   204  102  104 am   BACKBONE|DICT|INTERRES
   205  104  105 1    
   206  104  225 1    
   207  105  106 1    
   208  105  107 1    
   209  105  226 1    
   210  106  227 1    
   211  106  228 1    
   212  106  229 1    
   213  107  108 2    
   214  107  109 am   BACKBONE|DICT|INTERRES
   215  109  110 1    
   216  109  230 1    
   217  110  111 1    
   218  110  112 1    
   219  110  231 1    
   220  111  232 1    
   221  111  233 1    
   222  111  234 1    
   223  112  113 2    
   224  112  114 am   BACKBONE|DICT|INTERRES
   225  114  115 1    
   226  114  235 1    
   227  115  116 1    
   228  115  117 1    
   229  115  236 1    
   230  116  237 1    
   231  116  238 1    
   232  116  239 1    
   233  117  118 2    
   234  117  119 am   BACKBONE|DICT|INTERRES
   235  119  120 1    
   236  119  240 1    
   237  120  121 1    
   238  120  124 1    
   239  120  241 1    
   240  121  122 am   BACKBONE|DICT|INTERRES
   241  121  123 2    
   242  122  242 1    
   243  122  243 1    
   244  124  125 1    
   245  124  244 1    
   246  124  245 1    
   247  125  126 1    
   248  126  246 1    
   249  126  247 1    
@<TRIPOS>SUBSTRUCTURE
     1 UNK         1 GROUP             0       ****    0 ROOT    
