@<TRIPOS>MOLECULE
3R540
247   249    1
SMALL
USER_CHARGES


@<TRIPOS>ATOM
      1 CA          6.4639  -18.8899  -46.3387 C.3       0 UNK        -0.1800 
      2 C           5.6847  -17.5909  -46.1929 C.2       0 UNK         0.5000 
      3 O           5.1120  -17.3361  -45.1347 O.2       0 UNK        -0.5000 
      4 N           5.6596  -16.7700  -47.2497 N.am      1 UNK        -0.5000 
      5 CA          4.9710  -15.4766  -47.3149 C.3       1 UNK         0.1400 
      6 C6          4.6787  -15.0609  -48.7786 C.3       23 UNK        -0.0398 
      7 S7          3.3942  -16.1045  -49.5496 S.3       23 UNK        -0.2404 
      8 C8          2.6933  -14.9148  -50.7352 C.3       23 UNK        -0.0205 
      9 C9          1.3598  -15.3804  -51.2967 C.ar      23 UNK        -0.0193 
     10 C10         1.2804  -15.9600  -52.5675 C.ar      23 UNK        -0.1150 
     11 C11         0.0446  -16.3231  -53.1158 C.ar      23 UNK        -0.0193 
     12 C12        -1.1176  -16.0826  -52.3702 C.ar      23 UNK        -0.1150 
     13 C13        -1.0481  -15.5448  -51.0837 C.ar      23 UNK        -0.0193 
     14 C14         0.1929  -15.1895  -50.5532 C.ar      23 UNK        -0.1150 
     15 C15        -2.3213  -15.3417  -50.2790 C.3       23 UNK        -0.0205 
     16 S16        -3.0121  -16.9239  -49.6999 S.3       23 UNK        -0.2404 
     17 C17        -1.8544  -17.3878  -48.3633 C.3       23 UNK        -0.0398 
     18 CA         -1.2596  -18.8151  -48.4843 C.3       11 UNK         0.1400 
     19 N          -0.2818  -19.0756  -47.4250 N.am      11 UNK        -0.5000 
     20 C           0.4463  -20.1928  -47.2824 C.2       10 UNK         0.5000 
     21 O           0.4400  -21.1278  -48.0818 O.2       10 UNK        -0.5000 
     22 CA          1.2796  -20.3147  -45.9952 C.3       10 UNK         0.1400 
     23 CB          2.5932  -19.5302  -46.1215 C.3       10 UNK        -0.1800 
     24 N           0.5462  -19.8808  -44.8035 N.am      10 UNK        -0.5000 
     25 C          -0.5778  -20.4569  -44.3506 C.2       9 UNK         0.5000 
     26 O          -1.0958  -21.4442  -44.8706 O.2       9 UNK        -0.5000 
     27 CA         -1.2705  -19.7957  -43.1451 C.3       9 UNK         0.1400 
     28 CB         -0.5643  -20.1624  -41.8317 C.3       9 UNK        -0.1800 
     29 N          -1.3552  -18.3414  -43.2767 N.am      9 UNK        -0.5000 
     30 C          -2.0513  -17.7077  -44.2317 C.2       8 UNK         0.5000 
     31 O          -2.7479  -18.2854  -45.0673 O.2       8 UNK        -0.5000 
     32 CA         -1.8957  -16.1765  -44.3016 C.3       8 UNK         0.1400 
     33 CB         -2.7877  -15.4788  -43.2645 C.3       8 UNK        -0.1800 
     34 N          -0.5060  -15.7529  -44.1246 N.am      8 UNK        -0.5000 
     35 C           0.4921  -16.0666  -44.9631 C.2       7 UNK         0.5000 
     36 O           0.3333  -16.6828  -46.0152 O.2       7 UNK        -0.5000 
     37 CA          1.9100  -15.6666  -44.5303 C.3       7 UNK         0.1400 
     38 CB          2.1995  -14.2063  -44.9149 C.3       7 UNK        -0.1800 
     39 N           2.1129  -15.8732  -43.0956 N.am      7 UNK        -0.5000 
     40 C           2.1926  -17.0810  -42.5160 C.2       6 UNK         0.5000 
     41 O           2.1378  -18.1388  -43.1415 O.2       6 UNK        -0.5000 
     42 CA          2.2676  -17.1290  -40.9775 C.3       6 UNK         0.1400 
     43 CB          3.7169  -17.0976  -40.4785 C.3       6 UNK        -0.1800 
     44 N           1.5038  -16.0536  -40.3469 N.am      6 UNK        -0.5000 
     45 C           0.1645  -15.9967  -40.3530 C.2       5 UNK         0.5000 
     46 O          -0.5503  -16.8770  -40.8323 O.2       5 UNK        -0.5000 
     47 CA         -0.4868  -14.7244  -39.7792 C.3       5 UNK         0.1400 
     48 CB         -0.7756  -14.8949  -38.2808 C.3       5 UNK        -0.1800 
     49 N           0.3185  -13.5184  -39.9811 N.am      5 UNK        -0.5000 
     50 C           0.6831  -13.0248  -41.1724 C.2       4 UNK         0.5000 
     51 O           0.3444  -13.5282  -42.2431 O.2       4 UNK        -0.5000 
     52 CA          1.5823  -11.7717  -41.1732 C.3       4 UNK         0.1400 
     53 CB          1.3184  -10.8455  -39.9662 C.3       4 UNK        -0.1800 
     54 N           3.0203  -12.0608  -41.2735 N.am      4 UNK        -0.5000 
     55 C           3.7593  -12.8633  -40.4911 C.2       3 UNK         0.5000 
     56 O           3.2884  -13.6447  -39.6618 O.2       3 UNK        -0.5000 
     57 CA          5.2908  -12.7197  -40.6435 C.3       3 UNK         0.1400 
     58 CB          6.0914  -13.7183  -39.7800 C.3       3 UNK        -0.1800 
     59 N           5.7631  -12.7368  -42.0342 N.am      3 UNK        -0.5000 
     60 C           5.6535  -13.7497  -42.9039 C.2       2 UNK         0.5000 
     61 O           5.0623  -14.8029  -42.6653 O.2       2 UNK        -0.5000 
     62 CA          6.3455  -13.5624  -44.2626 C.3       2 UNK         0.1400 
     63 CB          7.8640  -13.7860  -44.1462 C.3       2 UNK        -0.1800 
     64 N           5.7787  -14.5141  -45.2108 N.am      2 UNK        -0.5000 
     65 C           5.7488  -14.3873  -46.5397 C.2       1 UNK         0.5000 
     66 O           6.2997  -13.4656  -47.1449 O.2       1 UNK        -0.5000 
     67 C          -2.3481  -19.9091  -48.5093 C.2       11 UNK         0.5000 
     68 O          -2.5340  -20.5473  -49.5441 O.2       11 UNK        -0.5000 
     69 N          -3.0025  -20.1444  -47.3615 N.am      12 UNK        -0.5000 
     70 CA         -4.0502  -21.1545  -47.1943 C.3       12 UNK         0.1400 
     71 CB         -4.6531  -21.0378  -45.7870 C.3       12 UNK        -0.1800 
     72 C          -3.5714  -22.5938  -47.4630 C.2       12 UNK         0.5000 
     73 O          -4.3028  -23.3672  -48.0853 O.2       12 UNK        -0.5000 
     74 N          -2.3509  -22.9160  -47.0122 N.am      13 UNK        -0.5000 
     75 CA         -1.6883  -24.1988  -47.2391 C.3       13 UNK         0.1400 
     76 CB         -0.4299  -24.2984  -46.3638 C.3       13 UNK        -0.1800 
     77 C          -1.3474  -24.4275  -48.7210 C.2       13 UNK         0.5000 
     78 O          -1.6778  -25.4854  -49.2571 O.2       13 UNK        -0.5000 
     79 N          -0.7370  -23.4237  -49.3687 N.am      14 UNK        -0.5000 
     80 CA         -0.4005  -23.4354  -50.7960 C.3       14 UNK         0.1400 
     81 CB          0.4415  -22.1966  -51.1361 C.3       14 UNK        -0.1800 
     82 C          -1.6450  -23.5038  -51.6987 C.2       14 UNK         0.5000 
     83 O          -1.6222  -24.1782  -52.7276 O.2       14 UNK        -0.5000 
     84 N          -2.7204  -22.8314  -51.2717 N.am      15 UNK        -0.5000 
     85 CA         -4.0322  -22.8475  -51.9100 C.3       15 UNK         0.1400 
     86 CB         -4.8442  -21.6553  -51.3887 C.3       15 UNK        -0.1800 
     87 C          -4.8202  -24.1447  -51.6765 C.2       15 UNK         0.5000 
     88 O          -5.8672  -24.3053  -52.3016 O.2       15 UNK        -0.5000 
     89 N          -4.3538  -25.0151  -50.7693 N.am      16 UNK        -0.5000 
     90 CA         -4.9960  -26.2599  -50.3383 C.3       16 UNK         0.1400 
     91 CB         -4.9306  -27.3124  -51.4644 C.3       16 UNK        -0.1800 
     92 C          -6.4254  -26.0206  -49.8061 C.2       16 UNK         0.5000 
     93 O          -7.3602  -26.7179  -50.2027 O.2       16 UNK        -0.5000 
     94 N          -6.5596  -24.9992  -48.9455 N.am      17 UNK        -0.5000 
     95 CA         -7.8096  -24.4749  -48.3857 C.3       17 UNK         0.1400 
     96 CB         -8.5043  -25.5202  -47.4871 C.3       17 UNK        -0.1800 
     97 C          -8.7350  -23.8817  -49.4712 C.2       17 UNK         0.5000 
     98 O          -9.9232  -24.2037  -49.5245 O.2       17 UNK        -0.5000 
     99 N          -8.1536  -23.0080  -50.3077 N.am      18 UNK        -0.5000 
    100 CA        -8.7961  -22.2289  -51.3761 C.3       18 UNK         0.1400 
    101 CB        -9.8620  -21.2723  -50.8000 C.3       18 UNK        -0.1800 
    102 C         -9.3205  -23.0758  -52.5563 C.2       18 UNK         0.5000 
    103 O        -10.2681  -22.6676  -53.2300 O.2       18 UNK        -0.5000 
    104 N         -8.6795  -24.2223  -52.8096 N.am      19 UNK        -0.5000 
    105 CA        -8.9721  -25.1111  -53.9339 C.3       19 UNK         0.1400 
    106 CB        -8.7709  -26.5650  -53.4809 C.3       19 UNK        -0.1800 
    107 C         -8.0844  -24.8056  -55.1551 C.2       19 UNK         0.5000 
    108 O         -8.5481  -24.9384  -56.2881 O.2       19 UNK        -0.5000 
    109 N         -6.8296  -24.4099  -54.9044 N.am      20 UNK        -0.5000 
    110 CA        -5.7814  -24.1928  -55.9056 C.3       20 UNK         0.1400 
    111 CB        -4.5856  -25.0966  -55.5549 C.3       20 UNK        -0.1800 
    112 C         -5.3472  -22.7165  -56.0004 C.2       20 UNK         0.5000 
    113 O         -4.3156  -22.4322  -56.6149 O.2       20 UNK        -0.5000 
    114 N         -6.1138  -21.8078  -55.3765 N.am      21 UNK        -0.5000 
    115 CA        -5.9391  -20.3476  -55.2819 C.3       21 UNK         0.1400 
    116 CB        -5.9685  -19.6802  -56.6705 C.3       21 UNK        -0.1800 
    117 C         -4.7010  -19.9135  -54.4711 C.2       21 UNK         0.5000 
    118 O         -4.8495  -19.1725  -53.5013 O.2       21 UNK        -0.5000 
    119 N         -3.5322  -20.4219  -54.8671 N.am      22 UNK        -0.5000 
    120 CA        -2.2285  -20.4050  -54.1859 C.3       22 UNK         0.1400 
    121 C         -1.1384  -21.2116  -54.9555 C.2       22 UNK         0.5000 
    122 N         -1.4743  -22.0239  -55.9545 N.am      22 UNK        -0.7600 
    123 O          0.0426  -21.1206  -54.6339 O.2       22 UNK        -0.5000 
    124 C124       -1.7457  -19.0107  -53.7015 C.3       23 UNK        -0.0398 
    125 S125       -1.5520  -17.7538  -55.0134 S.3       23 UNK        -0.2404 
    126 C126        0.0197  -16.9582  -54.5118 C.3       23 UNK        -0.0205 
    127 H127        7.2731  -18.9247  -45.6093 H         1 UNK         0.0600 
    128 H128        6.8966  -18.9944  -47.3339 H         1 UNK         0.0600 
    129 H129        5.8077  -19.7420  -46.1620 H         1 UNK         0.0600 
    130 H130        6.1606  -17.0336  -48.0859 H         1 UNK         0.3000 
    131 H131        4.0078  -15.5810  -46.8141 H         1 UNK         0.0600 
    132 H132        4.3351  -14.0255  -48.8097 H         1 UNK         0.0800 
    133 H133        5.5847  -15.0985  -49.3858 H         1 UNK         0.0800 
    134 H134        3.4103  -14.7465  -51.5403 H         1 UNK         0.0800 
    135 H135        2.5466  -13.9489  -50.2497 H         1 UNK         0.0800 
    136 H136        2.1851  -16.1174  -53.1384 H         1 UNK         0.1150 
    137 H137       -2.0905  -16.3250  -52.7703 H         1 UNK         0.1150 
    138 H138        0.2534  -14.7543  -49.5654 H         1 UNK         0.1150 
    139 H139       -2.1485  -14.6825  -49.4267 H         1 UNK         0.0800 
    140 H140       -3.0628  -14.8428  -50.9046 H         1 UNK         0.0800 
    141 H141       -2.3808  -17.2695  -47.4172 H         1 UNK         0.0800 
    142 H142       -1.0394  -16.6643  -48.3364 H         1 UNK         0.0800 
    143 H143       -0.7199  -18.8706  -49.4322 H         1 UNK         0.0600 
    144 H144       -0.1594  -18.3327  -46.7411 H         1 UNK         0.3000 
    145 H145        1.5292  -21.3690  -45.8609 H         1 UNK         0.0600 
    146 H146        3.2222  -19.6693  -45.2422 H         1 UNK         0.0600 
    147 H147        3.1661  -19.8634  -46.9876 H         1 UNK         0.0600 
    148 H148        2.4172  -18.4609  -46.2387 H         1 UNK         0.0600 
    149 H149        0.9468  -19.1047  -44.2834 H         1 UNK         0.3000 
    150 H150       -2.2906  -20.1826  -43.0969 H         1 UNK         0.0600 
    151 H151       -0.5353  -21.2440  -41.6947 H         1 UNK         0.0600 
    152 H152       -1.0848  -19.7389  -40.9725 H         1 UNK         0.0600 
    153 H153        0.4637  -19.8023  -41.8104 H         1 UNK         0.0600 
    154 H154       -0.8525  -17.7898  -42.5889 H         1 UNK         0.3000 
    155 H155       -2.2166  -15.8539  -45.2940 H         1 UNK         0.0600 
    156 H156       -2.5340  -15.7731  -42.2467 H         1 UNK         0.0600 
    157 H157       -3.8370  -15.7293  -43.4247 H         1 UNK         0.0600 
    158 H158       -2.6972  -14.3944  -43.3318 H         1 UNK         0.0600 
    159 H159       -0.2879  -15.1976  -43.3045 H         1 UNK         0.3000 
    160 H160        2.6166  -16.3064  -45.0601 H         1 UNK         0.0600 
    161 H161        3.1644  -13.8753  -44.5375 H         1 UNK         0.0600 
    162 H162        1.4443  -13.5214  -44.5321 H         1 UNK         0.0600 
    163 H163        2.2132  -14.0895  -45.9990 H         1 UNK         0.0600 
    164 H164        2.1230  -15.0487  -42.5130 H         1 UNK         0.3000 
    165 H165        1.8350  -18.0809  -40.6626 H         1 UNK         0.0600 
    166 H166        3.7686  -17.2899  -39.4069 H         1 UNK         0.0600 
    167 H167        4.3225  -17.8548  -40.9783 H         1 UNK         0.0600 
    168 H168        4.1783  -16.1307  -40.6644 H         1 UNK         0.0600 
    169 H169        2.0306  -15.2736  -39.9660 H         1 UNK         0.3000 
    170 H170       -1.4368  -14.5788  -40.2970 H         1 UNK         0.0600 
    171 H171       -1.3934  -15.7757  -38.1002 H         1 UNK         0.0600 
    172 H172        0.1434  -15.0141  -37.7053 H         1 UNK         0.0600 
    173 H173       -1.3134  -14.0347  -37.8819 H         1 UNK         0.0600 
    174 H174        0.6790  -13.0712  -39.1508 H         1 UNK         0.3000 
    175 H175        1.3179  -11.2144  -42.0732 H         1 UNK         0.0600 
    176 H176        1.6561  -11.2830  -39.0262 H         1 UNK         0.0600 
    177 H177        1.8358   -9.8938  -40.0879 H         1 UNK         0.0600 
    178 H178        0.2555  -10.6213  -39.8662 H         1 UNK         0.0600 
    179 H179        3.5169  -11.5063  -41.9565 H         1 UNK         0.3000 
    180 H180        5.5227  -11.7237  -40.2634 H         1 UNK         0.0600 
    181 H181        5.9376  -14.7496  -40.0946 H         1 UNK         0.0600 
    182 H182        5.8028  -13.6501  -38.7305 H         1 UNK         0.0600 
    183 H183        7.1603  -13.5119  -39.8336 H         1 UNK         0.0600 
    184 H184        6.2605  -11.9079  -42.3293 H         1 UNK         0.3000 
    185 H185        6.1476  -12.5464  -44.6104 H         1 UNK         0.0600 
    186 H186        8.3117  -13.0919  -43.4341 H         1 UNK         0.0600 
    187 H187        8.0933  -14.7976  -43.8088 H         1 UNK         0.0600 
    188 H188        8.3622  -13.6322  -45.1035 H         1 UNK         0.0600 
    189 H189        5.3350  -15.3231  -44.7800 H         1 UNK         0.3000 
    190 H190       -2.7882  -19.5763  -46.5465 H         1 UNK         0.3000 
    191 H191       -4.8362  -20.9317  -47.9184 H         1 UNK         0.0600 
    192 H192       -3.9044  -21.2115  -45.0134 H         1 UNK         0.0600 
    193 H193       -5.4529  -21.7651  -45.6417 H         1 UNK         0.0600 
    194 H194       -5.0788  -20.0478  -45.6220 H         1 UNK         0.0600 
    195 H195       -1.8422  -22.2358  -46.4535 H         1 UNK         0.3000 
    196 H196       -2.3763  -24.9887  -46.9305 H         1 UNK         0.0600 
    197 H197        0.0761  -25.2530  -46.5129 H         1 UNK         0.0600 
    198 H198       -0.6808  -24.2251  -45.3055 H         1 UNK         0.0600 
    199 H199        0.2848  -23.5074  -46.5921 H         1 UNK         0.0600 
    200 H200       -0.4820  -22.5834  -48.8539 H         1 UNK         0.3000 
    201 H201        0.2025  -24.3245  -50.9910 H         1 UNK         0.0600 
    202 H202        1.3575  -22.1681  -50.5458 H         1 UNK         0.0600 
    203 H203       -0.1070  -21.2726  -50.9477 H         1 UNK         0.0600 
    204 H204        0.7328  -22.1989  -52.1868 H         1 UNK         0.0600 
    205 H205       -2.6280  -22.2354  -50.4523 H         1 UNK         0.3000 
    206 H206       -3.9003  -22.7382  -52.9876 H         1 UNK         0.0600 
    207 H207       -4.2858  -20.7250  -51.4827 H         1 UNK         0.0600 
    208 H208       -5.7630  -21.5332  -51.9594 H         1 UNK         0.0600 
    209 H209       -5.1106  -21.7731  -50.3381 H         1 UNK         0.0600 
    210 H210       -3.4905  -24.7876  -50.2916 H         1 UNK         0.3000 
    211 H211       -4.4125  -26.6358  -49.4967 H         1 UNK         0.0600 
    212 H212       -5.3361  -28.2685  -51.1318 H         1 UNK         0.0600 
    213 H213       -3.9009  -27.4876  -51.7759 H         1 UNK         0.0600 
    214 H214       -5.4956  -27.0038  -52.3438 H         1 UNK         0.0600 
    215 H215       -5.7197  -24.4824  -48.6907 H         1 UNK         0.3000 
    216 H216       -7.5236  -23.6399  -47.7443 H         1 UNK         0.0600 
    217 H217       -9.3572  -25.0805  -46.9689 H         1 UNK         0.0600 
    218 H218       -7.8230  -25.8996  -46.7256 H         1 UNK         0.0600 
    219 H219       -8.8760  -26.3706  -48.0590 H         1 UNK         0.0600 
    220 H220       -7.1631  -22.8527  -50.1950 H         1 UNK         0.3000 
    221 H221       -8.0145  -21.6012  -51.8017 H         1 UNK         0.0600 
    222 H222      -10.7324  -21.8113  -50.4252 H         1 UNK         0.0600 
    223 H223       -9.4570  -20.6770  -49.9816 H         1 UNK         0.0600 
    224 H224      -10.2148  -20.5749  -51.5606 H         1 UNK         0.0600 
    225 H225       -7.8696  -24.4583  -52.2461 H         1 UNK         0.3000 
    226 H226      -10.0146  -24.9963  -54.2383 H         1 UNK         0.0600 
    227 H227       -9.4240  -26.8094  -52.6429 H         1 UNK         0.0600 
    228 H228       -8.9988  -27.2626  -54.2877 H         1 UNK         0.0600 
    229 H229       -7.7437  -26.7494  -53.1653 H         1 UNK         0.0600 
    230 H230       -6.5301  -24.3466  -53.9321 H         1 UNK         0.3000 
    231 H231       -6.1388  -24.4767  -56.8971 H         1 UNK         0.0600 
    232 H232       -4.8900  -26.1406  -55.4794 H         1 UNK         0.0600 
    233 H233       -4.1284  -24.8135  -54.6063 H         1 UNK         0.0600 
    234 H234       -3.8108  -25.0421  -56.3205 H         1 UNK         0.0600 
    235 H235       -6.9245  -22.1710  -54.8965 H         1 UNK         0.3000 
    236 H236       -6.8106  -19.9853  -54.7341 H         1 UNK         0.0600 
    237 H237       -5.1257  -19.9825  -57.2924 H         1 UNK         0.0600 
    238 H238       -6.8849  -19.9280  -57.2060 H         1 UNK         0.0600 
    239 H239       -5.9292  -18.5941  -56.5785 H         1 UNK         0.0600 
    240 H240       -3.5734  -21.0170  -55.6875 H         1 UNK         0.3000 
    241 H241       -2.3755  -20.9848  -53.2779 H         1 UNK         0.0600 
    242 H242       -2.4327  -22.1880  -56.2396 H         1 UNK         0.3800 
    243 H243       -0.7385  -22.5302  -56.4208 H         1 UNK         0.3800 
    244 H244       -0.8041  -19.1161  -53.1601 H         1 UNK         0.0800 
    245 H245       -2.4406  -18.6214  -52.9582 H         1 UNK         0.0800 
    246 H246        0.8127  -17.7047  -54.5800 H         1 UNK         0.0800 
    247 H247        0.2598  -16.1865  -55.2441 H         1 UNK         0.0800 
@<TRIPOS>BOND
     1    1    2 1    
     2    1  127 1    
     3    1  128 1    
     4    1  129 1    
     5    2    3 2    
     6    2    4 am   BACKBONE|DICT|INTERRES
     7    4    5 1    
     8    4  130 1    
     9    5    6 1    
    10    5   65 1    
    11    5  131 1    
    12    6    7 1    
    13    6  132 1    
    14    6  133 1    
    15    7    8 1    
    16    8    9 1    
    17    8  134 1    
    18    8  135 1    
    19    9   10 ar   
    20    9   14 ar   
    21   10   11 ar   
    22   10  136 1    
    23   11   12 ar   
    24   11  126 1    
    25   12   13 ar   
    26   12  137 1    
    27   13   14 ar   
    28   13   15 1    
    29   14  138 1    
    30   15   16 1    
    31   15  139 1    
    32   15  140 1    
    33   16   17 1    
    34   17   18 1    
    35   17  141 1    
    36   17  142 1    
    37   18   19 1    
    38   18   67 1    
    39   18  143 1    
    40   19   20 am   BACKBONE|DICT|INTERRES
    41   19  144 1    
    42   20   21 2    
    43   20   22 1    
    44   22   23 1    
    45   22   24 1    
    46   22  145 1    
    47   23  146 1    
    48   23  147 1    
    49   23  148 1    
    50   24   25 am   BACKBONE|DICT|INTERRES
    51   24  149 1    
    52   25   26 2    
    53   25   27 1    
    54   27   28 1    
    55   27   29 1    
    56   27  150 1    
    57   28  151 1    
    58   28  152 1    
    59   28  153 1    
    60   29   30 am   BACKBONE|DICT|INTERRES
    61   29  154 1    
    62   30   31 2    
    63   30   32 1    
    64   32   33 1    
    65   32   34 1    
    66   32  155 1    
    67   33  156 1    
    68   33  157 1    
    69   33  158 1    
    70   34   35 am   BACKBONE|DICT|INTERRES
    71   34  159 1    
    72   35   36 2    
    73   35   37 1    
    74   37   38 1    
    75   37   39 1    
    76   37  160 1    
    77   38  161 1    
    78   38  162 1    
    79   38  163 1    
    80   39   40 am   BACKBONE|DICT|INTERRES
    81   39  164 1    
    82   40   41 2    
    83   40   42 1    
    84   42   43 1    
    85   42   44 1    
    86   42  165 1    
    87   43  166 1    
    88   43  167 1    
    89   43  168 1    
    90   44   45 am   BACKBONE|DICT|INTERRES
    91   44  169 1    
    92   45   46 2    
    93   45   47 1    
    94   47   48 1    
    95   47   49 1    
    96   47  170 1    
    97   48  171 1    
    98   48  172 1    
    99   48  173 1    
   100   49   50 am   BACKBONE|DICT|INTERRES
   101   49  174 1    
   102   50   51 2    
   103   50   52 1    
   104   52   53 1    
   105   52   54 1    
   106   52  175 1    
   107   53  176 1    
   108   53  177 1    
   109   53  178 1    
   110   54   55 am   BACKBONE|DICT|INTERRES
   111   54  179 1    
   112   55   56 2    
   113   55   57 1    
   114   57   58 1    
   115   57   59 1    
   116   57  180 1    
   117   58  181 1    
   118   58  182 1    
   119   58  183 1    
   120   59   60 am   BACKBONE|DICT|INTERRES
   121   59  184 1    
   122   60   61 2    
   123   60   62 1    
   124   62   63 1    
   125   62   64 1    
   126   62  185 1    
   127   63  186 1    
   128   63  187 1    
   129   63  188 1    
   130   64   65 am   BACKBONE|DICT|INTERRES
   131   64  189 1    
   132   65   66 2    
   133   67   68 2    
   134   67   69 am   BACKBONE|DICT|INTERRES
   135   69   70 1    
   136   69  190 1    
   137   70   71 1    
   138   70   72 1    
   139   70  191 1    
   140   71  192 1    
   141   71  193 1    
   142   71  194 1    
   143   72   73 2    
   144   72   74 am   BACKBONE|DICT|INTERRES
   145   74   75 1    
   146   74  195 1    
   147   75   76 1    
   148   75   77 1    
   149   75  196 1    
   150   76  197 1    
   151   76  198 1    
   152   76  199 1    
   153   77   78 2    
   154   77   79 am   BACKBONE|DICT|INTERRES
   155   79   80 1    
   156   79  200 1    
   157   80   81 1    
   158   80   82 1    
   159   80  201 1    
   160   81  202 1    
   161   81  203 1    
   162   81  204 1    
   163   82   83 2    
   164   82   84 am   BACKBONE|DICT|INTERRES
   165   84   85 1    
   166   84  205 1    
   167   85   86 1    
   168   85   87 1    
   169   85  206 1    
   170   86  207 1    
   171   86  208 1    
   172   86  209 1    
   173   87   88 2    
   174   87   89 am   BACKBONE|DICT|INTERRES
   175   89   90 1    
   176   89  210 1    
   177   90   91 1    
   178   90   92 1    
   179   90  211 1    
   180   91  212 1    
   181   91  213 1    
   182   91  214 1    
   183   92   93 2    
   184   92   94 am   BACKBONE|DICT|INTERRES
   185   94   95 1    
   186   94  215 1    
   187   95   96 1    
   188   95   97 1    
   189   95  216 1    
   190   96  217 1    
   191   96  218 1    
   192   96  219 1    
   193   97   98 2    
   194   97   99 am   BACKBONE|DICT|INTERRES
   195   99  100 1    
   196   99  220 1    
   197  100  101 1    
   198  100  102 1    
   199  100  221 1    
   200  101  222 1    
   201  101  223 1    
   202  101  224 1    
   203  102  103 2    
   204  102  104 am   BACKBONE|DICT|INTERRES
   205  104  105 1    
   206  104  225 1    
   207  105  106 1    
   208  105  107 1    
   209  105  226 1    
   210  106  227 1    
   211  106  228 1    
   212  106  229 1    
   213  107  108 2    
   214  107  109 am   BACKBONE|DICT|INTERRES
   215  109  110 1    
   216  109  230 1    
   217  110  111 1    
   218  110  112 1    
   219  110  231 1    
   220  111  232 1    
   221  111  233 1    
   222  111  234 1    
   223  112  113 2    
   224  112  114 am   BACKBONE|DICT|INTERRES
   225  114  115 1    
   226  114  235 1    
   227  115  116 1    
   228  115  117 1    
   229  115  236 1    
   230  116  237 1    
   231  116  238 1    
   232  116  239 1    
   233  117  118 2    
   234  117  119 am   BACKBONE|DICT|INTERRES
   235  119  120 1    
   236  119  240 1    
   237  120  121 1    
   238  120  124 1    
   239  120  241 1    
   240  121  122 am   BACKBONE|DICT|INTERRES
   241  121  123 2    
   242  122  242 1    
   243  122  243 1    
   244  124  125 1    
   245  124  244 1    
   246  124  245 1    
   247  125  126 1    
   248  126  246 1    
   249  126  247 1    
@<TRIPOS>SUBSTRUCTURE
     1 UNK         1 GROUP             0       ****    0 ROOT    
