@<TRIPOS>MOLECULE
3R540
247   249    1
SMALL
USER_CHARGES


@<TRIPOS>ATOM
      1 CA         -2.3150  -14.0626  -41.9670 C.3       0 UNK        -0.1800 
      2 C          -3.0592  -13.7468  -43.2569 C.2       0 UNK         0.5000 
      3 O          -4.1599  -13.1973  -43.2162 O.2       0 UNK        -0.5000 
      4 N          -2.4586  -14.0943  -44.3991 N.am      1 UNK        -0.5000 
      5 CA         -2.9594  -13.8086  -45.7479 C.3       1 UNK         0.1400 
      6 C6         -2.3239  -14.7983  -46.7494 C.3       23 UNK        -0.0398 
      7 S7         -3.1418  -14.9265  -48.3742 S.3       23 UNK        -0.2404 
      8 C8         -2.8227  -16.6762  -48.7896 C.3       23 UNK        -0.0205 
      9 C9         -1.3657  -16.9547  -49.1371 C.ar      23 UNK        -0.0193 
     10 C10        -0.9778  -17.1469  -50.4654 C.ar      23 UNK        -0.1150 
     11 C11         0.3480  -17.4637  -50.7795 C.ar      23 UNK        -0.0193 
     12 C12         1.2970  -17.5558  -49.7553 C.ar      23 UNK        -0.1150 
     13 C13         0.9206  -17.3725  -48.4234 C.ar      23 UNK        -0.0193 
     14 C14        -0.4102  -17.0771  -48.1251 C.ar      23 UNK        -0.1150 
     15 C15         1.9424  -17.4959  -47.3019 C.3       23 UNK        -0.0205 
     16 S16         2.1856  -19.2215  -46.7722 S.3       23 UNK        -0.2404 
     17 C17         0.5323  -19.6594  -46.1305 C.3       23 UNK        -0.0398 
     18 CA         -0.2019  -20.6179  -47.0960 C.3       11 UNK         0.1400 
     19 N           0.4575  -21.9244  -47.1537 N.am      11 UNK        -0.5000 
     20 C           0.2292  -22.8628  -48.0789 C.2       10 UNK         0.5000 
     21 O          -0.5734  -22.7347  -49.0004 O.2       10 UNK        -0.5000 
     22 CA          1.0073  -24.1810  -47.9233 C.3       10 UNK         0.1400 
     23 CB          2.3778  -24.0847  -48.6102 C.3       10 UNK        -0.1800 
     24 N           1.1838  -24.5660  -46.5207 N.am      10 UNK        -0.5000 
     25 C           0.1832  -24.9820  -45.7315 C.2       9 UNK         0.5000 
     26 O          -0.9842  -25.0927  -46.1096 O.2       9 UNK        -0.5000 
     27 CA          0.5423  -25.2726  -44.2603 C.3       9 UNK         0.1400 
     28 CB          1.2791  -26.6148  -44.1327 C.3       9 UNK        -0.1800 
     29 N           1.3343  -24.2137  -43.6193 N.am      9 UNK        -0.5000 
     30 C           0.9320  -22.9423  -43.4993 C.2       8 UNK         0.5000 
     31 O          -0.1177  -22.5182  -43.9890 O.2       8 UNK        -0.5000 
     32 CA          1.8378  -21.9700  -42.7260 C.3       8 UNK         0.1400 
     33 CB          3.0991  -21.6295  -43.5431 C.3       8 UNK        -0.1800 
     34 N           1.0364  -20.7745  -42.4814 N.am      8 UNK        -0.5000 
     35 C           1.3283  -19.7045  -41.7401 C.2       7 UNK         0.5000 
     36 O           2.3657  -19.5689  -41.0872 O.2       7 UNK        -0.5000 
     37 CA          0.2333  -18.6183  -41.7002 C.3       7 UNK         0.1400 
     38 CB         -0.6745  -18.8106  -40.4757 C.3       7 UNK        -0.1800 
     39 N           0.7694  -17.2570  -41.6858 N.am      7 UNK        -0.5000 
     40 C           1.4818  -16.7065  -42.6767 C.2       6 UNK         0.5000 
     41 O           1.7718  -17.2976  -43.7191 O.2       6 UNK        -0.5000 
     42 CA          1.9488  -15.2533  -42.4474 C.3       6 UNK         0.1400 
     43 CB          3.1074  -15.2090  -41.4377 C.3       6 UNK        -0.1800 
     44 N           2.3860  -14.5978  -43.6804 N.am      6 UNK        -0.5000 
     45 C           1.5973  -14.2904  -44.7169 C.2       5 UNK         0.5000 
     46 O           0.3710  -14.4268  -44.7175 O.2       5 UNK        -0.5000 
     47 CA          2.3219  -13.6975  -45.9338 C.3       5 UNK         0.1400 
     48 CB          1.4427  -13.6207  -47.1943 C.3       5 UNK        -0.1800 
     49 N           2.8035  -12.3601  -45.5959 N.am      5 UNK        -0.5000 
     50 C           4.0094  -11.8726  -45.9196 C.2       4 UNK         0.5000 
     51 O           4.8708  -12.5395  -46.4948 O.2       4 UNK        -0.5000 
     52 CA          4.3154  -10.3995  -45.5706 C.3       4 UNK         0.1400 
     53 CB          4.8710   -9.6473  -46.7928 C.3       4 UNK        -0.1800 
     54 N           3.1331   -9.6814  -45.0924 N.am      4 UNK        -0.5000 
     55 C           2.8926   -9.3313  -43.8226 C.2       3 UNK         0.5000 
     56 O           3.6720   -9.5399  -42.8923 O.2       3 UNK        -0.5000 
     57 CA          1.5360   -8.6488  -43.5395 C.3       3 UNK         0.1400 
     58 CB          1.6983   -7.1211  -43.5238 C.3       3 UNK        -0.1800 
     59 N           0.4703   -9.0068  -44.4861 N.am      3 UNK        -0.5000 
     60 C           0.0071  -10.2490  -44.6727 C.2       2 UNK         0.5000 
     61 O           0.4534  -11.2330  -44.0755 O.2       2 UNK        -0.5000 
     62 CA         -1.0939  -10.4336  -45.7282 C.3       2 UNK         0.1400 
     63 CB         -0.5693  -10.1253  -47.1445 C.3       2 UNK        -0.1800 
     64 N          -1.5483  -11.8151  -45.6400 N.am      2 UNK        -0.5000 
     65 C          -2.6804  -12.3366  -46.1246 C.2       1 UNK         0.5000 
     66 O          -3.4977  -11.7020  -46.7927 O.2       1 UNK        -0.5000 
     67 C          -1.6973  -20.7523  -46.7438 C.2       11 UNK         0.5000 
     68 O          -2.5256  -20.0627  -47.3368 O.2       11 UNK        -0.5000 
     69 N          -2.0271  -21.6694  -45.8242 N.am      12 UNK        -0.5000 
     70 CA         -3.3954  -22.0328  -45.4619 C.3       12 UNK         0.1400 
     71 CB         -3.3789  -22.9250  -44.2121 C.3       12 UNK        -0.1800 
     72 C          -4.1380  -22.7216  -46.6189 C.2       12 UNK         0.5000 
     73 O          -5.2966  -22.3953  -46.8694 O.2       12 UNK        -0.5000 
     74 N          -3.4512  -23.6239  -47.3335 N.am      13 UNK        -0.5000 
     75 CA         -3.9625  -24.2836  -48.5370 C.3       13 UNK         0.1400 
     76 CB         -2.9937  -25.3984  -48.9500 C.3       13 UNK        -0.1800 
     77 C          -4.2060  -23.2983  -49.6970 C.2       13 UNK         0.5000 
     78 O          -5.2185  -23.4118  -50.3926 O.2       13 UNK        -0.5000 
     79 N          -3.3006  -22.3242  -49.8582 N.am      14 UNK        -0.5000 
     80 CA         -3.4264  -21.2210  -50.8075 C.3       14 UNK         0.1400 
     81 CB         -2.0985  -20.4572  -50.8984 C.3       14 UNK        -0.1800 
     82 C          -4.5914  -20.2736  -50.4623 C.2       14 UNK         0.5000 
     83 O          -5.2982  -19.8369  -51.3693 O.2       14 UNK        -0.5000 
     84 N          -4.8005  -19.9992  -49.1671 N.am      15 UNK        -0.5000 
     85 CA         -5.9283  -19.2129  -48.6656 C.3       15 UNK         0.1400 
     86 CB         -5.7203  -18.8792  -47.1777 C.3       15 UNK        -0.1800 
     87 C          -7.2792  -19.9257  -48.8581 C.2       15 UNK         0.5000 
     88 O          -8.2245  -19.3157  -49.3591 O.2       15 UNK        -0.5000 
     89 N          -7.3517  -21.1902  -48.4230 N.am      16 UNK        -0.5000 
     90 CA         -8.5916  -21.9573  -48.3394 C.3       16 UNK         0.1400 
     91 CB         -8.4069  -23.1146  -47.3452 C.3       16 UNK        -0.1800 
     92 C          -9.0826  -22.4944  -49.6920 C.2       16 UNK         0.5000 
     93 O         -10.2833  -22.4266  -49.9600 O.2       16 UNK        -0.5000 
     94 N          -8.1679  -23.0551  -50.4934 N.am      17 UNK        -0.5000 
     95 CA         -8.5076  -23.8555  -51.6731 C.3       17 UNK         0.1400 
     96 CB         -8.1601  -25.3234  -51.3661 C.3       17 UNK        -0.1800 
     97 C          -7.8007  -23.3942  -52.9574 C.2       17 UNK         0.5000 
     98 O          -8.0733  -23.9659  -54.0140 O.2       17 UNK        -0.5000 
     99 N          -6.8920  -22.4104  -52.8567 N.am      18 UNK        -0.5000 
    100 CA        -5.9570  -21.9834  -53.9092 C.3       18 UNK         0.1400 
    101 CB        -6.7018  -21.3223  -55.0880 C.3       18 UNK        -0.1800 
    102 C         -5.0115  -23.1257  -54.3447 C.2       18 UNK         0.5000 
    103 O         -4.6550  -23.2256  -55.5198 O.2       18 UNK        -0.5000 
    104 N         -4.6462  -23.9766  -53.3788 N.am      19 UNK        -0.5000 
    105 CA        -3.8624  -25.1921  -53.5666 C.3       19 UNK         0.1400 
    106 CB        -4.5746  -26.3247  -52.8027 C.3       19 UNK        -0.1800 
    107 C         -2.4056  -24.9971  -53.1041 C.2       19 UNK         0.5000 
    108 O         -1.9819  -23.8729  -52.8208 O.2       19 UNK        -0.5000 
    109 N         -1.6607  -26.1090  -53.0499 N.am      20 UNK        -0.5000 
    110 CA        -0.2557  -26.2104  -52.6524 C.3       20 UNK         0.1400 
    111 CB        -0.0875  -25.9005  -51.1476 C.3       20 UNK        -0.1800 
    112 C          0.6720  -25.3981  -53.5802 C.2       20 UNK         0.5000 
    113 O          0.6018  -25.5678  -54.7991 O.2       20 UNK        -0.5000 
    114 N          1.5471  -24.5724  -52.9950 N.am      21 UNK        -0.5000 
    115 CA         2.6086  -23.8469  -53.6890 C.3       21 UNK         0.1400 
    116 CB         3.6156  -23.3395  -52.6441 C.3       21 UNK        -0.1800 
    117 C          2.1206  -22.6771  -54.5624 C.2       21 UNK         0.5000 
    118 O          2.8162  -22.3218  -55.5157 O.2       21 UNK        -0.5000 
    119 N          0.9777  -22.0721  -54.2152 N.am      22 UNK        -0.5000 
    120 CA         0.5388  -20.7907  -54.7947 C.3       22 UNK         0.1400 
    121 C         -0.9924  -20.5256  -54.7607 C.2       22 UNK         0.5000 
    122 N         -1.8355  -21.4189  -54.2626 N.am      22 UNK        -0.7600 
    123 O         -1.4418  -19.4856  -55.2344 O.2       22 UNK        -0.5000 
    124 C124        1.3704  -19.5936  -54.2519 C.3       23 UNK        -0.0398 
    125 S125        1.3070  -19.4506  -52.4320 S.3       23 UNK        -0.2404 
    126 C126        0.7494  -17.7320  -52.2211 C.3       23 UNK        -0.0205 
    127 H127       -1.4066  -14.6350  -42.1562 H         1 UNK         0.0600 
    128 H128       -2.9492  -14.6450  -41.2987 H         1 UNK         0.0600 
    129 H129       -2.0365  -13.1393  -41.4591 H         1 UNK         0.0600 
    130 H130       -1.5156  -14.4747  -44.3655 H         1 UNK         0.3000 
    131 H131       -4.0410  -13.9603  -45.7526 H         1 UNK         0.0600 
    132 H132       -2.3619  -15.7889  -46.2961 H         1 UNK         0.0800 
    133 H133       -1.2692  -14.5743  -46.9050 H         1 UNK         0.0800 
    134 H134       -3.1098  -17.3115  -47.9541 H         1 UNK         0.0800 
    135 H135       -3.4691  -16.9632  -49.6203 H         1 UNK         0.0800 
    136 H136       -1.7150  -17.0766  -51.2527 H         1 UNK         0.1150 
    137 H137        2.3224  -17.8006  -49.9942 H         1 UNK         0.1150 
    138 H138       -0.6989  -16.9537  -47.0943 H         1 UNK         0.1150 
    139 H139        2.8992  -17.0888  -47.6316 H         1 UNK         0.0800 
    140 H140        1.6387  -16.8981  -46.4416 H         1 UNK         0.0800 
    141 H141       -0.0423  -18.7529  -45.9452 H         1 UNK         0.0800 
    142 H142        0.6577  -20.1222  -45.1530 H         1 UNK         0.0800 
    143 H143       -0.1598  -20.1841  -48.0979 H         1 UNK         0.0600 
    144 H144        1.1213  -22.1238  -46.4219 H         1 UNK         0.3000 
    145 H145        0.4328  -24.9652  -48.4197 H         1 UNK         0.0600 
    146 H146        2.9017  -25.0402  -48.5805 H         1 UNK         0.0600 
    147 H147        2.2692  -23.8068  -49.6593 H         1 UNK         0.0600 
    148 H148        3.0147  -23.3360  -48.1376 H         1 UNK         0.0600 
    149 H149        2.1136  -24.4954  -46.1341 H         1 UNK         0.3000 
    150 H150       -0.3978  -25.3532  -43.7103 H         1 UNK         0.0600 
    151 H151        2.2564  -26.5879  -44.6161 H         1 UNK         0.0600 
    152 H152        0.7063  -27.4203  -44.5943 H         1 UNK         0.0600 
    153 H153        1.4294  -26.8838  -43.0870 H         1 UNK         0.0600 
    154 H154        2.2104  -24.4945  -43.2028 H         1 UNK         0.3000 
    155 H155        2.1131  -22.4201  -41.7706 H         1 UNK         0.0600 
    156 H156        2.8482  -21.1773  -44.5025 H         1 UNK         0.0600 
    157 H157        3.6901  -22.5230  -43.7463 H         1 UNK         0.0600 
    158 H158        3.7468  -20.9346  -43.0090 H         1 UNK         0.0600 
    159 H159        0.1348  -20.8324  -42.9411 H         1 UNK         0.3000 
    160 H160       -0.3816  -18.7140  -42.5981 H         1 UNK         0.0600 
    161 H161       -0.1207  -18.6945  -39.5431 H         1 UNK         0.0600 
    162 H162       -1.1194  -19.8066  -40.4710 H         1 UNK         0.0600 
    163 H163       -1.4934  -18.0908  -40.4732 H         1 UNK         0.0600 
    164 H164        0.6093  -16.7246  -40.8435 H         1 UNK         0.3000 
    165 H165        1.1093  -14.6840  -42.0436 H         1 UNK         0.0600 
    166 H166        3.4230  -14.1836  -41.2437 H         1 UNK         0.0600 
    167 H167        2.8154  -15.6421  -40.4803 H         1 UNK         0.0600 
    168 H168        3.9740  -15.7654  -41.7973 H         1 UNK         0.0600 
    169 H169        3.3794  -14.4477  -43.7745 H         1 UNK         0.3000 
    170 H170        3.1596  -14.3632  -46.1525 H         1 UNK         0.0600 
    171 H171        1.0903  -14.6090  -47.4855 H         1 UNK         0.0600 
    172 H172        0.5677  -12.9925  -47.0393 H         1 UNK         0.0600 
    173 H173        1.9995  -13.2153  -48.0391 H         1 UNK         0.0600 
    174 H174        2.1639  -11.7923  -45.0495 H         1 UNK         0.3000 
    175 H175        5.0899  -10.4109  -44.8013 H         1 UNK         0.0600 
    176 H176        5.1031   -8.6113  -46.5447 H         1 UNK         0.0600 
    177 H177        5.7930  -10.1050  -47.1535 H         1 UNK         0.0600 
    178 H178        4.1600   -9.6430  -47.6198 H         1 UNK         0.0600 
    179 H179        2.4314   -9.4656  -45.7854 H         1 UNK         0.3000 
    180 H180        1.2155   -8.9679  -42.5456 H         1 UNK         0.0600 
    181 H181        2.4648   -6.8164  -42.8098 H         1 UNK         0.0600 
    182 H182        0.7709   -6.6281  -43.2317 H         1 UNK         0.0600 
    183 H183        1.9904   -6.7376  -44.5022 H         1 UNK         0.0600 
    184 H184        0.0661   -8.2467  -45.0144 H         1 UNK         0.3000 
    185 H185       -1.9254   -9.7698  -45.4842 H         1 UNK         0.0600 
    186 H186       -0.3038   -9.0725  -47.2435 H         1 UNK         0.0600 
    187 H187        0.3197  -10.7083  -47.3847 H         1 UNK         0.0600 
    188 H188       -1.3212  -10.3358  -47.9049 H         1 UNK         0.0600 
    189 H189       -0.9539  -12.3927  -45.0539 H         1 UNK         0.3000 
    190 H190       -1.2859  -22.1595  -45.3281 H         1 UNK         0.3000 
    191 H191       -3.9349  -21.1155  -45.2179 H         1 UNK         0.0600 
    192 H192       -2.9255  -22.4080  -43.3662 H         1 UNK         0.0600 
    193 H193       -4.3911  -23.2055  -43.9183 H         1 UNK         0.0600 
    194 H194       -2.8170  -23.8445  -44.3803 H         1 UNK         0.0600 
    195 H195       -2.5120  -23.8678  -47.0409 H         1 UNK         0.3000 
    196 H196       -4.9222  -24.7414  -48.2888 H         1 UNK         0.0600 
    197 H197       -3.3352  -25.9119  -49.8476 H         1 UNK         0.0600 
    198 H198       -2.8959  -26.1467  -48.1634 H         1 UNK         0.0600 
    199 H199       -2.0011  -25.0017  -49.1549 H         1 UNK         0.0600 
    200 H200       -2.4455  -22.3537  -49.3107 H         1 UNK         0.3000 
    201 H201       -3.6249  -21.6546  -51.7883 H         1 UNK         0.0600 
    202 H202       -1.2843  -21.1178  -51.1974 H         1 UNK         0.0600 
    203 H203       -1.8258  -20.0006  -49.9474 H         1 UNK         0.0600 
    204 H204       -2.1562  -19.6619  -51.6420 H         1 UNK         0.0600 
    205 H205       -4.1316  -20.3341  -48.4808 H         1 UNK         0.3000 
    206 H206       -5.9582  -18.2738  -49.2222 H         1 UNK         0.0600 
    207 H207       -4.7925  -18.3395  -47.0068 H         1 UNK         0.0600 
    208 H208       -6.5305  -18.2515  -46.8047 H         1 UNK         0.0600 
    209 H209       -5.6934  -19.7757  -46.5591 H         1 UNK         0.0600 
    210 H210       -6.5316  -21.6080  -47.9874 H         1 UNK         0.3000 
    211 H211       -9.3706  -21.3028  -47.9420 H         1 UNK         0.0600 
    212 H212       -7.6209  -23.7997  -47.6658 H         1 UNK         0.0600 
    213 H213       -9.3257  -23.6932  -47.2413 H         1 UNK         0.0600 
    214 H214       -8.1424  -22.7440  -46.3546 H         1 UNK         0.0600 
    215 H215       -7.1936  -23.0713  -50.2078 H         1 UNK         0.3000 
    216 H216       -9.5769  -23.8019  -51.8864 H         1 UNK         0.0600 
    217 H217       -8.4033  -25.9741  -52.2070 H         1 UNK         0.0600 
    218 H218       -8.7193  -25.6877  -50.5043 H         1 UNK         0.0600 
    219 H219       -7.0980  -25.4464  -51.1511 H         1 UNK         0.0600 
    220 H220       -6.7467  -21.9928  -51.9480 H         1 UNK         0.3000 
    221 H221       -5.3148  -21.2206  -53.4745 H         1 UNK         0.0600 
    222 H222       -7.3046  -22.0390  -55.6459 H         1 UNK         0.0600 
    223 H223       -7.3610  -20.5271  -54.7399 H         1 UNK         0.0600 
    224 H224       -5.9980  -20.8743  -55.7903 H         1 UNK         0.0600 
    225 H225       -4.9375  -23.7828  -52.4272 H         1 UNK         0.3000 
    226 H226       -3.8315  -25.4614  -54.6242 H         1 UNK         0.0600 
    227 H227       -4.0778  -27.2857  -52.9369 H         1 UNK         0.0600 
    228 H228       -4.6240  -26.1204  -51.7338 H         1 UNK         0.0600 
    229 H229       -5.5978  -26.4471  -53.1592 H         1 UNK         0.0600 
    230 H230       -2.0835  -26.9771  -53.3457 H         1 UNK         0.3000 
    231 H231        0.0244  -27.2546  -52.7985 H         1 UNK         0.0600 
    232 H232       -0.3333  -24.8642  -50.9125 H         1 UNK         0.0600 
    233 H233        0.9336  -26.0886  -50.8138 H         1 UNK         0.0600 
    234 H234       -0.7347  -26.5407  -50.5488 H         1 UNK         0.0600 
    235 H235        1.5196  -24.4795  -51.9909 H         1 UNK         0.3000 
    236 H236        3.1259  -24.5504  -54.3449 H         1 UNK         0.0600 
    237 H237        4.0330  -24.1620  -52.0630 H         1 UNK         0.0600 
    238 H238        4.4504  -22.8256  -53.1228 H         1 UNK         0.0600 
    239 H239        3.1539  -22.6359  -51.9497 H         1 UNK         0.0600 
    240 H240        0.4571  -22.4119  -53.4199 H         1 UNK         0.3000 
    241 H241        0.7421  -20.8491  -55.8657 H         1 UNK         0.0600 
    242 H242       -2.8138  -21.1994  -54.3126 H         1 UNK         0.3800 
    243 H243       -1.5549  -22.3024  -53.8511 H         1 UNK         0.3800 
    244 H244        2.4163  -19.7124  -54.5365 H         1 UNK         0.0800 
    245 H245        1.0538  -18.6590  -54.7174 H         1 UNK         0.0800 
    246 H246        1.5490  -17.0495  -52.5119 H         1 UNK         0.0800 
    247 H247       -0.0899  -17.5413  -52.8922 H         1 UNK         0.0800 
@<TRIPOS>BOND
     1    1    2 1    
     2    1  127 1    
     3    1  128 1    
     4    1  129 1    
     5    2    3 2    
     6    2    4 am   BACKBONE|DICT|INTERRES
     7    4    5 1    
     8    4  130 1    
     9    5    6 1    
    10    5   65 1    
    11    5  131 1    
    12    6    7 1    
    13    6  132 1    
    14    6  133 1    
    15    7    8 1    
    16    8    9 1    
    17    8  134 1    
    18    8  135 1    
    19    9   10 ar   
    20    9   14 ar   
    21   10   11 ar   
    22   10  136 1    
    23   11   12 ar   
    24   11  126 1    
    25   12   13 ar   
    26   12  137 1    
    27   13   14 ar   
    28   13   15 1    
    29   14  138 1    
    30   15   16 1    
    31   15  139 1    
    32   15  140 1    
    33   16   17 1    
    34   17   18 1    
    35   17  141 1    
    36   17  142 1    
    37   18   19 1    
    38   18   67 1    
    39   18  143 1    
    40   19   20 am   BACKBONE|DICT|INTERRES
    41   19  144 1    
    42   20   21 2    
    43   20   22 1    
    44   22   23 1    
    45   22   24 1    
    46   22  145 1    
    47   23  146 1    
    48   23  147 1    
    49   23  148 1    
    50   24   25 am   BACKBONE|DICT|INTERRES
    51   24  149 1    
    52   25   26 2    
    53   25   27 1    
    54   27   28 1    
    55   27   29 1    
    56   27  150 1    
    57   28  151 1    
    58   28  152 1    
    59   28  153 1    
    60   29   30 am   BACKBONE|DICT|INTERRES
    61   29  154 1    
    62   30   31 2    
    63   30   32 1    
    64   32   33 1    
    65   32   34 1    
    66   32  155 1    
    67   33  156 1    
    68   33  157 1    
    69   33  158 1    
    70   34   35 am   BACKBONE|DICT|INTERRES
    71   34  159 1    
    72   35   36 2    
    73   35   37 1    
    74   37   38 1    
    75   37   39 1    
    76   37  160 1    
    77   38  161 1    
    78   38  162 1    
    79   38  163 1    
    80   39   40 am   BACKBONE|DICT|INTERRES
    81   39  164 1    
    82   40   41 2    
    83   40   42 1    
    84   42   43 1    
    85   42   44 1    
    86   42  165 1    
    87   43  166 1    
    88   43  167 1    
    89   43  168 1    
    90   44   45 am   BACKBONE|DICT|INTERRES
    91   44  169 1    
    92   45   46 2    
    93   45   47 1    
    94   47   48 1    
    95   47   49 1    
    96   47  170 1    
    97   48  171 1    
    98   48  172 1    
    99   48  173 1    
   100   49   50 am   BACKBONE|DICT|INTERRES
   101   49  174 1    
   102   50   51 2    
   103   50   52 1    
   104   52   53 1    
   105   52   54 1    
   106   52  175 1    
   107   53  176 1    
   108   53  177 1    
   109   53  178 1    
   110   54   55 am   BACKBONE|DICT|INTERRES
   111   54  179 1    
   112   55   56 2    
   113   55   57 1    
   114   57   58 1    
   115   57   59 1    
   116   57  180 1    
   117   58  181 1    
   118   58  182 1    
   119   58  183 1    
   120   59   60 am   BACKBONE|DICT|INTERRES
   121   59  184 1    
   122   60   61 2    
   123   60   62 1    
   124   62   63 1    
   125   62   64 1    
   126   62  185 1    
   127   63  186 1    
   128   63  187 1    
   129   63  188 1    
   130   64   65 am   BACKBONE|DICT|INTERRES
   131   64  189 1    
   132   65   66 2    
   133   67   68 2    
   134   67   69 am   BACKBONE|DICT|INTERRES
   135   69   70 1    
   136   69  190 1    
   137   70   71 1    
   138   70   72 1    
   139   70  191 1    
   140   71  192 1    
   141   71  193 1    
   142   71  194 1    
   143   72   73 2    
   144   72   74 am   BACKBONE|DICT|INTERRES
   145   74   75 1    
   146   74  195 1    
   147   75   76 1    
   148   75   77 1    
   149   75  196 1    
   150   76  197 1    
   151   76  198 1    
   152   76  199 1    
   153   77   78 2    
   154   77   79 am   BACKBONE|DICT|INTERRES
   155   79   80 1    
   156   79  200 1    
   157   80   81 1    
   158   80   82 1    
   159   80  201 1    
   160   81  202 1    
   161   81  203 1    
   162   81  204 1    
   163   82   83 2    
   164   82   84 am   BACKBONE|DICT|INTERRES
   165   84   85 1    
   166   84  205 1    
   167   85   86 1    
   168   85   87 1    
   169   85  206 1    
   170   86  207 1    
   171   86  208 1    
   172   86  209 1    
   173   87   88 2    
   174   87   89 am   BACKBONE|DICT|INTERRES
   175   89   90 1    
   176   89  210 1    
   177   90   91 1    
   178   90   92 1    
   179   90  211 1    
   180   91  212 1    
   181   91  213 1    
   182   91  214 1    
   183   92   93 2    
   184   92   94 am   BACKBONE|DICT|INTERRES
   185   94   95 1    
   186   94  215 1    
   187   95   96 1    
   188   95   97 1    
   189   95  216 1    
   190   96  217 1    
   191   96  218 1    
   192   96  219 1    
   193   97   98 2    
   194   97   99 am   BACKBONE|DICT|INTERRES
   195   99  100 1    
   196   99  220 1    
   197  100  101 1    
   198  100  102 1    
   199  100  221 1    
   200  101  222 1    
   201  101  223 1    
   202  101  224 1    
   203  102  103 2    
   204  102  104 am   BACKBONE|DICT|INTERRES
   205  104  105 1    
   206  104  225 1    
   207  105  106 1    
   208  105  107 1    
   209  105  226 1    
   210  106  227 1    
   211  106  228 1    
   212  106  229 1    
   213  107  108 2    
   214  107  109 am   BACKBONE|DICT|INTERRES
   215  109  110 1    
   216  109  230 1    
   217  110  111 1    
   218  110  112 1    
   219  110  231 1    
   220  111  232 1    
   221  111  233 1    
   222  111  234 1    
   223  112  113 2    
   224  112  114 am   BACKBONE|DICT|INTERRES
   225  114  115 1    
   226  114  235 1    
   227  115  116 1    
   228  115  117 1    
   229  115  236 1    
   230  116  237 1    
   231  116  238 1    
   232  116  239 1    
   233  117  118 2    
   234  117  119 am   BACKBONE|DICT|INTERRES
   235  119  120 1    
   236  119  240 1    
   237  120  121 1    
   238  120  124 1    
   239  120  241 1    
   240  121  122 am   BACKBONE|DICT|INTERRES
   241  121  123 2    
   242  122  242 1    
   243  122  243 1    
   244  124  125 1    
   245  124  244 1    
   246  124  245 1    
   247  125  126 1    
   248  126  246 1    
   249  126  247 1    
@<TRIPOS>SUBSTRUCTURE
     1 UNK         1 GROUP             0       ****    0 ROOT    
