@<TRIPOS>MOLECULE
3R540
247   249    1
SMALL
USER_CHARGES


@<TRIPOS>ATOM
      1 CA         -2.6086  -16.0021  -44.0320 C.3       0 UNK        -0.1800 
      2 C          -3.0116  -15.9628  -45.4974 C.2       0 UNK         0.5000 
      3 O          -4.2006  -15.9953  -45.8127 O.2       0 UNK        -0.5000 
      4 N          -2.0183  -15.8873  -46.3903 N.am      1 UNK        -0.5000 
      5 CA         -2.2086  -15.7415  -47.8377 C.3       1 UNK         0.1400 
      6 C6         -0.9460  -16.1504  -48.6337 C.3       23 UNK        -0.0398 
      7 S7         -0.6373  -17.9455  -48.5590 S.3       23 UNK        -0.2404 
      8 C8          0.5091  -18.1358  -49.9577 C.3       23 UNK        -0.0205 
      9 C9          0.6676  -19.5929  -50.3595 C.ar      23 UNK        -0.0193 
     10 C10        -0.2851  -20.1931  -51.1858 C.ar      23 UNK        -0.1150 
     11 C11        -0.1448  -21.5232  -51.5909 C.ar      23 UNK        -0.0193 
     12 C12         0.9595  -22.2578  -51.1495 C.ar      23 UNK        -0.1150 
     13 C13         1.9243  -21.6703  -50.3246 C.ar      23 UNK        -0.0193 
     14 C14         1.7730  -20.3350  -49.9349 C.ar      23 UNK        -0.1150 
     15 C15         3.1418  -22.4758  -49.8841 C.3       23 UNK        -0.0205 
     16 S16         3.3370  -22.5500  -48.0740 S.3       23 UNK        -0.2404 
     17 C17         1.7344  -23.2566  -47.5618 C.3       23 UNK        -0.0398 
     18 CA          1.8290  -24.1188  -46.2756 C.3       11 UNK         0.1400 
     19 N           2.4023  -23.3620  -45.1608 N.am      11 UNK        -0.5000 
     20 C           3.0713  -23.8611  -44.1153 C.2       10 UNK         0.5000 
     21 O           3.2923  -25.0620  -43.9570 O.2       10 UNK        -0.5000 
     22 CA          3.4942  -22.8505  -43.0377 C.3       10 UNK         0.1400 
     23 CB          4.6707  -21.9845  -43.5161 C.3       10 UNK        -0.1800 
     24 N           2.3654  -21.9941  -42.6760 N.am      10 UNK        -0.5000 
     25 C           1.3940  -22.3452  -41.8212 C.2       9 UNK         0.5000 
     26 O           1.4052  -23.3874  -41.1660 O.2       9 UNK        -0.5000 
     27 CA          0.2046  -21.3777  -41.6765 C.3       9 UNK         0.1400 
     28 CB          0.4431  -20.3979  -40.5175 C.3       9 UNK        -0.1800 
     29 N          -0.0515  -20.6259  -42.9060 N.am      9 UNK        -0.5000 
     30 C          -0.6738  -21.1376  -43.9796 C.2       8 UNK         0.5000 
     31 O          -1.1613  -22.2664  -44.0083 O.2       8 UNK        -0.5000 
     32 CA         -0.7725  -20.2524  -45.2388 C.3       8 UNK         0.1400 
     33 CB         -2.1453  -19.5688  -45.2865 C.3       8 UNK        -0.1800 
     34 N           0.2705  -19.2290  -45.3342 N.am      8 UNK        -0.5000 
     35 C           1.5860  -19.4715  -45.4090 C.2       7 UNK         0.5000 
     36 O           2.0655  -20.6026  -45.4309 O.2       7 UNK        -0.5000 
     37 CA          2.5322  -18.2571  -45.3730 C.3       7 UNK         0.1400 
     38 CB          2.9277  -17.8338  -46.7940 C.3       7 UNK        -0.1800 
     39 N           2.0000  -17.0932  -44.6589 N.am      7 UNK        -0.5000 
     40 C           1.5896  -17.0617  -43.3836 C.2       6 UNK         0.5000 
     41 O           1.5523  -18.0648  -42.6698 O.2       6 UNK        -0.5000 
     42 CA          1.1353  -15.7002  -42.8075 C.3       6 UNK         0.1400 
     43 CB          1.5473  -15.5433  -41.3337 C.3       6 UNK        -0.1800 
     44 N           1.6072  -14.5243  -43.5445 N.am      6 UNK        -0.5000 
     45 C           1.1866  -14.0979  -44.7403 C.2       5 UNK         0.5000 
     46 O           0.3734  -14.7107  -45.4359 O.2       5 UNK        -0.5000 
     47 CA          1.7623  -12.7481  -45.2104 C.3       5 UNK         0.1400 
     48 CB          1.5832  -12.5307  -46.7211 C.3       5 UNK        -0.1800 
     49 N           1.1220  -11.6535  -44.4820 N.am      5 UNK        -0.5000 
     50 C           1.3942  -11.3207  -43.2110 C.2       4 UNK         0.5000 
     51 O           2.3234  -11.8110  -42.5665 O.2       4 UNK        -0.5000 
     52 CA          0.4618  -10.3011  -42.5275 C.3       4 UNK         0.1400 
     53 CB          1.0756   -8.8938  -42.5756 C.3       4 UNK        -0.1800 
     54 N          -0.8820  -10.2537  -43.1065 N.am      4 UNK        -0.5000 
     55 C          -1.7741  -11.2544  -43.1012 C.2       3 UNK         0.5000 
     56 O          -1.5840  -12.3422  -42.5565 O.2       3 UNK        -0.5000 
     57 CA         -3.0970  -11.0083  -43.8545 C.3       3 UNK         0.1400 
     58 CB         -3.5353   -9.5269  -43.8553 C.3       3 UNK        -0.1800 
     59 N          -3.0724  -11.5346  -45.2246 N.am      3 UNK        -0.5000 
     60 C          -2.2090  -11.2280  -46.2041 C.2       2 UNK         0.5000 
     61 O          -1.2281  -10.4958  -46.0619 O.2       2 UNK        -0.5000 
     62 CA         -2.4720  -11.9067  -47.5540 C.3       2 UNK         0.1400 
     63 CB         -1.6889  -11.2726  -48.7225 C.3       2 UNK        -0.1800 
     64 N          -2.1490  -13.3222  -47.4194 N.am      2 UNK        -0.5000 
     65 C          -2.6311  -14.3013  -48.1940 C.2       1 UNK         0.5000 
     66 O          -3.3921  -14.1089  -49.1420 O.2       1 UNK        -0.5000 
     67 C           0.4535  -24.7019  -45.8791 C.2       11 UNK         0.5000 
     68 O          -0.5162  -24.5535  -46.6247 O.2       11 UNK        -0.5000 
     69 N           0.3800  -25.3459  -44.7059 N.am      12 UNK        -0.5000 
     70 CA         -0.8494  -25.8198  -44.0609 C.3       12 UNK         0.1400 
     71 CB         -0.5016  -26.3593  -42.6658 C.3       12 UNK        -0.1800 
     72 C          -1.6341  -26.8727  -44.8665 C.2       12 UNK         0.5000 
     73 O          -2.8486  -26.9818  -44.6974 O.2       12 UNK        -0.5000 
     74 N          -0.9357  -27.6113  -45.7396 N.am      13 UNK        -0.5000 
     75 CA         -1.5251  -28.5632  -46.6818 C.3       13 UNK         0.1400 
     76 CB         -0.4087  -29.4394  -47.2701 C.3       13 UNK        -0.1800 
     77 C          -2.3246  -27.8790  -47.8094 C.2       13 UNK         0.5000 
     78 O          -3.2607  -28.4839  -48.3337 O.2       13 UNK        -0.5000 
     79 N          -1.9462  -26.6419  -48.1597 N.am      14 UNK        -0.5000 
     80 CA         -2.6305  -25.8136  -49.1495 C.3       14 UNK         0.1400 
     81 CB         -1.5913  -25.0255  -49.9641 C.3       14 UNK        -0.1800 
     82 C          -3.6203  -24.8546  -48.4717 C.2       14 UNK         0.5000 
     83 O          -4.7412  -24.7039  -48.9569 O.2       14 UNK        -0.5000 
     84 N          -3.1821  -24.2128  -47.3759 N.am      15 UNK        -0.5000 
     85 CA         -3.9019  -23.2046  -46.5878 C.3       15 UNK         0.1400 
     86 CB         -5.0556  -23.8580  -45.8010 C.3       15 UNK        -0.1800 
     87 C          -4.3538  -22.0087  -47.4544 C.2       15 UNK         0.5000 
     88 O          -5.5190  -21.6128  -47.4173 O.2       15 UNK        -0.5000 
     89 N          -3.4169  -21.5151  -48.2784 N.am      16 UNK        -0.5000 
     90 CA         -3.5576  -20.5018  -49.3354 C.3       16 UNK         0.1400 
     91 CB         -4.1729  -19.1885  -48.8108 C.3       16 UNK        -0.1800 
     92 C          -4.3004  -20.9887  -50.5972 C.2       16 UNK         0.5000 
     93 O          -4.2585  -20.2924  -51.6109 O.2       16 UNK        -0.5000 
     94 N          -4.9643  -22.1543  -50.5327 N.am      17 UNK        -0.5000 
     95 CA         -5.7383  -22.8116  -51.5955 C.3       17 UNK         0.1400 
     96 CB         -4.7883  -23.3782  -52.6698 C.3       17 UNK        -0.1800 
     97 C          -6.8492  -21.9254  -52.2026 C.2       17 UNK         0.5000 
     98 O          -7.1960  -22.0923  -53.3729 O.2       17 UNK        -0.5000 
     99 N          -7.3438  -20.9592  -51.4131 N.am      18 UNK        -0.5000 
    100 CA        -8.2572  -19.8555  -51.7449 C.3       18 UNK         0.1400 
    101 CB        -9.6254  -20.3822  -52.2177 C.3       18 UNK        -0.1800 
    102 C         -7.6884  -18.8167  -52.7388 C.2       18 UNK         0.5000 
    103 O         -7.9923  -17.6309  -52.6052 O.2       18 UNK        -0.5000 
    104 N         -6.8864  -19.2654  -53.7111 N.am      19 UNK        -0.5000 
    105 CA        -6.2821  -18.4581  -54.7676 C.3       19 UNK         0.1400 
    106 CB        -5.7260  -19.3959  -55.8506 C.3       19 UNK        -0.1800 
    107 C         -5.1752  -17.5104  -54.2746 C.2       19 UNK         0.5000 
    108 O         -5.0298  -16.4249  -54.8385 O.2       19 UNK        -0.5000 
    109 N         -4.3965  -17.9440  -53.2710 N.am      20 UNK        -0.5000 
    110 CA        -3.2253  -17.2971  -52.6597 C.3       20 UNK         0.1400 
    111 CB        -3.5993  -15.9596  -51.9974 C.3       20 UNK        -0.1800 
    112 C         -2.0093  -17.1370  -53.5960 C.2       20 UNK         0.5000 
    113 O         -0.8852  -17.4178  -53.1816 O.2       20 UNK        -0.5000 
    114 N         -2.2364  -16.7169  -54.8448 N.am      21 UNK        -0.5000 
    115 CA        -1.2412  -16.5644  -55.9059 C.3       21 UNK         0.1400 
    116 CB        -1.7817  -15.5612  -56.9407 C.3       21 UNK        -0.1800 
    117 C         -0.8638  -17.9244  -56.5325 C.2       21 UNK         0.5000 
    118 O         -1.0554  -18.1340  -57.7319 O.2       21 UNK        -0.5000 
    119 N         -0.3557  -18.8358  -55.6967 N.am      22 UNK        -0.5000 
    120 CA         0.0257  -20.2108  -56.0616 C.3       22 UNK         0.1400 
    121 C          1.3685  -20.3295  -56.8418 C.2       22 UNK         0.5000 
    122 N          2.1693  -19.2774  -56.9614 N.am      22 UNK        -0.7600 
    123 O          1.6869  -21.3978  -57.3571 O.2       22 UNK        -0.5000 
    124 C124        0.0256  -21.1478  -54.8272 C.3       23 UNK        -0.0398 
    125 S125       -1.5873  -21.1847  -53.9740 S.3       23 UNK        -0.2404 
    126 C126       -1.1831  -22.1750  -52.4973 C.3       23 UNK        -0.0205 
    127 H127       -1.7591  -16.6675  -43.8859 H         1 UNK         0.0600 
    128 H128       -3.4304  -16.3651  -43.4146 H         1 UNK         0.0600 
    129 H129       -2.3345  -15.0042  -43.6886 H         1 UNK         0.0600 
    130 H130       -1.0651  -15.7653  -46.0590 H         1 UNK         0.3000 
    131 H131       -3.0282  -16.3941  -48.1460 H         1 UNK         0.0600 
    132 H132       -0.0643  -15.6219  -48.2663 H         1 UNK         0.0800 
    133 H133       -1.0558  -15.8743  -49.6839 H         1 UNK         0.0800 
    134 H134        1.4757  -17.7030  -49.6972 H         1 UNK         0.0800 
    135 H135        0.1432  -17.5683  -50.8128 H         1 UNK         0.0800 
    136 H136       -1.1350  -19.6182  -51.5245 H         1 UNK         0.1150 
    137 H137        1.0735  -23.2878  -51.4571 H         1 UNK         0.1150 
    138 H138        2.5187  -19.8757  -49.3023 H         1 UNK         0.1150 
    139 H139        3.0960  -23.4943  -50.2726 H         1 UNK         0.0800 
    140 H140        4.0359  -22.0239  -50.3151 H         1 UNK         0.0800 
    141 H141        1.3432  -23.8568  -48.3851 H         1 UNK         0.0800 
    142 H142        1.0346  -22.4302  -47.4233 H         1 UNK         0.0800 
    143 H143        2.4810  -24.9672  -46.4930 H         1 UNK         0.0600 
    144 H144        2.2725  -22.3527  -45.2152 H         1 UNK         0.3000 
    145 H145        3.8223  -23.4071  -42.1571 H         1 UNK         0.0600 
    146 H146        4.9871  -21.2882  -42.7393 H         1 UNK         0.0600 
    147 H147        5.5318  -22.6051  -43.7670 H         1 UNK         0.0600 
    148 H148        4.4183  -21.4030  -44.4032 H         1 UNK         0.0600 
    149 H149        2.2533  -21.1439  -43.2106 H         1 UNK         0.3000 
    150 H150       -0.6812  -21.9707  -41.4384 H         1 UNK         0.0600 
    151 H151        0.5515  -20.9330  -39.5733 H         1 UNK         0.0600 
    152 H152       -0.3915  -19.7056  -40.4058 H         1 UNK         0.0600 
    153 H153        1.3498  -19.8104  -40.6647 H         1 UNK         0.0600 
    154 H154        0.3424  -19.6919  -42.9541 H         1 UNK         0.3000 
    155 H155       -0.6784  -20.9024  -46.1113 H         1 UNK         0.0600 
    156 H156       -2.3208  -18.9601  -44.3996 H         1 UNK         0.0600 
    157 H157       -2.9487  -20.3033  -45.3385 H         1 UNK         0.0600 
    158 H158       -2.2341  -18.9247  -46.1591 H         1 UNK         0.0600 
    159 H159       -0.0336  -18.2680  -45.3273 H         1 UNK         0.3000 
    160 H160        3.4359  -18.5744  -44.8489 H         1 UNK         0.0600 
    161 H161        3.7058  -17.0707  -46.7757 H         1 UNK         0.0600 
    162 H162        3.3174  -18.6802  -47.3609 H         1 UNK         0.0600 
    163 H163        2.0766  -17.4301  -47.3415 H         1 UNK         0.0600 
    164 H164        1.9338  -16.2330  -45.1850 H         1 UNK         0.3000 
    165 H165        0.0463  -15.6925  -42.8417 H         1 UNK         0.0600 
    166 H166        1.1818  -14.6025  -40.9209 H         1 UNK         0.0600 
    167 H167        1.1348  -16.3439  -40.7182 H         1 UNK         0.0600 
    168 H168        2.6314  -15.5627  -41.2171 H         1 UNK         0.0600 
    169 H169        2.2416  -13.9162  -43.0400 H         1 UNK         0.3000 
    170 H170        2.8338  -12.7421  -44.9996 H         1 UNK         0.0600 
    171 H171        0.5340  -12.5533  -47.0067 H         1 UNK         0.0600 
    172 H172        1.9956  -11.5719  -47.0353 H         1 UNK         0.0600 
    173 H173        2.0930  -13.3092  -47.2900 H         1 UNK         0.0600 
    174 H174        0.3338  -11.2055  -44.9383 H         1 UNK         0.3000 
    175 H175        0.3641  -10.5983  -41.4814 H         1 UNK         0.0600 
    176 H176        1.1753   -8.5341  -43.6006 H         1 UNK         0.0600 
    177 H177        0.4654   -8.1776  -42.0251 H         1 UNK         0.0600 
    178 H178        2.0696   -8.8852  -42.1261 H         1 UNK         0.0600 
    179 H179       -1.1151   -9.4203  -43.6271 H         1 UNK         0.3000 
    180 H180       -3.8619  -11.5729  -43.3189 H         1 UNK         0.0600 
    181 H181       -2.8775   -8.8966  -44.4543 H         1 UNK         0.0600 
    182 H182       -3.5514   -9.1219  -42.8425 H         1 UNK         0.0600 
    183 H183       -4.5428   -9.4221  -44.2580 H         1 UNK         0.0600 
    184 H184       -3.8066  -12.1950  -45.4393 H         1 UNK         0.3000 
    185 H185       -3.5385  -11.8010  -47.7644 H         1 UNK         0.0600 
    186 H186       -1.9054  -10.2065  -48.8002 H         1 UNK         0.0600 
    187 H187       -0.6114  -11.3785  -48.6021 H         1 UNK         0.0600 
    188 H188       -1.9623  -11.7260  -49.6752 H         1 UNK         0.0600 
    189 H189       -1.5465  -13.5701  -46.6451 H         1 UNK         0.3000 
    190 H190        1.2356  -25.4345  -44.1701 H         1 UNK         0.3000 
    191 H191       -1.5075  -24.9575  -43.9385 H         1 UNK         0.0600 
    192 H192        0.1892  -27.2014  -42.7215 H         1 UNK         0.0600 
    193 H193       -1.3960  -26.7003  -42.1427 H         1 UNK         0.0600 
    194 H194       -0.0415  -25.5874  -42.0489 H         1 UNK         0.0600 
    195 H195        0.0614  -27.4664  -45.7981 H         1 UNK         0.3000 
    196 H196       -2.2132  -29.2090  -46.1321 H         1 UNK         0.0600 
    197 H197       -0.8163  -30.1805  -47.9590 H         1 UNK         0.0600 
    198 H198        0.1210  -29.9825  -46.4871 H         1 UNK         0.0600 
    199 H199        0.3215  -28.8455  -47.8214 H         1 UNK         0.0600 
    200 H200       -1.2063  -26.1923  -47.6344 H         1 UNK         0.3000 
    201 H201       -3.1911  -26.4429  -49.8442 H         1 UNK         0.0600 
    202 H202       -0.8975  -25.6960  -50.4712 H         1 UNK         0.0600 
    203 H203       -1.0063  -24.3488  -49.3406 H         1 UNK         0.0600 
    204 H204       -2.0796  -24.4248  -50.7306 H         1 UNK         0.0600 
    205 H205       -2.2240  -24.3873  -47.0757 H         1 UNK         0.3000 
    206 H206       -3.1883  -22.8120  -45.8624 H         1 UNK         0.0600 
    207 H207       -4.6922  -24.6799  -45.1838 H         1 UNK         0.0600 
    208 H208       -5.5314  -23.1372  -45.1352 H         1 UNK         0.0600 
    209 H209       -5.8268  -24.2524  -46.4634 H         1 UNK         0.0600 
    210 H210       -2.5063  -21.9506  -48.2388 H         1 UNK         0.3000 
    211 H211       -2.5404  -20.2747  -49.6496 H         1 UNK         0.0600 
    212 H212       -5.2317  -19.2955  -48.5755 H         1 UNK         0.0600 
    213 H213       -4.0886  -18.3976  -49.5570 H         1 UNK         0.0600 
    214 H214       -3.6648  -18.8387  -47.9148 H         1 UNK         0.0600 
    215 H215       -4.9465  -22.6617  -49.6560 H         1 UNK         0.3000 
    216 H216       -6.2478  -23.6539  -51.1258 H         1 UNK         0.0600 
    217 H217       -5.3307  -23.9878  -53.3932 H         1 UNK         0.0600 
    218 H218       -4.0241  -24.0143  -52.2244 H         1 UNK         0.0600 
    219 H219       -4.2875  -22.5831  -53.2229 H         1 UNK         0.0600 
    220 H220       -6.9579  -20.9148  -50.4803 H         1 UNK         0.3000 
    221 H221       -8.4204  -19.3231  -50.8066 H         1 UNK         0.0600 
    222 H222      -10.3333  -19.5622  -52.3445 H         1 UNK         0.0600 
    223 H223       -9.5564  -20.9001  -53.1746 H         1 UNK         0.0600 
    224 H224      -10.0548  -21.0727  -51.4918 H         1 UNK         0.0600 
    225 H225       -6.7350  -20.2681  -53.7561 H         1 UNK         0.3000 
    226 H226       -7.0676  -17.8457  -55.2152 H         1 UNK         0.0600 
    227 H227       -6.5130  -20.0201  -56.2742 H         1 UNK         0.0600 
    228 H228       -5.2835  -18.8291  -56.6710 H         1 UNK         0.0600 
    229 H229       -4.9530  -20.0552  -55.4524 H         1 UNK         0.0600 
    230 H230       -4.5877  -18.8685  -52.8919 H         1 UNK         0.3000 
    231 H231       -2.9059  -17.9684  -51.8617 H         1 UNK         0.0600 
    232 H232       -4.3829  -16.0951  -51.2518 H         1 UNK         0.0600 
    233 H233       -3.9484  -15.2245  -52.7225 H         1 UNK         0.0600 
    234 H234       -2.7386  -15.5259  -51.4880 H         1 UNK         0.0600 
    235 H235       -3.2024  -16.5179  -55.0920 H         1 UNK         0.3000 
    236 H236       -0.3309  -16.1411  -55.4765 H         1 UNK         0.0600 
    237 H237       -1.0581  -15.3924  -57.7392 H         1 UNK         0.0600 
    238 H238       -2.7053  -15.9156  -57.4002 H         1 UNK         0.0600 
    239 H239       -1.9872  -14.5943  -56.4810 H         1 UNK         0.0600 
    240 H240       -0.2749  -18.5877  -54.7161 H         1 UNK         0.3000 
    241 H241       -0.7392  -20.5846  -56.7451 H         1 UNK         0.0600 
    242 H242        3.0332  -19.3654  -57.4734 H         1 UNK         0.3800 
    243 H243        1.9207  -18.3949  -56.5444 H         1 UNK         0.3800 
    244 H244        0.7956  -20.8332  -54.1210 H         1 UNK         0.0800 
    245 H245        0.2713  -22.1706  -55.1181 H         1 UNK         0.0800 
    246 H246       -2.0944  -22.3278  -51.9221 H         1 UNK         0.0800 
    247 H247       -0.8532  -23.1637  -52.8198 H         1 UNK         0.0800 
@<TRIPOS>BOND
     1    1    2 1    
     2    1  127 1    
     3    1  128 1    
     4    1  129 1    
     5    2    3 2    
     6    2    4 am   BACKBONE|DICT|INTERRES
     7    4    5 1    
     8    4  130 1    
     9    5    6 1    
    10    5   65 1    
    11    5  131 1    
    12    6    7 1    
    13    6  132 1    
    14    6  133 1    
    15    7    8 1    
    16    8    9 1    
    17    8  134 1    
    18    8  135 1    
    19    9   10 ar   
    20    9   14 ar   
    21   10   11 ar   
    22   10  136 1    
    23   11   12 ar   
    24   11  126 1    
    25   12   13 ar   
    26   12  137 1    
    27   13   14 ar   
    28   13   15 1    
    29   14  138 1    
    30   15   16 1    
    31   15  139 1    
    32   15  140 1    
    33   16   17 1    
    34   17   18 1    
    35   17  141 1    
    36   17  142 1    
    37   18   19 1    
    38   18   67 1    
    39   18  143 1    
    40   19   20 am   BACKBONE|DICT|INTERRES
    41   19  144 1    
    42   20   21 2    
    43   20   22 1    
    44   22   23 1    
    45   22   24 1    
    46   22  145 1    
    47   23  146 1    
    48   23  147 1    
    49   23  148 1    
    50   24   25 am   BACKBONE|DICT|INTERRES
    51   24  149 1    
    52   25   26 2    
    53   25   27 1    
    54   27   28 1    
    55   27   29 1    
    56   27  150 1    
    57   28  151 1    
    58   28  152 1    
    59   28  153 1    
    60   29   30 am   BACKBONE|DICT|INTERRES
    61   29  154 1    
    62   30   31 2    
    63   30   32 1    
    64   32   33 1    
    65   32   34 1    
    66   32  155 1    
    67   33  156 1    
    68   33  157 1    
    69   33  158 1    
    70   34   35 am   BACKBONE|DICT|INTERRES
    71   34  159 1    
    72   35   36 2    
    73   35   37 1    
    74   37   38 1    
    75   37   39 1    
    76   37  160 1    
    77   38  161 1    
    78   38  162 1    
    79   38  163 1    
    80   39   40 am   BACKBONE|DICT|INTERRES
    81   39  164 1    
    82   40   41 2    
    83   40   42 1    
    84   42   43 1    
    85   42   44 1    
    86   42  165 1    
    87   43  166 1    
    88   43  167 1    
    89   43  168 1    
    90   44   45 am   BACKBONE|DICT|INTERRES
    91   44  169 1    
    92   45   46 2    
    93   45   47 1    
    94   47   48 1    
    95   47   49 1    
    96   47  170 1    
    97   48  171 1    
    98   48  172 1    
    99   48  173 1    
   100   49   50 am   BACKBONE|DICT|INTERRES
   101   49  174 1    
   102   50   51 2    
   103   50   52 1    
   104   52   53 1    
   105   52   54 1    
   106   52  175 1    
   107   53  176 1    
   108   53  177 1    
   109   53  178 1    
   110   54   55 am   BACKBONE|DICT|INTERRES
   111   54  179 1    
   112   55   56 2    
   113   55   57 1    
   114   57   58 1    
   115   57   59 1    
   116   57  180 1    
   117   58  181 1    
   118   58  182 1    
   119   58  183 1    
   120   59   60 am   BACKBONE|DICT|INTERRES
   121   59  184 1    
   122   60   61 2    
   123   60   62 1    
   124   62   63 1    
   125   62   64 1    
   126   62  185 1    
   127   63  186 1    
   128   63  187 1    
   129   63  188 1    
   130   64   65 am   BACKBONE|DICT|INTERRES
   131   64  189 1    
   132   65   66 2    
   133   67   68 2    
   134   67   69 am   BACKBONE|DICT|INTERRES
   135   69   70 1    
   136   69  190 1    
   137   70   71 1    
   138   70   72 1    
   139   70  191 1    
   140   71  192 1    
   141   71  193 1    
   142   71  194 1    
   143   72   73 2    
   144   72   74 am   BACKBONE|DICT|INTERRES
   145   74   75 1    
   146   74  195 1    
   147   75   76 1    
   148   75   77 1    
   149   75  196 1    
   150   76  197 1    
   151   76  198 1    
   152   76  199 1    
   153   77   78 2    
   154   77   79 am   BACKBONE|DICT|INTERRES
   155   79   80 1    
   156   79  200 1    
   157   80   81 1    
   158   80   82 1    
   159   80  201 1    
   160   81  202 1    
   161   81  203 1    
   162   81  204 1    
   163   82   83 2    
   164   82   84 am   BACKBONE|DICT|INTERRES
   165   84   85 1    
   166   84  205 1    
   167   85   86 1    
   168   85   87 1    
   169   85  206 1    
   170   86  207 1    
   171   86  208 1    
   172   86  209 1    
   173   87   88 2    
   174   87   89 am   BACKBONE|DICT|INTERRES
   175   89   90 1    
   176   89  210 1    
   177   90   91 1    
   178   90   92 1    
   179   90  211 1    
   180   91  212 1    
   181   91  213 1    
   182   91  214 1    
   183   92   93 2    
   184   92   94 am   BACKBONE|DICT|INTERRES
   185   94   95 1    
   186   94  215 1    
   187   95   96 1    
   188   95   97 1    
   189   95  216 1    
   190   96  217 1    
   191   96  218 1    
   192   96  219 1    
   193   97   98 2    
   194   97   99 am   BACKBONE|DICT|INTERRES
   195   99  100 1    
   196   99  220 1    
   197  100  101 1    
   198  100  102 1    
   199  100  221 1    
   200  101  222 1    
   201  101  223 1    
   202  101  224 1    
   203  102  103 2    
   204  102  104 am   BACKBONE|DICT|INTERRES
   205  104  105 1    
   206  104  225 1    
   207  105  106 1    
   208  105  107 1    
   209  105  226 1    
   210  106  227 1    
   211  106  228 1    
   212  106  229 1    
   213  107  108 2    
   214  107  109 am   BACKBONE|DICT|INTERRES
   215  109  110 1    
   216  109  230 1    
   217  110  111 1    
   218  110  112 1    
   219  110  231 1    
   220  111  232 1    
   221  111  233 1    
   222  111  234 1    
   223  112  113 2    
   224  112  114 am   BACKBONE|DICT|INTERRES
   225  114  115 1    
   226  114  235 1    
   227  115  116 1    
   228  115  117 1    
   229  115  236 1    
   230  116  237 1    
   231  116  238 1    
   232  116  239 1    
   233  117  118 2    
   234  117  119 am   BACKBONE|DICT|INTERRES
   235  119  120 1    
   236  119  240 1    
   237  120  121 1    
   238  120  124 1    
   239  120  241 1    
   240  121  122 am   BACKBONE|DICT|INTERRES
   241  121  123 2    
   242  122  242 1    
   243  122  243 1    
   244  124  125 1    
   245  124  244 1    
   246  124  245 1    
   247  125  126 1    
   248  126  246 1    
   249  126  247 1    
@<TRIPOS>SUBSTRUCTURE
     1 UNK         1 GROUP             0       ****    0 ROOT    
