@<TRIPOS>MOLECULE
3R540
247   249    1
SMALL
USER_CHARGES


@<TRIPOS>ATOM
      1 CA         -5.8490  -17.1645  -44.3275 C.3       0 UNK        -0.1800 
      2 C          -5.3165  -16.5881  -45.6313 C.2       0 UNK         0.5000 
      3 O          -5.2501  -15.3688  -45.7797 O.2       0 UNK        -0.5000 
      4 N          -4.9272  -17.4603  -46.5705 N.am      1 UNK        -0.5000 
      5 CA         -4.4025  -17.1112  -47.8991 C.3       1 UNK         0.1400 
      6 C6         -4.1834  -18.3890  -48.7490 C.3       23 UNK        -0.0398 
      7 S7         -4.2512  -18.0861  -50.5416 S.3       23 UNK        -0.2404 
      8 C8         -2.8290  -19.0749  -51.1223 C.3       23 UNK        -0.0205 
      9 C9         -1.4546  -18.4987  -50.7873 C.ar      23 UNK        -0.0193 
     10 C10        -1.2268  -17.1205  -50.7222 C.ar      23 UNK        -0.1150 
     11 C11         0.0452  -16.6183  -50.4393 C.ar      23 UNK        -0.0193 
     12 C12         1.1033  -17.5057  -50.2314 C.ar      23 UNK        -0.1150 
     13 C13         0.9044  -18.8862  -50.3189 C.ar      23 UNK        -0.0193 
     14 C14        -0.3796  -19.3719  -50.5968 C.ar      23 UNK        -0.1150 
     15 C15         2.1095  -19.8138  -50.1793 C.3       23 UNK        -0.0205 
     16 S16         1.7445  -21.4615  -49.4894 S.3       23 UNK        -0.2404 
     17 C17         1.4414  -21.0752  -47.7343 C.3       23 UNK        -0.0398 
     18 CA          0.2702  -21.9159  -47.1595 C.3       11 UNK         0.1400 
     19 N           0.6242  -22.5459  -45.8861 N.am      11 UNK        -0.5000 
     20 C           0.0554  -23.6564  -45.3973 C.2       10 UNK         0.5000 
     21 O          -0.8067  -24.3032  -45.9903 O.2       10 UNK        -0.5000 
     22 CA          0.5080  -24.1024  -43.9937 C.3       10 UNK         0.1400 
     23 CB          1.7249  -25.0344  -44.0899 C.3       10 UNK        -0.1800 
     24 N           0.8324  -22.9737  -43.1188 N.am      10 UNK        -0.5000 
     25 C          -0.0690  -22.0939  -42.6620 C.2       9 UNK         0.5000 
     26 O          -1.2742  -22.1689  -42.9007 O.2       9 UNK        -0.5000 
     27 CA          0.4736  -20.9025  -41.8514 C.3       9 UNK         0.1400 
     28 CB          0.5930  -21.2672  -40.3649 C.3       9 UNK        -0.1800 
     29 N           1.7624  -20.3909  -42.3266 N.am      9 UNK        -0.5000 
     30 C           2.0119  -19.9063  -43.5502 C.2       8 UNK         0.5000 
     31 O           1.1907  -19.9411  -44.4671 O.2       8 UNK        -0.5000 
     32 CA          3.4008  -19.2707  -43.7787 C.3       8 UNK         0.1400 
     33 CB          3.5145  -18.5896  -45.1551 C.3       8 UNK        -0.1800 
     34 N           3.7234  -18.2838  -42.7474 N.am      8 UNK        -0.5000 
     35 C           4.1566  -18.5475  -41.5073 C.2       7 UNK         0.5000 
     36 O           4.3701  -19.6866  -41.0905 O.2       7 UNK        -0.5000 
     37 CA          4.3378  -17.3425  -40.5650 C.3       7 UNK         0.1400 
     38 CB          5.7932  -16.8529  -40.5914 C.3       7 UNK        -0.1800 
     39 N           3.4530  -16.2231  -40.8937 N.am      7 UNK        -0.5000 
     40 C           2.1208  -16.2187  -40.7633 C.2       6 UNK         0.5000 
     41 O           1.4803  -17.1661  -40.3073 O.2       6 UNK        -0.5000 
     42 CA          1.3693  -14.9615  -41.2420 C.3       6 UNK         0.1400 
     43 CB          1.3326  -13.8840  -40.1424 C.3       6 UNK        -0.1800 
     44 N           1.8419  -14.4095  -42.5193 N.am      6 UNK        -0.5000 
     45 C           3.0059  -13.8124  -42.8190 C.2       5 UNK         0.5000 
     46 O           3.9407  -13.6818  -42.0284 O.2       5 UNK        -0.5000 
     47 CA          3.1446  -13.2744  -44.2527 C.3       5 UNK         0.1400 
     48 CB          3.5542  -14.4008  -45.2160 C.3       5 UNK        -0.1800 
     49 N           1.8910  -12.6717  -44.7069 N.am      5 UNK        -0.5000 
     50 C           1.5350  -11.3990  -44.4792 C.2       4 UNK         0.5000 
     51 O           2.2743  -10.5655  -43.9544 O.2       4 UNK        -0.5000 
     52 CA          0.1086  -10.9851  -44.8971 C.3       4 UNK         0.1400 
     53 CB          0.1002  -10.4697  -46.3444 C.3       4 UNK        -0.1800 
     54 N          -0.8610  -12.0746  -44.7726 N.am      4 UNK        -0.5000 
     55 C          -1.2768  -12.5994  -43.6108 C.2       3 UNK         0.5000 
     56 O          -0.9710  -12.1434  -42.5094 O.2       3 UNK        -0.5000 
     57 CA         -2.1556  -13.8663  -43.6852 C.3       3 UNK         0.1400 
     58 CB         -3.6345  -13.5081  -43.4796 C.3       3 UNK        -0.1800 
     59 N          -2.0117  -14.6379  -44.9272 N.am      3 UNK        -0.5000 
     60 C          -0.8717  -15.1988  -45.3587 C.2       2 UNK         0.5000 
     61 O           0.1938  -15.1001  -44.7495 O.2       2 UNK        -0.5000 
     62 CA         -0.9229  -15.9801  -46.6836 C.3       2 UNK         0.1400 
     63 CB          0.1409  -17.0923  -46.7382 C.3       2 UNK        -0.1800 
     64 N          -2.2387  -16.5801  -46.8846 N.am      2 UNK        -0.5000 
     65 C          -3.1191  -16.2500  -47.8371 C.2       1 UNK         0.5000 
     66 O          -2.9689  -15.3085  -48.6156 O.2       1 UNK        -0.5000 
     67 C          -1.0273  -21.0963  -47.0198 C.2       11 UNK         0.5000 
     68 O          -1.8463  -21.0875  -47.9371 O.2       11 UNK        -0.5000 
     69 N          -1.2303  -20.4724  -45.8496 N.am      12 UNK        -0.5000 
     70 CA         -2.4659  -19.7840  -45.4852 C.3       12 UNK         0.1400 
     71 CB         -2.2885  -19.0260  -44.1606 C.3       12 UNK        -0.1800 
     72 C          -3.6787  -20.7270  -45.4356 C.2       12 UNK         0.5000 
     73 O          -4.7391  -20.3728  -45.9537 O.2       12 UNK        -0.5000 
     74 N          -3.4743  -21.9204  -44.8652 N.am      13 UNK        -0.5000 
     75 CA         -4.4557  -23.0019  -44.7903 C.3       13 UNK         0.1400 
     76 CB         -3.9687  -24.0328  -43.7601 C.3       13 UNK        -0.1800 
     77 C          -4.7408  -23.6895  -46.1420 C.2       13 UNK         0.5000 
     78 O          -5.7575  -24.3747  -46.2566 O.2       13 UNK        -0.5000 
     79 N          -3.8572  -23.5121  -47.1366 N.am      14 UNK        -0.5000 
     80 CA         -3.9687  -24.1229  -48.4647 C.3       14 UNK         0.1400 
     81 CB         -2.6117  -24.0552  -49.1780 C.3       14 UNK        -0.1800 
     82 C          -5.0682  -23.5010  -49.3464 C.2       14 UNK         0.5000 
     83 O          -5.4599  -24.1241  -50.3362 O.2       14 UNK        -0.5000 
     84 N          -5.5304  -22.2918  -48.9851 N.am      15 UNK        -0.5000 
     85 CA         -6.7097  -21.5840  -49.5087 C.3       15 UNK         0.1400 
     86 CB         -7.9883  -22.3251  -49.0669 C.3       15 UNK        -0.1800 
     87 C          -6.7002  -21.3127  -51.0306 C.2       15 UNK         0.5000 
     88 O          -7.7645  -21.1175  -51.6190 O.2       15 UNK        -0.5000 
     89 N          -5.5059  -21.3368  -51.6412 N.am      16 UNK        -0.5000 
     90 CA         -5.2445  -21.2943  -53.0867 C.3       16 UNK         0.1400 
     91 CB         -5.6774  -19.9462  -53.7004 C.3       16 UNK        -0.1800 
     92 C          -5.8276  -22.5077  -53.8509 C.2       16 UNK         0.5000 
     93 O          -6.0469  -22.4212  -55.0606 O.2       16 UNK        -0.5000 
     94 N          -6.0653  -23.6151  -53.1347 N.am      17 UNK        -0.5000 
     95 CA         -6.5619  -24.8799  -53.6694 C.3       17 UNK         0.1400 
     96 CB         -7.7828  -25.3291  -52.8504 C.3       17 UNK        -0.1800 
     97 C          -5.4542  -25.9421  -53.6258 C.2       17 UNK         0.5000 
     98 O          -5.2343  -26.6311  -54.6223 O.2       17 UNK        -0.5000 
     99 N          -4.7598  -26.0380  -52.4830 N.am      18 UNK        -0.5000 
    100 CA        -3.6407  -26.9600  -52.2621 C.3       18 UNK         0.1400 
    101 CB        -3.7320  -27.5108  -50.8293 C.3       18 UNK        -0.1800 
    102 C         -2.2675  -26.3068  -52.5291 C.2       18 UNK         0.5000 
    103 O         -1.2414  -26.9712  -52.3787 O.2       18 UNK        -0.5000 
    104 N         -2.2648  -25.0269  -52.9153 N.am      19 UNK        -0.5000 
    105 CA        -1.0970  -24.2286  -53.2724 C.3       19 UNK         0.1400 
    106 CB        -0.5506  -23.5199  -52.0190 C.3       19 UNK        -0.1800 
    107 C         -1.5174  -23.2098  -54.3413 C.2       19 UNK         0.5000 
    108 O         -2.7128  -23.0557  -54.6039 O.2       19 UNK        -0.5000 
    109 N         -0.5342  -22.5181  -54.9275 N.am      20 UNK        -0.5000 
    110 CA        -0.7513  -21.3937  -55.8393 C.3       20 UNK         0.1400 
    111 CB         0.5816  -21.0459  -56.5207 C.3       20 UNK        -0.1800 
    112 C         -1.3089  -20.1634  -55.0981 C.2       20 UNK         0.5000 
    113 O         -1.0740  -20.0105  -53.8978 O.2       20 UNK        -0.5000 
    114 N         -1.9971  -19.2814  -55.8332 N.am      21 UNK        -0.5000 
    115 CA        -2.5957  -18.0376  -55.3374 C.3       21 UNK         0.1400 
    116 CB        -3.7040  -17.6042  -56.3144 C.3       21 UNK        -0.1800 
    117 C         -1.5441  -16.9289  -55.1043 C.2       21 UNK         0.5000 
    118 O         -1.6165  -15.8637  -55.7195 O.2       21 UNK        -0.5000 
    119 N         -0.5695  -17.2143  -54.2338 N.am      22 UNK        -0.5000 
    120 CA         0.5699  -16.3524  -53.8754 C.3       22 UNK         0.1400 
    121 C          1.6322  -16.1640  -55.0043 C.2       22 UNK         0.5000 
    122 N          1.6257  -16.9713  -56.0586 N.am      22 UNK        -0.7600 
    123 O          2.4954  -15.2949  -54.9199 O.2       22 UNK        -0.5000 
    124 C124        0.1207  -15.0139  -53.2138 C.3       23 UNK        -0.0398 
    125 S125        1.2072  -14.5124  -51.8327 S.3       23 UNK        -0.2404 
    126 C126        0.2805  -15.1161  -50.3835 C.3       23 UNK        -0.0205 
    127 H127       -5.8653  -18.2547  -44.3421 H         1 UNK         0.0600 
    128 H128       -6.8649  -16.8122  -44.1498 H         1 UNK         0.0600 
    129 H129       -5.2255  -16.8441  -43.4930 H         1 UNK         0.0600 
    130 H130       -5.0349  -18.4536  -46.3865 H         1 UNK         0.3000 
    131 H131       -5.1744  -16.5063  -48.3799 H         1 UNK         0.0600 
    132 H132       -4.9621  -19.1196  -48.5328 H         1 UNK         0.0800 
    133 H133       -3.2437  -18.8795  -48.4933 H         1 UNK         0.0800 
    134 H134       -2.9177  -20.0830  -50.7147 H         1 UNK         0.0800 
    135 H135       -2.9016  -19.1749  -52.2037 H         1 UNK         0.0800 
    136 H136       -2.0387  -16.4306  -50.9001 H         1 UNK         0.1150 
    137 H137        2.0910  -17.1145  -50.0310 H         1 UNK         0.1150 
    138 H138       -0.5458  -20.4356  -50.6878 H         1 UNK         0.1150 
    139 H139        2.5441  -19.9486  -51.1704 H         1 UNK         0.0800 
    140 H140        2.8810  -19.3451  -49.5663 H         1 UNK         0.0800 
    141 H141        1.2830  -20.0028  -47.6025 H         1 UNK         0.0800 
    142 H142        2.3706  -21.2946  -47.2070 H         1 UNK         0.0800 
    143 H143        0.0451  -22.7259  -47.8573 H         1 UNK         0.0600 
    144 H144        1.2673  -22.0341  -45.2986 H         1 UNK         0.3000 
    145 H145       -0.3152  -24.6594  -43.5411 H         1 UNK         0.0600 
    146 H146        2.0091  -25.4143  -43.1084 H         1 UNK         0.0600 
    147 H147        1.5060  -25.8975  -44.7202 H         1 UNK         0.0600 
    148 H148        2.5900  -24.5263  -44.5177 H         1 UNK         0.0600 
    149 H149        1.8035  -22.8406  -42.8773 H         1 UNK         0.3000 
    150 H150       -0.2484  -20.0892  -41.9414 H         1 UNK         0.0600 
    151 H151       -0.3581  -21.6307  -39.9733 H         1 UNK         0.0600 
    152 H152        0.8782  -20.3992  -39.7696 H         1 UNK         0.0600 
    153 H153        1.3375  -22.0470  -40.1998 H         1 UNK         0.0600 
    154 H154        2.5073  -20.3248  -41.6417 H         1 UNK         0.3000 
    155 H155        4.1360  -20.0769  -43.7406 H         1 UNK         0.0600 
    156 H156        2.7885  -17.7834  -45.2641 H         1 UNK         0.0600 
    157 H157        3.3403  -19.3006  -45.9630 H         1 UNK         0.0600 
    158 H158        4.5082  -18.1677  -45.3065 H         1 UNK         0.0600 
    159 H159        3.5353  -17.3202  -42.9795 H         1 UNK         0.3000 
    160 H160        4.1037  -17.6757  -39.5518 H         1 UNK         0.0600 
    161 H161        6.0757  -16.4842  -41.5784 H         1 UNK         0.0600 
    162 H162        6.4818  -17.6578  -40.3306 H         1 UNK         0.0600 
    163 H163        5.9506  -16.0465  -39.8748 H         1 UNK         0.0600 
    164 H164        3.8857  -15.3777  -41.2578 H         1 UNK         0.3000 
    165 H165        0.3391  -15.2697  -41.4278 H         1 UNK         0.0600 
    166 H166        0.7470  -13.0204  -40.4574 H         1 UNK         0.0600 
    167 H167        0.8742  -14.2734  -39.2327 H         1 UNK         0.0600 
    168 H168        2.3308  -13.5339  -39.8788 H         1 UNK         0.0600 
    169 H169        1.1927  -14.5412  -43.2913 H         1 UNK         0.3000 
    170 H170        3.9361  -12.5220  -44.2579 H         1 UNK         0.0600 
    171 H171        4.5004  -14.8494  -44.9108 H         1 UNK         0.0600 
    172 H172        2.8120  -15.1984  -45.2529 H         1 UNK         0.0600 
    173 H173        3.6867  -14.0220  -46.2294 H         1 UNK         0.0600 
    174 H174        1.2039  -13.3090  -45.0887 H         1 UNK         0.3000 
    175 H175       -0.2069  -10.1704  -44.2418 H         1 UNK         0.0600 
    176 H176        0.3903  -11.2478  -47.0517 H         1 UNK         0.0600 
    177 H177       -0.8880  -10.1078  -46.6288 H         1 UNK         0.0600 
    178 H178        0.7967   -9.6390  -46.4666 H         1 UNK         0.0600 
    179 H179       -1.1845  -12.4969  -45.6300 H         1 UNK         0.3000 
    180 H180       -1.8473  -14.5134  -42.8614 H         1 UNK         0.0600 
    181 H181       -4.2454  -14.4045  -43.3754 H         1 UNK         0.0600 
    182 H182       -4.0278  -12.9282  -44.3154 H         1 UNK         0.0600 
    183 H183       -3.7749  -12.9174  -42.5733 H         1 UNK         0.0600 
    184 H184       -2.8494  -14.7565  -45.4818 H         1 UNK         0.3000 
    185 H185       -0.7070  -15.2676  -47.4812 H         1 UNK         0.0600 
    186 H186        0.0048  -17.7275  -47.6128 H         1 UNK         0.0600 
    187 H187        1.1438  -16.6685  -46.7974 H         1 UNK         0.0600 
    188 H188        0.1088  -17.7345  -45.8584 H         1 UNK         0.0600 
    189 H189       -2.4908  -17.3094  -46.2374 H         1 UNK         0.3000 
    190 H190       -0.4732  -20.4575  -45.1715 H         1 UNK         0.3000 
    191 H191       -2.6570  -19.0603  -46.2708 H         1 UNK         0.0600 
    192 H192       -3.1541  -18.3978  -43.9513 H         1 UNK         0.0600 
    193 H193       -1.4128  -18.3779  -44.1786 H         1 UNK         0.0600 
    194 H194       -2.1780  -19.7081  -43.3188 H         1 UNK         0.0600 
    195 H195       -2.5826  -22.0910  -44.4098 H         1 UNK         0.3000 
    196 H196       -5.3981  -22.5806  -44.4344 H         1 UNK         0.0600 
    197 H197       -3.0166  -24.4751  -44.0563 H         1 UNK         0.0600 
    198 H198       -3.8341  -23.5767  -42.7791 H         1 UNK         0.0600 
    199 H199       -4.6879  -24.8446  -43.6448 H         1 UNK         0.0600 
    200 H200       -3.0428  -22.9377  -46.9689 H         1 UNK         0.3000 
    201 H201       -4.2237  -25.1750  -48.3254 H         1 UNK         0.0600 
    202 H202       -1.8162  -24.4835  -48.5686 H         1 UNK         0.0600 
    203 H203       -2.3356  -23.0329  -49.4293 H         1 UNK         0.0600 
    204 H204       -2.6372  -24.6120  -50.1124 H         1 UNK         0.0600 
    205 H205       -5.0998  -21.8684  -48.1739 H         1 UNK         0.3000 
    206 H206       -6.7186  -20.6049  -49.0297 H         1 UNK         0.0600 
    207 H207       -7.9917  -22.4974  -47.9904 H         1 UNK         0.0600 
    208 H208       -8.8829  -21.7477  -49.3028 H         1 UNK         0.0600 
    209 H209       -8.0824  -23.2930  -49.5608 H         1 UNK         0.0600 
    210 H210       -4.7030  -21.5172  -51.0573 H         1 UNK         0.3000 
    211 H211       -4.1615  -21.3614  -53.1926 H         1 UNK         0.0600 
    212 H212       -5.3322  -19.8628  -54.7308 H         1 UNK         0.0600 
    213 H213       -5.2587  -19.1038  -53.1526 H         1 UNK         0.0600 
    214 H214       -6.7614  -19.8330  -53.7117 H         1 UNK         0.0600 
    215 H215       -5.8701  -23.5995  -52.1383 H         1 UNK         0.3000 
    216 H216       -6.8755  -24.7646  -54.7089 H         1 UNK         0.0600 
    217 H217       -7.5399  -25.4596  -51.7950 H         1 UNK         0.0600 
    218 H218       -8.1730  -26.2785  -53.2192 H         1 UNK         0.0600 
    219 H219       -8.5883  -24.5975  -52.9170 H         1 UNK         0.0600 
    220 H220       -5.0100  -25.4365  -51.7037 H         1 UNK         0.3000 
    221 H221       -3.7219  -27.8088  -52.9442 H         1 UNK         0.0600 
    222 H222       -4.6768  -28.0303  -50.6693 H         1 UNK         0.0600 
    223 H223       -3.6576  -26.7209  -50.0844 H         1 UNK         0.0600 
    224 H224       -2.9332  -28.2262  -50.6301 H         1 UNK         0.0600 
    225 H225       -3.1484  -24.5747  -53.1103 H         1 UNK         0.3000 
    226 H226       -0.3259  -24.8728  -53.7000 H         1 UNK         0.0600 
    227 H227       -1.2744  -22.8127  -51.6127 H         1 UNK         0.0600 
    228 H228       -0.2999  -24.2342  -51.2348 H         1 UNK         0.0600 
    229 H229        0.3570  -22.9592  -52.2446 H         1 UNK         0.0600 
    230 H230        0.4178  -22.6747  -54.6315 H         1 UNK         0.3000 
    231 H231       -1.4701  -21.6990  -56.6028 H         1 UNK         0.0600 
    232 H232        1.3322  -20.7253  -55.7969 H         1 UNK         0.0600 
    233 H233        0.4554  -20.2379  -57.2424 H         1 UNK         0.0600 
    234 H234        0.9827  -21.9024  -57.0631 H         1 UNK         0.0600 
    235 H235       -2.1138  -19.4607  -56.8201 H         1 UNK         0.3000 
    236 H236       -3.0686  -18.2373  -54.3745 H         1 UNK         0.0600 
    237 H237       -4.4562  -18.3837  -56.4335 H         1 UNK         0.0600 
    238 H238       -4.2181  -16.7131  -55.9518 H         1 UNK         0.0600 
    239 H239       -3.3033  -17.3743  -57.3025 H         1 UNK         0.0600 
    240 H240       -0.5824  -18.1362  -53.8052 H         1 UNK         0.3000 
    241 H241        1.0951  -16.9377  -53.1208 H         1 UNK         0.0600 
    242 H242        2.3193  -16.8500  -56.7799 H         1 UNK         0.3800 
    243 H243        0.9256  -17.6884  -56.1483 H         1 UNK         0.3800 
    244 H244       -0.8956  -15.0960  -52.8270 H         1 UNK         0.0800 
    245 H245        0.0806  -14.2076  -53.9479 H         1 UNK         0.0800 
    246 H246        0.8414  -14.8736  -49.4801 H         1 UNK         0.0800 
    247 H247       -0.6665  -14.5787  -50.3088 H         1 UNK         0.0800 
@<TRIPOS>BOND
     1    1    2 1    
     2    1  127 1    
     3    1  128 1    
     4    1  129 1    
     5    2    3 2    
     6    2    4 am   BACKBONE|DICT|INTERRES
     7    4    5 1    
     8    4  130 1    
     9    5    6 1    
    10    5   65 1    
    11    5  131 1    
    12    6    7 1    
    13    6  132 1    
    14    6  133 1    
    15    7    8 1    
    16    8    9 1    
    17    8  134 1    
    18    8  135 1    
    19    9   10 ar   
    20    9   14 ar   
    21   10   11 ar   
    22   10  136 1    
    23   11   12 ar   
    24   11  126 1    
    25   12   13 ar   
    26   12  137 1    
    27   13   14 ar   
    28   13   15 1    
    29   14  138 1    
    30   15   16 1    
    31   15  139 1    
    32   15  140 1    
    33   16   17 1    
    34   17   18 1    
    35   17  141 1    
    36   17  142 1    
    37   18   19 1    
    38   18   67 1    
    39   18  143 1    
    40   19   20 am   BACKBONE|DICT|INTERRES
    41   19  144 1    
    42   20   21 2    
    43   20   22 1    
    44   22   23 1    
    45   22   24 1    
    46   22  145 1    
    47   23  146 1    
    48   23  147 1    
    49   23  148 1    
    50   24   25 am   BACKBONE|DICT|INTERRES
    51   24  149 1    
    52   25   26 2    
    53   25   27 1    
    54   27   28 1    
    55   27   29 1    
    56   27  150 1    
    57   28  151 1    
    58   28  152 1    
    59   28  153 1    
    60   29   30 am   BACKBONE|DICT|INTERRES
    61   29  154 1    
    62   30   31 2    
    63   30   32 1    
    64   32   33 1    
    65   32   34 1    
    66   32  155 1    
    67   33  156 1    
    68   33  157 1    
    69   33  158 1    
    70   34   35 am   BACKBONE|DICT|INTERRES
    71   34  159 1    
    72   35   36 2    
    73   35   37 1    
    74   37   38 1    
    75   37   39 1    
    76   37  160 1    
    77   38  161 1    
    78   38  162 1    
    79   38  163 1    
    80   39   40 am   BACKBONE|DICT|INTERRES
    81   39  164 1    
    82   40   41 2    
    83   40   42 1    
    84   42   43 1    
    85   42   44 1    
    86   42  165 1    
    87   43  166 1    
    88   43  167 1    
    89   43  168 1    
    90   44   45 am   BACKBONE|DICT|INTERRES
    91   44  169 1    
    92   45   46 2    
    93   45   47 1    
    94   47   48 1    
    95   47   49 1    
    96   47  170 1    
    97   48  171 1    
    98   48  172 1    
    99   48  173 1    
   100   49   50 am   BACKBONE|DICT|INTERRES
   101   49  174 1    
   102   50   51 2    
   103   50   52 1    
   104   52   53 1    
   105   52   54 1    
   106   52  175 1    
   107   53  176 1    
   108   53  177 1    
   109   53  178 1    
   110   54   55 am   BACKBONE|DICT|INTERRES
   111   54  179 1    
   112   55   56 2    
   113   55   57 1    
   114   57   58 1    
   115   57   59 1    
   116   57  180 1    
   117   58  181 1    
   118   58  182 1    
   119   58  183 1    
   120   59   60 am   BACKBONE|DICT|INTERRES
   121   59  184 1    
   122   60   61 2    
   123   60   62 1    
   124   62   63 1    
   125   62   64 1    
   126   62  185 1    
   127   63  186 1    
   128   63  187 1    
   129   63  188 1    
   130   64   65 am   BACKBONE|DICT|INTERRES
   131   64  189 1    
   132   65   66 2    
   133   67   68 2    
   134   67   69 am   BACKBONE|DICT|INTERRES
   135   69   70 1    
   136   69  190 1    
   137   70   71 1    
   138   70   72 1    
   139   70  191 1    
   140   71  192 1    
   141   71  193 1    
   142   71  194 1    
   143   72   73 2    
   144   72   74 am   BACKBONE|DICT|INTERRES
   145   74   75 1    
   146   74  195 1    
   147   75   76 1    
   148   75   77 1    
   149   75  196 1    
   150   76  197 1    
   151   76  198 1    
   152   76  199 1    
   153   77   78 2    
   154   77   79 am   BACKBONE|DICT|INTERRES
   155   79   80 1    
   156   79  200 1    
   157   80   81 1    
   158   80   82 1    
   159   80  201 1    
   160   81  202 1    
   161   81  203 1    
   162   81  204 1    
   163   82   83 2    
   164   82   84 am   BACKBONE|DICT|INTERRES
   165   84   85 1    
   166   84  205 1    
   167   85   86 1    
   168   85   87 1    
   169   85  206 1    
   170   86  207 1    
   171   86  208 1    
   172   86  209 1    
   173   87   88 2    
   174   87   89 am   BACKBONE|DICT|INTERRES
   175   89   90 1    
   176   89  210 1    
   177   90   91 1    
   178   90   92 1    
   179   90  211 1    
   180   91  212 1    
   181   91  213 1    
   182   91  214 1    
   183   92   93 2    
   184   92   94 am   BACKBONE|DICT|INTERRES
   185   94   95 1    
   186   94  215 1    
   187   95   96 1    
   188   95   97 1    
   189   95  216 1    
   190   96  217 1    
   191   96  218 1    
   192   96  219 1    
   193   97   98 2    
   194   97   99 am   BACKBONE|DICT|INTERRES
   195   99  100 1    
   196   99  220 1    
   197  100  101 1    
   198  100  102 1    
   199  100  221 1    
   200  101  222 1    
   201  101  223 1    
   202  101  224 1    
   203  102  103 2    
   204  102  104 am   BACKBONE|DICT|INTERRES
   205  104  105 1    
   206  104  225 1    
   207  105  106 1    
   208  105  107 1    
   209  105  226 1    
   210  106  227 1    
   211  106  228 1    
   212  106  229 1    
   213  107  108 2    
   214  107  109 am   BACKBONE|DICT|INTERRES
   215  109  110 1    
   216  109  230 1    
   217  110  111 1    
   218  110  112 1    
   219  110  231 1    
   220  111  232 1    
   221  111  233 1    
   222  111  234 1    
   223  112  113 2    
   224  112  114 am   BACKBONE|DICT|INTERRES
   225  114  115 1    
   226  114  235 1    
   227  115  116 1    
   228  115  117 1    
   229  115  236 1    
   230  116  237 1    
   231  116  238 1    
   232  116  239 1    
   233  117  118 2    
   234  117  119 am   BACKBONE|DICT|INTERRES
   235  119  120 1    
   236  119  240 1    
   237  120  121 1    
   238  120  124 1    
   239  120  241 1    
   240  121  122 am   BACKBONE|DICT|INTERRES
   241  121  123 2    
   242  122  242 1    
   243  122  243 1    
   244  124  125 1    
   245  124  244 1    
   246  124  245 1    
   247  125  126 1    
   248  126  246 1    
   249  126  247 1    
@<TRIPOS>SUBSTRUCTURE
     1 UNK         1 GROUP             0       ****    0 ROOT    
