@<TRIPOS>MOLECULE
3R540
247   249    1
SMALL
USER_CHARGES


@<TRIPOS>ATOM
      1 CA          1.6519   -9.8514  -51.9692 C.3       0 UNK        -0.1800 
      2 C           1.0726  -11.2618  -51.8757 C.2       0 UNK         0.5000 
      3 O          -0.0669  -11.4727  -52.2848 O.2       0 UNK        -0.5000 
      4 N           1.8048  -12.2594  -51.3591 N.am      1 UNK        -0.5000 
      5 CA          3.1479  -12.1718  -50.7681 C.3       1 UNK         0.1400 
      6 C6          3.8251  -13.5625  -50.6527 C.3       23 UNK        -0.0398 
      7 S7          2.8463  -14.8097  -49.7399 S.3       23 UNK        -0.2404 
      8 C8          2.1235  -15.7535  -51.1211 C.3       23 UNK        -0.0205 
      9 C9          1.0908  -16.7577  -50.6351 C.ar      23 UNK        -0.0193 
     10 C10        -0.1097  -16.3121  -50.0759 C.ar      23 UNK        -0.1150 
     11 C11        -1.0715  -17.2247  -49.6349 C.ar      23 UNK        -0.0193 
     12 C12        -0.8300  -18.5952  -49.7612 C.ar      23 UNK        -0.1150 
     13 C13         0.3653  -19.0533  -50.3252 C.ar      23 UNK        -0.0193 
     14 C14         1.3205  -18.1302  -50.7614 C.ar      23 UNK        -0.1150 
     15 C15         0.6262  -20.5448  -50.4710 C.3       23 UNK        -0.0205 
     16 S16         1.9695  -21.1231  -49.3841 S.3       23 UNK        -0.2404 
     17 C17         1.2468  -20.8586  -47.7290 C.3       23 UNK        -0.0398 
     18 CA          0.7394  -22.1565  -47.0596 C.3       11 UNK         0.1400 
     19 N           0.4720  -21.9517  -45.6353 N.am      11 UNK        -0.5000 
     20 C           0.1731  -22.9214  -44.7610 C.2       10 UNK         0.5000 
     21 O           0.1265  -24.1143  -45.0527 O.2       10 UNK        -0.5000 
     22 CA         -0.1756  -22.4864  -43.3284 C.3       10 UNK         0.1400 
     23 CB          1.1009  -22.2320  -42.5137 C.3       10 UNK        -0.1800 
     24 N          -1.0397  -21.3060  -43.2882 N.am      10 UNK        -0.5000 
     25 C          -2.2802  -21.2559  -43.7959 C.2       9 UNK         0.5000 
     26 O          -2.8361  -22.2099  -44.3395 O.2       9 UNK        -0.5000 
     27 CA         -3.0100  -19.9037  -43.7218 C.3       9 UNK         0.1400 
     28 CB         -3.5461  -19.6470  -42.3056 C.3       9 UNK        -0.1800 
     29 N          -2.1687  -18.7836  -44.1405 N.am      9 UNK        -0.5000 
     30 C          -1.6537  -18.6364  -45.3700 C.2       8 UNK         0.5000 
     31 O          -1.8508  -19.4202  -46.3006 O.2       8 UNK        -0.5000 
     32 CA         -0.7191  -17.4304  -45.5746 C.3       8 UNK         0.1400 
     33 CB         -1.5158  -16.1162  -45.6178 C.3       8 UNK        -0.1800 
     34 N           0.3035  -17.3291  -44.5340 N.am      8 UNK        -0.5000 
     35 C           1.2038  -18.2750  -44.2339 C.2       7 UNK         0.5000 
     36 O           1.3213  -19.3341  -44.8476 O.2       7 UNK        -0.5000 
     37 CA          2.0833  -18.0168  -43.0001 C.3       7 UNK         0.1400 
     38 CB          3.2341  -17.0556  -43.3355 C.3       7 UNK        -0.1800 
     39 N           1.3072  -17.4970  -41.8726 N.am      7 UNK        -0.5000 
     40 C           0.3720  -18.1954  -41.2111 C.2       6 UNK         0.5000 
     41 O           0.0780  -19.3613  -41.4679 O.2       6 UNK        -0.5000 
     42 CA         -0.3910  -17.4538  -40.0999 C.3       6 UNK         0.1400 
     43 CB          0.4216  -17.4437  -38.7966 C.3       6 UNK        -0.1800 
     44 N          -0.7243  -16.0808  -40.4761 N.am      6 UNK        -0.5000 
     45 C          -1.5881  -15.7484  -41.4460 C.2       5 UNK         0.5000 
     46 O          -2.2326  -16.5674  -42.1014 O.2       5 UNK        -0.5000 
     47 CA         -1.7006  -14.2464  -41.7702 C.3       5 UNK         0.1400 
     48 CB         -2.6867  -13.5565  -40.8158 C.3       5 UNK        -0.1800 
     49 N          -0.4040  -13.5617  -41.7160 N.am      5 UNK        -0.5000 
     50 C           0.6167  -13.8322  -42.5389 C.2       4 UNK         0.5000 
     51 O           0.5578  -14.6657  -43.4474 O.2       4 UNK        -0.5000 
     52 CA          1.9368  -13.0968  -42.2779 C.3       4 UNK         0.1400 
     53 CB          2.7141  -13.8019  -41.1465 C.3       4 UNK        -0.1800 
     54 N           2.6854  -13.1022  -43.5308 N.am      4 UNK        -0.5000 
     55 C           3.8783  -12.5529  -43.7806 C.2       3 UNK         0.5000 
     56 O           4.5648  -11.9661  -42.9434 O.2       3 UNK        -0.5000 
     57 CA          4.3636  -12.6457  -45.2399 C.3       3 UNK         0.1400 
     58 CB          4.8584  -14.0640  -45.5673 C.3       3 UNK        -0.1800 
     59 N           3.3326  -12.2580  -46.2072 N.am      3 UNK        -0.5000 
     60 C           2.7988  -11.0312  -46.3063 C.2       2 UNK         0.5000 
     61 O           3.1176  -10.0887  -45.5787 O.2       2 UNK        -0.5000 
     62 CA          1.7411  -10.8286  -47.4143 C.3       2 UNK         0.1400 
     63 CB          1.4522   -9.3406  -47.7036 C.3       2 UNK        -0.1800 
     64 N           2.0468  -11.5319  -48.6662 N.am      2 UNK        -0.5000 
     65 C           3.1521  -11.4162  -49.4211 C.2       1 UNK         0.5000 
     66 O           4.1261  -10.7240  -49.1243 O.2       1 UNK        -0.5000 
     67 C          -0.4849  -22.7482  -47.7880 C.2       11 UNK         0.5000 
     68 O          -0.3419  -23.7439  -48.4985 O.2       11 UNK        -0.5000 
     69 N          -1.6696  -22.1598  -47.5661 N.am      12 UNK        -0.5000 
     70 CA         -2.9371  -22.6401  -48.1199 C.3       12 UNK         0.1400 
     71 CB         -4.0480  -21.6278  -47.8073 C.3       12 UNK        -0.1800 
     72 C          -3.3099  -24.0506  -47.6211 C.2       12 UNK         0.5000 
     73 O          -3.7469  -24.8811  -48.4184 O.2       12 UNK        -0.5000 
     74 N          -3.0884  -24.3141  -46.3251 N.am      13 UNK        -0.5000 
     75 CA         -3.2907  -25.6204  -45.6972 C.3       13 UNK         0.1400 
     76 CB         -3.1776  -25.4852  -44.1714 C.3       13 UNK        -0.1800 
     77 C          -2.3236  -26.6974  -46.2232 C.2       13 UNK         0.5000 
     78 O          -2.7563  -27.8227  -46.4720 O.2       13 UNK        -0.5000 
     79 N          -1.0455  -26.3339  -46.4032 N.am      14 UNK        -0.5000 
     80 CA         -0.0011  -27.1983  -46.9567 C.3       14 UNK         0.1400 
     81 CB          1.3747  -26.5431  -46.7618 C.3       14 UNK        -0.1800 
     82 C          -0.2350  -27.5365  -48.4389 C.2       14 UNK         0.5000 
     83 O          -0.0230  -28.6822  -48.8388 O.2       14 UNK        -0.5000 
     84 N          -0.6892  -26.5456  -49.2194 N.am      15 UNK        -0.5000 
     85 CA         -1.1013  -26.7161  -50.6131 C.3       15 UNK         0.1400 
     86 CB         -1.2964  -25.3355  -51.2585 C.3       15 UNK        -0.1800 
     87 C          -2.3857  -27.5544  -50.7540 C.2       15 UNK         0.5000 
     88 O          -2.5292  -28.2775  -51.7405 O.2       15 UNK        -0.5000 
     89 N          -3.2876  -27.4272  -49.7680 N.am      16 UNK        -0.5000 
     90 CA         -4.6207  -28.0325  -49.6843 C.3       16 UNK         0.1400 
     91 CB         -4.5235  -29.5664  -49.5537 C.3       16 UNK        -0.1800 
     92 C          -5.5427  -27.5730  -50.8336 C.2       16 UNK         0.5000 
     93 O          -6.3701  -28.3459  -51.3209 O.2       16 UNK        -0.5000 
     94 N          -5.3645  -26.3165  -51.2531 N.am      17 UNK        -0.5000 
     95 CA         -6.0122  -25.6749  -52.3882 C.3       17 UNK         0.1400 
     96 CB         -5.4232  -26.2198  -53.7048 C.3       17 UNK        -0.1800 
     97 C          -5.7869  -24.1611  -52.2772 C.2       17 UNK         0.5000 
     98 O          -4.9611  -23.7161  -51.4734 O.2       17 UNK        -0.5000 
     99 N          -6.4995  -23.3945  -53.1106 N.am      18 UNK        -0.5000 
    100 CA        -6.4253  -21.9349  -53.2030 C.3       18 UNK         0.1400 
    101 CB        -7.7099  -21.4162  -53.8746 C.3       18 UNK        -0.1800 
    102 C         -5.1459  -21.4433  -53.9153 C.2       18 UNK         0.5000 
    103 O         -5.2248  -20.7206  -54.9113 O.2       18 UNK        -0.5000 
    104 N         -3.9806  -21.8414  -53.3910 N.am      19 UNK        -0.5000 
    105 CA        -2.6605  -21.3635  -53.7988 C.3       19 UNK         0.1400 
    106 CB        -1.5845  -22.1385  -53.0268 C.3       19 UNK        -0.1800 
    107 C         -2.5386  -19.8500  -53.5537 C.2       19 UNK         0.5000 
    108 O         -2.9420  -19.3803  -52.4897 O.2       19 UNK        -0.5000 
    109 N         -2.0610  -19.1131  -54.5668 N.am      20 UNK        -0.5000 
    110 CA        -2.0150  -17.6432  -54.6277 C.3       20 UNK         0.1400 
    111 CB        -1.0054  -17.0881  -53.6018 C.3       20 UNK        -0.1800 
    112 C         -3.4085  -16.9765  -54.5089 C.2       20 UNK         0.5000 
    113 O         -3.5027  -15.8219  -54.0919 O.2       20 UNK        -0.5000 
    114 N         -4.4612  -17.7276  -54.8731 N.am      21 UNK        -0.5000 
    115 CA        -5.8898  -17.4181  -54.7472 C.3       21 UNK         0.1400 
    116 CB        -6.2668  -16.1401  -55.5254 C.3       21 UNK        -0.1800 
    117 C         -6.4066  -17.4014  -53.2912 C.2       21 UNK         0.5000 
    118 O         -7.5399  -16.9734  -53.0624 O.2       21 UNK        -0.5000 
    119 N         -5.6089  -17.8929  -52.3329 N.am      22 UNK        -0.5000 
    120 CA        -5.9336  -17.9641  -50.8980 C.3       22 UNK         0.1400 
    121 C         -6.9226  -19.1163  -50.5524 C.2       22 UNK         0.5000 
    122 N         -8.0762  -19.1757  -51.2029 N.am      22 UNK        -0.7600 
    123 O         -6.6572  -19.9595  -49.7008 O.2       22 UNK        -0.5000 
    124 C124       -4.6546  -17.9765  -50.0211 C.3       23 UNK        -0.0398 
    125 S125       -3.6636  -16.4612  -50.2418 S.3       23 UNK        -0.2404 
    126 C126       -2.3580  -16.7186  -49.0066 C.3       23 UNK        -0.0205 
    127 H127        1.7251   -9.3965  -50.9818 H         1 UNK         0.0600 
    128 H128        1.0081   -9.2170  -52.5789 H         1 UNK         0.0600 
    129 H129        2.6382   -9.8550  -52.4318 H         1 UNK         0.0600 
    130 H130        1.3876  -13.1769  -51.3150 H         1 UNK         0.3000 
    131 H131        3.7685  -11.5874  -51.4495 H         1 UNK         0.0600 
    132 H132        4.0384  -13.9432  -51.6525 H         1 UNK         0.0800 
    133 H133        4.7999  -13.4723  -50.1696 H         1 UNK         0.0800 
    134 H134        2.9244  -16.2572  -51.6647 H         1 UNK         0.0800 
    135 H135        1.6474  -15.0774  -51.8317 H         1 UNK         0.0800 
    136 H136       -0.2942  -15.2513  -49.9818 H         1 UNK         0.1150 
    137 H137       -1.5736  -19.3025  -49.4210 H         1 UNK         0.1150 
    138 H138        2.2441  -18.4853  -51.1965 H         1 UNK         0.1150 
    139 H139       -0.2783  -21.1185  -50.2662 H         1 UNK         0.0800 
    140 H140        0.8959  -20.7573  -51.5060 H         1 UNK         0.0800 
    141 H141        0.4622  -20.1022  -47.7600 H         1 UNK         0.0800 
    142 H142        2.0423  -20.4271  -47.1209 H         1 UNK         0.0800 
    143 H143        1.5400  -22.8969  -47.1208 H         1 UNK         0.0600 
    144 H144        0.5357  -20.9938  -45.2992 H         1 UNK         0.3000 
    145 H145       -0.7180  -23.3082  -42.8568 H         1 UNK         0.0600 
    146 H146        0.8665  -22.0241  -41.4697 H         1 UNK         0.0600 
    147 H147        1.7568  -23.1032  -42.5317 H         1 UNK         0.0600 
    148 H148        1.6663  -21.3859  -42.9051 H         1 UNK         0.0600 
    149 H149       -0.6624  -20.4865  -42.8195 H         1 UNK         0.3000 
    150 H150       -3.8617  -19.9505  -44.4035 H         1 UNK         0.0600 
    151 H151       -4.1855  -20.4664  -41.9748 H         1 UNK         0.0600 
    152 H152       -4.1416  -18.7345  -42.2701 H         1 UNK         0.0600 
    153 H153       -2.7382  -19.5457  -41.5803 H         1 UNK         0.0600 
    154 H154       -1.9773  -18.0741  -43.4402 H         1 UNK         0.3000 
    155 H155       -0.2161  -17.5629  -46.5349 H         1 UNK         0.0600 
    156 H156       -1.8458  -15.8130  -44.6255 H         1 UNK         0.0600 
    157 H157       -0.9122  -15.3060  -46.0273 H         1 UNK         0.0600 
    158 H158       -2.4119  -16.2056  -46.2296 H         1 UNK         0.0600 
    159 H159        0.3125  -16.4648  -43.9991 H         1 UNK         0.3000 
    160 H160        2.5191  -18.9710  -42.6969 H         1 UNK         0.0600 
    161 H161        2.8692  -16.0727  -43.6319 H         1 UNK         0.0600 
    162 H162        3.8349  -17.4416  -44.1600 H         1 UNK         0.0600 
    163 H163        3.9009  -16.9252  -42.4833 H         1 UNK         0.0600 
    164 H164        1.4554  -16.5321  -41.6232 H         1 UNK         0.3000 
    165 H165       -1.3231  -17.9930  -39.9178 H         1 UNK         0.0600 
    166 H166       -0.1432  -16.9867  -37.9838 H         1 UNK         0.0600 
    167 H167        0.6720  -18.4590  -38.4860 H         1 UNK         0.0600 
    168 H168        1.3571  -16.8937  -38.9066 H         1 UNK         0.0600 
    169 H169       -0.2424  -15.3422  -39.9861 H         1 UNK         0.3000 
    170 H170       -2.0898  -14.1539  -42.7862 H         1 UNK         0.0600 
    171 H171       -3.6645  -14.0389  -40.8505 H         1 UNK         0.0600 
    172 H172       -2.3404  -13.5900  -39.7822 H         1 UNK         0.0600 
    173 H173       -2.8321  -12.5109  -41.0878 H         1 UNK         0.0600 
    174 H174       -0.2874  -12.8664  -40.9927 H         1 UNK         0.3000 
    175 H175        1.7215  -12.0638  -41.9993 H         1 UNK         0.0600 
    176 H176        3.0239  -14.8062  -41.4335 H         1 UNK         0.0600 
    177 H177        3.6086  -13.2468  -40.8661 H         1 UNK         0.0600 
    178 H178        2.1065  -13.8906  -40.2452 H         1 UNK         0.0600 
    179 H179        2.1930  -13.5694  -44.2823 H         1 UNK         0.3000 
    180 H180        5.2046  -11.9586  -45.3544 H         1 UNK         0.0600 
    181 H181        4.0495  -14.7946  -45.5312 H         1 UNK         0.0600 
    182 H182        5.6227  -14.3849  -44.8583 H         1 UNK         0.0600 
    183 H183        5.3011  -14.1058  -46.5627 H         1 UNK         0.0600 
    184 H184        3.0264  -12.9678  -46.8566 H         1 UNK         0.3000 
    185 H185        0.8206  -11.2718  -47.0316 H         1 UNK         0.0600 
    186 H186        1.1021   -8.8261  -46.8079 H         1 UNK         0.0600 
    187 H187        2.3419   -8.8177  -48.0560 H         1 UNK         0.0600 
    188 H188        0.6767   -9.2301  -48.4617 H         1 UNK         0.0600 
    189 H189        1.3169  -12.1397  -49.0109 H         1 UNK         0.3000 
    190 H190       -1.7133  -21.3370  -46.9722 H         1 UNK         0.3000 
    191 H191       -2.8269  -22.6939  -49.2053 H         1 UNK         0.0600 
    192 H192       -4.1903  -21.5034  -46.7333 H         1 UNK         0.0600 
    193 H193       -4.9995  -21.9493  -48.2332 H         1 UNK         0.0600 
    194 H194       -3.8190  -20.6490  -48.2293 H         1 UNK         0.0600 
    195 H195       -2.7748  -23.5617  -45.7178 H         1 UNK         0.3000 
    196 H196       -4.3062  -25.9466  -45.9312 H         1 UNK         0.0600 
    197 H197       -3.3450  -26.4445  -43.6801 H         1 UNK         0.0600 
    198 H198       -3.9184  -24.7866  -43.7820 H         1 UNK         0.0600 
    199 H199       -2.1922  -25.1291  -43.8705 H         1 UNK         0.0600 
    200 H200       -0.7524  -25.4048  -46.1110 H         1 UNK         0.3000 
    201 H201       -0.0112  -28.1359  -46.3972 H         1 UNK         0.0600 
    202 H202        1.5915  -26.3909  -45.7044 H         1 UNK         0.0600 
    203 H203        1.4330  -25.5739  -47.2583 H         1 UNK         0.0600 
    204 H204        2.1687  -27.1703  -47.1689 H         1 UNK         0.0600 
    205 H205       -0.7643  -25.6087  -48.8317 H         1 UNK         0.3000 
    206 H206       -0.3015  -27.2343  -51.1461 H         1 UNK         0.0600 
    207 H207       -0.3757  -24.7523  -51.2318 H         1 UNK         0.0600 
    208 H208       -1.5911  -25.4346  -52.3037 H         1 UNK         0.0600 
    209 H209       -2.0716  -24.7585  -50.7524 H         1 UNK         0.0600 
    210 H210       -3.0893  -26.7442  -49.0452 H         1 UNK         0.3000 
    211 H211       -5.0670  -27.6509  -48.7649 H         1 UNK         0.0600 
    212 H212       -4.1439  -30.0290  -50.4650 H         1 UNK         0.0600 
    213 H213       -5.5011  -30.0034  -49.3479 H         1 UNK         0.0600 
    214 H214       -3.8632  -29.8483  -48.7332 H         1 UNK         0.0600 
    215 H215       -4.7137  -25.7154  -50.7587 H         1 UNK         0.3000 
    216 H216       -7.0854  -25.8709  -52.3475 H         1 UNK         0.0600 
    217 H217       -4.3477  -26.0456  -53.7623 H         1 UNK         0.0600 
    218 H218       -5.8807  -25.7442  -54.5728 H         1 UNK         0.0600 
    219 H219       -5.5910  -27.2922  -53.8038 H         1 UNK         0.0600 
    220 H220       -7.1270  -23.8437  -53.7620 H         1 UNK         0.3000 
    221 H221       -6.3957  -21.5306  -52.1897 H         1 UNK         0.0600 
    222 H222       -8.5956  -21.7129  -53.3128 H         1 UNK         0.0600 
    223 H223       -7.8139  -21.7944  -54.8923 H         1 UNK         0.0600 
    224 H224       -7.7129  -20.3268  -53.9266 H         1 UNK         0.0600 
    225 H225       -4.0216  -22.4349  -52.5680 H         1 UNK         0.3000 
    226 H226       -2.5399  -21.5661  -54.8649 H         1 UNK         0.0600 
    227 H227       -1.6121  -23.1975  -53.2807 H         1 UNK         0.0600 
    228 H228       -0.5863  -21.7729  -53.2697 H         1 UNK         0.0600 
    229 H229       -1.7205  -22.0481  -51.9486 H         1 UNK         0.0600 
    230 H230       -1.7678  -19.5879  -55.4096 H         1 UNK         0.3000 
    231 H231       -1.6451  -17.3908  -55.6223 H         1 UNK         0.0600 
    232 H232       -0.0369  -17.5802  -53.6892 H         1 UNK         0.0600 
    233 H233       -1.3587  -17.2255  -52.5799 H         1 UNK         0.0600 
    234 H234       -0.8414  -16.0199  -53.7468 H         1 UNK         0.0600 
    235 H235       -4.2731  -18.6764  -55.1734 H         1 UNK         0.3000 
    236 H236       -6.4086  -18.2479  -55.2286 H         1 UNK         0.0600 
    237 H237       -7.3497  -16.0280  -55.5888 H         1 UNK         0.0600 
    238 H238       -5.8776  -15.2413  -55.0471 H         1 UNK         0.0600 
    239 H239       -5.8857  -16.1715  -56.5461 H         1 UNK         0.0600 
    240 H240       -4.6917  -18.2446  -52.5850 H         1 UNK         0.3000 
    241 H241       -6.4701  -17.0500  -50.6362 H         1 UNK         0.0600 
    242 H242       -8.7410  -19.9013  -50.9880 H         1 UNK         0.3800 
    243 H243       -8.2899  -18.4699  -51.8982 H         1 UNK         0.3800 
    244 H244       -4.0399  -18.8505  -50.2373 H         1 UNK         0.0800 
    245 H245       -4.9239  -18.0457  -48.9657 H         1 UNK         0.0800 
    246 H246       -2.1693  -15.7664  -48.5100 H         1 UNK         0.0800 
    247 H247       -2.6965  -17.4108  -48.2347 H         1 UNK         0.0800 
@<TRIPOS>BOND
     1    1    2 1    
     2    1  127 1    
     3    1  128 1    
     4    1  129 1    
     5    2    3 2    
     6    2    4 am   BACKBONE|DICT|INTERRES
     7    4    5 1    
     8    4  130 1    
     9    5    6 1    
    10    5   65 1    
    11    5  131 1    
    12    6    7 1    
    13    6  132 1    
    14    6  133 1    
    15    7    8 1    
    16    8    9 1    
    17    8  134 1    
    18    8  135 1    
    19    9   10 ar   
    20    9   14 ar   
    21   10   11 ar   
    22   10  136 1    
    23   11   12 ar   
    24   11  126 1    
    25   12   13 ar   
    26   12  137 1    
    27   13   14 ar   
    28   13   15 1    
    29   14  138 1    
    30   15   16 1    
    31   15  139 1    
    32   15  140 1    
    33   16   17 1    
    34   17   18 1    
    35   17  141 1    
    36   17  142 1    
    37   18   19 1    
    38   18   67 1    
    39   18  143 1    
    40   19   20 am   BACKBONE|DICT|INTERRES
    41   19  144 1    
    42   20   21 2    
    43   20   22 1    
    44   22   23 1    
    45   22   24 1    
    46   22  145 1    
    47   23  146 1    
    48   23  147 1    
    49   23  148 1    
    50   24   25 am   BACKBONE|DICT|INTERRES
    51   24  149 1    
    52   25   26 2    
    53   25   27 1    
    54   27   28 1    
    55   27   29 1    
    56   27  150 1    
    57   28  151 1    
    58   28  152 1    
    59   28  153 1    
    60   29   30 am   BACKBONE|DICT|INTERRES
    61   29  154 1    
    62   30   31 2    
    63   30   32 1    
    64   32   33 1    
    65   32   34 1    
    66   32  155 1    
    67   33  156 1    
    68   33  157 1    
    69   33  158 1    
    70   34   35 am   BACKBONE|DICT|INTERRES
    71   34  159 1    
    72   35   36 2    
    73   35   37 1    
    74   37   38 1    
    75   37   39 1    
    76   37  160 1    
    77   38  161 1    
    78   38  162 1    
    79   38  163 1    
    80   39   40 am   BACKBONE|DICT|INTERRES
    81   39  164 1    
    82   40   41 2    
    83   40   42 1    
    84   42   43 1    
    85   42   44 1    
    86   42  165 1    
    87   43  166 1    
    88   43  167 1    
    89   43  168 1    
    90   44   45 am   BACKBONE|DICT|INTERRES
    91   44  169 1    
    92   45   46 2    
    93   45   47 1    
    94   47   48 1    
    95   47   49 1    
    96   47  170 1    
    97   48  171 1    
    98   48  172 1    
    99   48  173 1    
   100   49   50 am   BACKBONE|DICT|INTERRES
   101   49  174 1    
   102   50   51 2    
   103   50   52 1    
   104   52   53 1    
   105   52   54 1    
   106   52  175 1    
   107   53  176 1    
   108   53  177 1    
   109   53  178 1    
   110   54   55 am   BACKBONE|DICT|INTERRES
   111   54  179 1    
   112   55   56 2    
   113   55   57 1    
   114   57   58 1    
   115   57   59 1    
   116   57  180 1    
   117   58  181 1    
   118   58  182 1    
   119   58  183 1    
   120   59   60 am   BACKBONE|DICT|INTERRES
   121   59  184 1    
   122   60   61 2    
   123   60   62 1    
   124   62   63 1    
   125   62   64 1    
   126   62  185 1    
   127   63  186 1    
   128   63  187 1    
   129   63  188 1    
   130   64   65 am   BACKBONE|DICT|INTERRES
   131   64  189 1    
   132   65   66 2    
   133   67   68 2    
   134   67   69 am   BACKBONE|DICT|INTERRES
   135   69   70 1    
   136   69  190 1    
   137   70   71 1    
   138   70   72 1    
   139   70  191 1    
   140   71  192 1    
   141   71  193 1    
   142   71  194 1    
   143   72   73 2    
   144   72   74 am   BACKBONE|DICT|INTERRES
   145   74   75 1    
   146   74  195 1    
   147   75   76 1    
   148   75   77 1    
   149   75  196 1    
   150   76  197 1    
   151   76  198 1    
   152   76  199 1    
   153   77   78 2    
   154   77   79 am   BACKBONE|DICT|INTERRES
   155   79   80 1    
   156   79  200 1    
   157   80   81 1    
   158   80   82 1    
   159   80  201 1    
   160   81  202 1    
   161   81  203 1    
   162   81  204 1    
   163   82   83 2    
   164   82   84 am   BACKBONE|DICT|INTERRES
   165   84   85 1    
   166   84  205 1    
   167   85   86 1    
   168   85   87 1    
   169   85  206 1    
   170   86  207 1    
   171   86  208 1    
   172   86  209 1    
   173   87   88 2    
   174   87   89 am   BACKBONE|DICT|INTERRES
   175   89   90 1    
   176   89  210 1    
   177   90   91 1    
   178   90   92 1    
   179   90  211 1    
   180   91  212 1    
   181   91  213 1    
   182   91  214 1    
   183   92   93 2    
   184   92   94 am   BACKBONE|DICT|INTERRES
   185   94   95 1    
   186   94  215 1    
   187   95   96 1    
   188   95   97 1    
   189   95  216 1    
   190   96  217 1    
   191   96  218 1    
   192   96  219 1    
   193   97   98 2    
   194   97   99 am   BACKBONE|DICT|INTERRES
   195   99  100 1    
   196   99  220 1    
   197  100  101 1    
   198  100  102 1    
   199  100  221 1    
   200  101  222 1    
   201  101  223 1    
   202  101  224 1    
   203  102  103 2    
   204  102  104 am   BACKBONE|DICT|INTERRES
   205  104  105 1    
   206  104  225 1    
   207  105  106 1    
   208  105  107 1    
   209  105  226 1    
   210  106  227 1    
   211  106  228 1    
   212  106  229 1    
   213  107  108 2    
   214  107  109 am   BACKBONE|DICT|INTERRES
   215  109  110 1    
   216  109  230 1    
   217  110  111 1    
   218  110  112 1    
   219  110  231 1    
   220  111  232 1    
   221  111  233 1    
   222  111  234 1    
   223  112  113 2    
   224  112  114 am   BACKBONE|DICT|INTERRES
   225  114  115 1    
   226  114  235 1    
   227  115  116 1    
   228  115  117 1    
   229  115  236 1    
   230  116  237 1    
   231  116  238 1    
   232  116  239 1    
   233  117  118 2    
   234  117  119 am   BACKBONE|DICT|INTERRES
   235  119  120 1    
   236  119  240 1    
   237  120  121 1    
   238  120  124 1    
   239  120  241 1    
   240  121  122 am   BACKBONE|DICT|INTERRES
   241  121  123 2    
   242  122  242 1    
   243  122  243 1    
   244  124  125 1    
   245  124  244 1    
   246  124  245 1    
   247  125  126 1    
   248  126  246 1    
   249  126  247 1    
@<TRIPOS>SUBSTRUCTURE
     1 UNK         1 GROUP             0       ****    0 ROOT    
