@<TRIPOS>MOLECULE
3R540
247   249    1
SMALL
USER_CHARGES


@<TRIPOS>ATOM
      1 CA          8.7167  -10.3454  -45.8730 C.3       0 UNK        -0.1800 
      2 C           7.3707  -11.0565  -45.8552 C.2       0 UNK         0.5000 
      3 O           6.5758  -10.8396  -44.9401 O.2       0 UNK        -0.5000 
      4 N           7.1171  -11.9092  -46.8556 N.am      1 UNK        -0.5000 
      5 CA          5.8535  -12.6267  -47.0427 C.3       1 UNK         0.1400 
      6 C6          6.0260  -13.8057  -48.0310 C.3       23 UNK        -0.0398 
      7 S7          4.6426  -14.9992  -47.9903 S.3       23 UNK        -0.2404 
      8 C8          4.0053  -14.8183  -49.6834 C.3       23 UNK        -0.0205 
      9 C9          2.8761  -15.7952  -49.9685 C.ar      23 UNK        -0.0193 
     10 C10         1.5466  -15.3687  -49.9302 C.ar      23 UNK        -0.1150 
     11 C11         0.5064  -16.2575  -50.2177 C.ar      23 UNK        -0.0193 
     12 C12         0.8065  -17.5793  -50.5616 C.ar      23 UNK        -0.1150 
     13 C13         2.1341  -18.0209  -50.5973 C.ar      23 UNK        -0.0193 
     14 C14         3.1627  -17.1232  -50.2961 C.ar      23 UNK        -0.1150 
     15 C15         2.4691  -19.4544  -50.9907 C.3       23 UNK        -0.0205 
     16 S16         2.3837  -20.6082  -49.5846 S.3       23 UNK        -0.2404 
     17 C17         0.5822  -20.7939  -49.3836 C.3       23 UNK        -0.0398 
     18 CA          0.1916  -22.0302  -48.5376 C.3       11 UNK         0.1400 
     19 N           0.6222  -21.9346  -47.1356 N.am      11 UNK        -0.5000 
     20 C           0.4765  -22.9094  -46.2240 C.2       10 UNK         0.5000 
     21 O           0.0313  -24.0270  -46.4847 O.2       10 UNK        -0.5000 
     22 CA          0.8281  -22.5723  -44.7630 C.3       10 UNK         0.1400 
     23 CB          2.3380  -22.6938  -44.5099 C.3       10 UNK        -0.1800 
     24 N           0.3523  -21.2487  -44.3588 N.am      10 UNK        -0.5000 
     25 C          -0.9406  -20.9005  -44.2801 C.2       9 UNK         0.5000 
     26 O          -1.8691  -21.6805  -44.4859 O.2       9 UNK        -0.5000 
     27 CA         -1.2546  -19.4234  -43.9764 C.3       9 UNK         0.1400 
     28 CB         -1.1779  -19.1380  -42.4698 C.3       9 UNK        -0.1800 
     29 N          -0.3753  -18.5075  -44.7017 N.am      9 UNK        -0.5000 
     30 C          -0.3216  -18.4149  -46.0381 C.2       8 UNK         0.5000 
     31 O          -1.0636  -19.0366  -46.7989 O.2       8 UNK        -0.5000 
     32 CA          0.7803  -17.5172  -46.6221 C.3       8 UNK         0.1400 
     33 CB          0.3209  -16.0573  -46.6598 C.3       8 UNK        -0.1800 
     34 N           2.0374  -17.6197  -45.8814 N.am      8 UNK        -0.5000 
     35 C           2.7915  -18.7267  -45.8357 C.2       7 UNK         0.5000 
     36 O           2.5074  -19.7685  -46.4225 O.2       7 UNK        -0.5000 
     37 CA          4.0329  -18.6850  -44.9269 C.3       7 UNK         0.1400 
     38 CB          5.1793  -17.9098  -45.5923 C.3       7 UNK        -0.1800 
     39 N           3.7421  -18.0956  -43.6205 N.am      7 UNK        -0.5000 
     40 C           2.9062  -18.6247  -42.7154 C.2       6 UNK         0.5000 
     41 O           2.3488  -19.7124  -42.8547 O.2       6 UNK        -0.5000 
     42 CA          2.6066  -17.7721  -41.4669 C.3       6 UNK         0.1400 
     43 CB          3.5939  -18.1034  -40.3382 C.3       6 UNK        -0.1800 
     44 N           2.6393  -16.3308  -41.7335 N.am      6 UNK        -0.5000 
     45 C           1.8112  -15.6931  -42.5718 C.2       5 UNK         0.5000 
     46 O           0.9107  -16.2554  -43.1999 O.2       5 UNK        -0.5000 
     47 CA          2.1044  -14.1988  -42.7936 C.3       5 UNK         0.1400 
     48 CB          3.2652  -14.0333  -43.7902 C.3       5 UNK        -0.1800 
     49 N           0.9374  -13.4619  -43.2829 N.am      5 UNK        -0.5000 
     50 C          -0.1195  -13.1339  -42.5242 C.2       4 UNK         0.5000 
     51 O          -0.2135  -13.4429  -41.3347 O.2       4 UNK        -0.5000 
     52 CA         -1.2445  -12.2860  -43.1576 C.3       4 UNK         0.1400 
     53 CB         -1.2911  -10.8911  -42.5115 C.3       4 UNK        -0.1800 
     54 N          -1.1058  -12.1133  -44.6035 N.am      4 UNK        -0.5000 
     55 C          -1.6066  -12.9415  -45.5285 C.2       3 UNK         0.5000 
     56 O          -2.2913  -13.9290  -45.2608 O.2       3 UNK        -0.5000 
     57 CA         -1.2858  -12.6221  -47.0065 C.3       3 UNK         0.1400 
     58 CB         -2.4889  -11.9505  -47.6857 C.3       3 UNK        -0.1800 
     59 N          -0.0897  -11.7978  -47.2340 N.am      3 UNK        -0.5000 
     60 C           1.1473  -12.1208  -46.8385 C.2       2 UNK         0.5000 
     61 O           1.3976  -13.1082  -46.1452 O.2       2 UNK        -0.5000 
     62 CA          2.2905  -11.1809  -47.2436 C.3       2 UNK         0.1400 
     63 CB          2.2428   -9.8671  -46.4431 C.3       2 UNK        -0.1800 
     64 N           3.5314  -11.8891  -46.9635 N.am      2 UNK        -0.5000 
     65 C           4.7355  -11.6568  -47.4856 C.2       1 UNK         0.5000 
     66 O           4.9776  -10.7527  -48.2895 O.2       1 UNK        -0.5000 
     67 C          -1.3246  -22.2897  -48.6461 C.2       11 UNK         0.5000 
     68 O          -1.7293  -23.2145  -49.3503 O.2       11 UNK        -0.5000 
     69 N          -2.1268  -21.5065  -47.9103 N.am      12 UNK        -0.5000 
     70 CA         -3.5809  -21.6474  -47.8432 C.3       12 UNK         0.1400 
     71 CB         -4.1800  -20.4787  -47.0483 C.3       12 UNK        -0.1800 
     72 C          -4.0265  -22.9991  -47.2577 C.2       12 UNK         0.5000 
     73 O          -4.9440  -23.6137  -47.8006 O.2       12 UNK        -0.5000 
     74 N          -3.3527  -23.4548  -46.1919 N.am      13 UNK        -0.5000 
     75 CA         -3.5808  -24.7514  -45.5530 C.3       13 UNK         0.1400 
     76 CB         -2.7817  -24.8369  -44.2445 C.3       13 UNK        -0.1800 
     77 C          -3.2481  -25.9369  -46.4757 C.2       13 UNK         0.5000 
     78 O          -4.0409  -26.8753  -46.5595 O.2       13 UNK        -0.5000 
     79 N          -2.1157  -25.8574  -47.1902 N.am      14 UNK        -0.5000 
     80 CA         -1.6978  -26.8367  -48.1995 C.3       14 UNK         0.1400 
     81 CB         -0.2722  -26.5109  -48.6693 C.3       14 UNK        -0.1800 
     82 C          -2.6631  -26.9075  -49.3992 C.2       14 UNK         0.5000 
     83 O          -2.8801  -27.9869  -49.9501 O.2       14 UNK        -0.5000 
     84 N          -3.2581  -25.7603  -49.7455 N.am      15 UNK        -0.5000 
     85 CA         -4.2954  -25.6014  -50.7631 C.3       15 UNK         0.1400 
     86 CB         -4.2386  -24.1531  -51.2609 C.3       15 UNK        -0.1800 
     87 C          -5.7154  -25.9451  -50.2623 C.2       15 UNK         0.5000 
     88 O          -6.6784  -25.7380  -51.0075 O.2       15 UNK        -0.5000 
     89 N          -5.8319  -26.4091  -49.0064 N.am      16 UNK        -0.5000 
     90 CA         -7.0520  -26.7991  -48.2874 C.3       16 UNK         0.1400 
     91 CB         -7.6567  -28.0676  -48.9237 C.3       16 UNK        -0.1800 
     92 C          -8.0891  -25.6633  -48.1486 C.2       16 UNK         0.5000 
     93 O          -9.2803  -25.9386  -47.9975 O.2       16 UNK        -0.5000 
     94 N          -7.6219  -24.4089  -48.2510 N.am      17 UNK        -0.5000 
     95 CA         -8.3880  -23.1636  -48.3743 C.3       17 UNK         0.1400 
     96 CB         -9.1372  -22.8557  -47.0623 C.3       17 UNK        -0.1800 
     97 C          -9.3157  -23.1140  -49.6131 C.2       17 UNK         0.5000 
     98 O         -10.2026  -22.2608  -49.6702 O.2       17 UNK        -0.5000 
     99 N          -9.1014  -24.0182  -50.5793 N.am      18 UNK        -0.5000 
    100 CA        -9.9365  -24.2006  -51.7627 C.3       18 UNK         0.1400 
    101 CB       -10.2436  -25.6976  -51.9347 C.3       18 UNK        -0.1800 
    102 C         -9.2373  -23.6383  -53.0056 C.2       18 UNK         0.5000 
    103 O         -9.8293  -22.8297  -53.7212 O.2       18 UNK        -0.5000 
    104 N         -7.9840  -24.0580  -53.2306 N.am      19 UNK        -0.5000 
    105 CA        -7.1678  -23.6125  -54.3647 C.3       19 UNK         0.1400 
    106 CB        -6.2178  -24.7497  -54.7766 C.3       19 UNK        -0.1800 
    107 C         -6.3950  -22.3099  -54.0742 C.2       19 UNK         0.5000 
    108 O         -5.8391  -21.7212  -55.0024 O.2       19 UNK        -0.5000 
    109 N         -6.3579  -21.8967  -52.7976 N.am      20 UNK        -0.5000 
    110 CA        -5.6974  -20.7248  -52.2035 C.3       20 UNK         0.1400 
    111 CB        -6.2764  -19.4135  -52.7666 C.3       20 UNK        -0.1800 
    112 C         -4.1562  -20.7194  -52.2805 C.2       20 UNK         0.5000 
    113 O         -3.5156  -20.3829  -51.2852 O.2       20 UNK        -0.5000 
    114 N         -3.5981  -21.0763  -53.4469 N.am      21 UNK        -0.5000 
    115 CA        -2.1712  -21.0908  -53.7964 C.3       21 UNK         0.1400 
    116 CB        -1.4445  -22.2463  -53.0785 C.3       21 UNK        -0.1800 
    117 C         -1.4904  -19.7230  -53.5775 C.2       21 UNK         0.5000 
    118 O         -0.3776  -19.6573  -53.0579 O.2       21 UNK        -0.5000 
    119 N         -2.1933  -18.6519  -53.9553 N.am      22 UNK        -0.5000 
    120 CA        -1.8160  -17.2574  -53.7159 C.3       22 UNK         0.1400 
    121 C         -2.3020  -16.3766  -54.8963 C.2       22 UNK         0.5000 
    122 N         -1.5188  -15.3921  -55.3142 N.am      22 UNK        -0.7600 
    123 O         -3.3951  -16.5678  -55.4265 O.2       22 UNK        -0.5000 
    124 C124       -2.3824  -16.7790  -52.3542 C.3       23 UNK        -0.0398 
    125 S125       -1.5978  -15.2526  -51.7306 S.3       23 UNK        -0.2404 
    126 C126       -0.9369  -15.7872  -50.1216 C.3       23 UNK        -0.0205 
    127 H127        9.3206  -10.6407  -46.7315 H         1 UNK         0.0600 
    128 H128        9.2766  -10.5786  -44.9673 H         1 UNK         0.0600 
    129 H129        8.5699   -9.2662  -45.9161 H         1 UNK         0.0600 
    130 H130        7.7983  -12.0183  -47.5932 H         1 UNK         0.3000 
    131 H131        5.5787  -13.0449  -46.0712 H         1 UNK         0.0600 
    132 H132        6.9252  -14.3675  -47.7740 H         1 UNK         0.0800 
    133 H133        6.1879  -13.4395  -49.0464 H         1 UNK         0.0800 
    134 H134        3.6677  -13.7915  -49.8335 H         1 UNK         0.0800 
    135 H135        4.8140  -14.9860  -50.3964 H         1 UNK         0.0800 
    136 H136        1.3203  -14.3447  -49.6678 H         1 UNK         0.1150 
    137 H137        0.0063  -18.2660  -50.7974 H         1 UNK         0.1150 
    138 H138        4.1911  -17.4550  -50.3246 H         1 UNK         0.1150 
    139 H139        1.8110  -19.7943  -51.7889 H         1 UNK         0.0800 
    140 H140        3.4774  -19.4946  -51.4051 H         1 UNK         0.0800 
    141 H141        0.1419  -20.8636  -50.3807 H         1 UNK         0.0800 
    142 H142        0.1862  -19.8822  -48.9374 H         1 UNK         0.0800 
    143 H143        0.6921  -22.9009  -48.9666 H         1 UNK         0.0600 
    144 H144        1.0657  -21.0647  -46.8549 H         1 UNK         0.3000 
    145 H145        0.3277  -23.3062  -44.1281 H         1 UNK         0.0600 
    146 H146        2.6950  -23.6926  -44.7636 H         1 UNK         0.0600 
    147 H147        2.9099  -21.9822  -45.1041 H         1 UNK         0.0600 
    148 H148        2.5763  -22.5198  -43.4604 H         1 UNK         0.0600 
    149 H149        1.0616  -20.5624  -44.1220 H         1 UNK         0.3000 
    150 H150       -2.2769  -19.2262  -44.3052 H         1 UNK         0.0600 
    151 H151       -1.4020  -18.0933  -42.2527 H         1 UNK         0.0600 
    152 H152       -0.1912  -19.3604  -42.0658 H         1 UNK         0.0600 
    153 H153       -1.8984  -19.7476  -41.9234 H         1 UNK         0.0600 
    154 H154        0.2323  -17.9107  -44.1494 H         1 UNK         0.3000 
    155 H155        0.9672  -17.8428  -47.6470 H         1 UNK         0.0600 
    156 H156       -0.6296  -15.9620  -47.1842 H         1 UNK         0.0600 
    157 H157        1.0493  -15.4395  -47.1818 H         1 UNK         0.0600 
    158 H158        0.1836  -15.6439  -45.6608 H         1 UNK         0.0600 
    159 H159        2.3037  -16.8187  -45.3298 H         1 UNK         0.3000 
    160 H160        4.3632  -19.7141  -44.7699 H         1 UNK         0.0600 
    161 H161        5.3799  -18.2889  -46.5955 H         1 UNK         0.0600 
    162 H162        6.1016  -18.0024  -45.0188 H         1 UNK         0.0600 
    163 H163        4.9473  -16.8486  -45.6818 H         1 UNK         0.0600 
    164 H164        4.1637  -17.2020  -43.4183 H         1 UNK         0.3000 
    165 H165        1.6011  -18.0255  -41.1259 H         1 UNK         0.0600 
    166 H166        3.3428  -17.5657  -39.4237 H         1 UNK         0.0600 
    167 H167        3.5738  -19.1685  -40.1030 H         1 UNK         0.0600 
    168 H168        4.6185  -17.8464  -40.6097 H         1 UNK         0.0600 
    169 H169        3.3580  -15.8037  -41.2585 H         1 UNK         0.3000 
    170 H170        2.4060  -13.7601  -41.8401 H         1 UNK         0.0600 
    171 H171        3.4560  -12.9815  -44.0046 H         1 UNK         0.0600 
    172 H172        4.1892  -14.4521  -43.3903 H         1 UNK         0.0600 
    173 H173        3.0629  -14.5398  -44.7347 H         1 UNK         0.0600 
    174 H174        0.9290  -13.2449  -44.2747 H         1 UNK         0.3000 
    175 H175       -2.1893  -12.7888  -42.9408 H         1 UNK         0.0600 
    176 H176       -0.3660  -10.3385  -42.6803 H         1 UNK         0.0600 
    177 H177       -2.1144  -10.2987  -42.9114 H         1 UNK         0.0600 
    178 H178       -1.4393  -10.9617  -41.4331 H         1 UNK         0.0600 
    179 H179       -0.5506  -11.3304  -44.9151 H         1 UNK         0.3000 
    180 H180       -1.1130  -13.5785  -47.5008 H         1 UNK         0.0600 
    181 H181       -2.3226  -11.8318  -48.7566 H         1 UNK         0.0600 
    182 H182       -2.6890  -10.9650  -47.2634 H         1 UNK         0.0600 
    183 H183       -3.3926  -12.5495  -47.5647 H         1 UNK         0.0600 
    184 H184       -0.2247  -10.9581  -47.7786 H         1 UNK         0.3000 
    185 H185        2.2175  -10.9777  -48.3138 H         1 UNK         0.0600 
    186 H186        2.3023  -10.0499  -45.3693 H         1 UNK         0.0600 
    187 H187        3.0680   -9.2084  -46.7144 H         1 UNK         0.0600 
    188 H188        1.3187   -9.3208  -46.6347 H         1 UNK         0.0600 
    189 H189        3.3861  -12.6992  -46.3717 H         1 UNK         0.3000 
    190 H190       -1.7173  -20.7444  -47.3759 H         1 UNK         0.3000 
    191 H191       -3.9634  -21.5908  -48.8639 H         1 UNK         0.0600 
    192 H192       -3.8136  -20.4590  -46.0218 H         1 UNK         0.0600 
    193 H193       -5.2677  -20.5499  -47.0091 H         1 UNK         0.0600 
    194 H194       -3.9319  -19.5225  -47.5097 H         1 UNK         0.0600 
    195 H195       -2.6487  -22.8574  -45.7663 H         1 UNK         0.3000 
    196 H196       -4.6423  -24.8145  -45.3046 H         1 UNK         0.0600 
    197 H197       -2.9519  -25.7908  -43.7438 H         1 UNK         0.0600 
    198 H198       -3.0762  -24.0489  -43.5512 H         1 UNK         0.0600 
    199 H199       -1.7099  -24.7443  -44.4201 H         1 UNK         0.0600 
    200 H200       -1.4913  -25.0691  -47.0379 H         1 UNK         0.3000 
    201 H201       -1.6853  -27.8205  -47.7262 H         1 UNK         0.0600 
    202 H202        0.4318  -26.5365  -47.8374 H         1 UNK         0.0600 
    203 H203       -0.2150  -25.5215  -49.1243 H         1 UNK         0.0600 
    204 H204        0.0714  -27.2345  -49.4094 H         1 UNK         0.0600 
    205 H205       -2.9657  -24.9106  -49.2742 H         1 UNK         0.3000 
    206 H206       -4.0734  -26.2632  -51.6024 H         1 UNK         0.0600 
    207 H207       -4.8864  -24.0121  -52.1200 H         1 UNK         0.0600 
    208 H208       -4.5474  -23.4452  -50.4918 H         1 UNK         0.0600 
    209 H209       -3.2308  -23.8858  -51.5714 H         1 UNK         0.0600 
    210 H210       -4.9825  -26.4895  -48.4606 H         1 UNK         0.3000 
    211 H211       -6.7418  -27.0503  -47.2725 H         1 UNK         0.0600 
    212 H212       -8.0527  -27.8697  -49.9204 H         1 UNK         0.0600 
    213 H213       -8.4747  -28.4601  -48.3186 H         1 UNK         0.0600 
    214 H214       -6.9116  -28.8585  -49.0094 H         1 UNK         0.0600 
    215 H215       -6.6115  -24.2890  -48.2937 H         1 UNK         0.3000 
    216 H216       -7.6489  -22.3752  -48.5234 H         1 UNK         0.0600 
    217 H217       -9.5828  -21.8607  -47.0885 H         1 UNK         0.0600 
    218 H218       -8.4610  -22.8836  -46.2078 H         1 UNK         0.0600 
    219 H219       -9.9413  -23.5685  -46.8781 H         1 UNK         0.0600 
    220 H220       -8.3281  -24.6659  -50.4726 H         1 UNK         0.3000 
    221 H221      -10.8874  -23.6767  -51.6451 H         1 UNK         0.0600 
    222 H222       -9.3351  -26.2923  -52.0388 H         1 UNK         0.0600 
    223 H223      -10.7940  -26.0836  -51.0764 H         1 UNK         0.0600 
    224 H224      -10.8561  -25.8723  -52.8201 H         1 UNK         0.0600 
    225 H225       -7.5634  -24.7273  -52.5940 H         1 UNK         0.3000 
    226 H226       -7.8168  -23.4070  -55.2187 H         1 UNK         0.0600 
    227 H227       -6.7796  -25.6179  -55.1212 H         1 UNK         0.0600 
    228 H228       -5.5668  -24.4424  -55.5961 H         1 UNK         0.0600 
    229 H229       -5.5813  -25.0765  -53.9560 H         1 UNK         0.0600 
    230 H230       -6.8494  -22.4809  -52.1375 H         1 UNK         0.3000 
    231 H231       -5.9495  -20.7597  -51.1422 H         1 UNK         0.0600 
    232 H232       -6.0662  -19.2967  -53.8300 H         1 UNK         0.0600 
    233 H233       -7.3572  -19.3710  -52.6320 H         1 UNK         0.0600 
    234 H234       -5.8506  -18.5491  -52.2551 H         1 UNK         0.0600 
    235 H235       -4.2429  -21.3165  -54.1970 H         1 UNK         0.3000 
    236 H236       -2.1174  -21.2854  -54.8683 H         1 UNK         0.0600 
    237 H237       -1.4842  -22.1382  -51.9943 H         1 UNK         0.0600 
    238 H238       -1.8855  -23.2071  -53.3415 H         1 UNK         0.0600 
    239 H239       -0.3931  -22.2903  -53.3648 H         1 UNK         0.0600 
    240 H240       -3.0818  -18.7790  -54.4205 H         1 UNK         0.3000 
    241 H241       -0.7259  -17.1970  -53.6825 H         1 UNK         0.0600 
    242 H242       -1.8281  -14.8080  -56.0757 H         1 UNK         0.3800 
    243 H243       -0.6319  -15.2023  -54.8732 H         1 UNK         0.3800 
    244 H244       -3.4602  -16.6190  -52.4174 H         1 UNK         0.0800 
    245 H245       -2.2520  -17.5664  -51.6109 H         1 UNK         0.0800 
    246 H246       -1.5622  -16.5648  -49.6805 H         1 UNK         0.0800 
    247 H247       -0.9986  -14.9393  -49.4395 H         1 UNK         0.0800 
@<TRIPOS>BOND
     1    1    2 1    
     2    1  127 1    
     3    1  128 1    
     4    1  129 1    
     5    2    3 2    
     6    2    4 am   BACKBONE|DICT|INTERRES
     7    4    5 1    
     8    4  130 1    
     9    5    6 1    
    10    5   65 1    
    11    5  131 1    
    12    6    7 1    
    13    6  132 1    
    14    6  133 1    
    15    7    8 1    
    16    8    9 1    
    17    8  134 1    
    18    8  135 1    
    19    9   10 ar   
    20    9   14 ar   
    21   10   11 ar   
    22   10  136 1    
    23   11   12 ar   
    24   11  126 1    
    25   12   13 ar   
    26   12  137 1    
    27   13   14 ar   
    28   13   15 1    
    29   14  138 1    
    30   15   16 1    
    31   15  139 1    
    32   15  140 1    
    33   16   17 1    
    34   17   18 1    
    35   17  141 1    
    36   17  142 1    
    37   18   19 1    
    38   18   67 1    
    39   18  143 1    
    40   19   20 am   BACKBONE|DICT|INTERRES
    41   19  144 1    
    42   20   21 2    
    43   20   22 1    
    44   22   23 1    
    45   22   24 1    
    46   22  145 1    
    47   23  146 1    
    48   23  147 1    
    49   23  148 1    
    50   24   25 am   BACKBONE|DICT|INTERRES
    51   24  149 1    
    52   25   26 2    
    53   25   27 1    
    54   27   28 1    
    55   27   29 1    
    56   27  150 1    
    57   28  151 1    
    58   28  152 1    
    59   28  153 1    
    60   29   30 am   BACKBONE|DICT|INTERRES
    61   29  154 1    
    62   30   31 2    
    63   30   32 1    
    64   32   33 1    
    65   32   34 1    
    66   32  155 1    
    67   33  156 1    
    68   33  157 1    
    69   33  158 1    
    70   34   35 am   BACKBONE|DICT|INTERRES
    71   34  159 1    
    72   35   36 2    
    73   35   37 1    
    74   37   38 1    
    75   37   39 1    
    76   37  160 1    
    77   38  161 1    
    78   38  162 1    
    79   38  163 1    
    80   39   40 am   BACKBONE|DICT|INTERRES
    81   39  164 1    
    82   40   41 2    
    83   40   42 1    
    84   42   43 1    
    85   42   44 1    
    86   42  165 1    
    87   43  166 1    
    88   43  167 1    
    89   43  168 1    
    90   44   45 am   BACKBONE|DICT|INTERRES
    91   44  169 1    
    92   45   46 2    
    93   45   47 1    
    94   47   48 1    
    95   47   49 1    
    96   47  170 1    
    97   48  171 1    
    98   48  172 1    
    99   48  173 1    
   100   49   50 am   BACKBONE|DICT|INTERRES
   101   49  174 1    
   102   50   51 2    
   103   50   52 1    
   104   52   53 1    
   105   52   54 1    
   106   52  175 1    
   107   53  176 1    
   108   53  177 1    
   109   53  178 1    
   110   54   55 am   BACKBONE|DICT|INTERRES
   111   54  179 1    
   112   55   56 2    
   113   55   57 1    
   114   57   58 1    
   115   57   59 1    
   116   57  180 1    
   117   58  181 1    
   118   58  182 1    
   119   58  183 1    
   120   59   60 am   BACKBONE|DICT|INTERRES
   121   59  184 1    
   122   60   61 2    
   123   60   62 1    
   124   62   63 1    
   125   62   64 1    
   126   62  185 1    
   127   63  186 1    
   128   63  187 1    
   129   63  188 1    
   130   64   65 am   BACKBONE|DICT|INTERRES
   131   64  189 1    
   132   65   66 2    
   133   67   68 2    
   134   67   69 am   BACKBONE|DICT|INTERRES
   135   69   70 1    
   136   69  190 1    
   137   70   71 1    
   138   70   72 1    
   139   70  191 1    
   140   71  192 1    
   141   71  193 1    
   142   71  194 1    
   143   72   73 2    
   144   72   74 am   BACKBONE|DICT|INTERRES
   145   74   75 1    
   146   74  195 1    
   147   75   76 1    
   148   75   77 1    
   149   75  196 1    
   150   76  197 1    
   151   76  198 1    
   152   76  199 1    
   153   77   78 2    
   154   77   79 am   BACKBONE|DICT|INTERRES
   155   79   80 1    
   156   79  200 1    
   157   80   81 1    
   158   80   82 1    
   159   80  201 1    
   160   81  202 1    
   161   81  203 1    
   162   81  204 1    
   163   82   83 2    
   164   82   84 am   BACKBONE|DICT|INTERRES
   165   84   85 1    
   166   84  205 1    
   167   85   86 1    
   168   85   87 1    
   169   85  206 1    
   170   86  207 1    
   171   86  208 1    
   172   86  209 1    
   173   87   88 2    
   174   87   89 am   BACKBONE|DICT|INTERRES
   175   89   90 1    
   176   89  210 1    
   177   90   91 1    
   178   90   92 1    
   179   90  211 1    
   180   91  212 1    
   181   91  213 1    
   182   91  214 1    
   183   92   93 2    
   184   92   94 am   BACKBONE|DICT|INTERRES
   185   94   95 1    
   186   94  215 1    
   187   95   96 1    
   188   95   97 1    
   189   95  216 1    
   190   96  217 1    
   191   96  218 1    
   192   96  219 1    
   193   97   98 2    
   194   97   99 am   BACKBONE|DICT|INTERRES
   195   99  100 1    
   196   99  220 1    
   197  100  101 1    
   198  100  102 1    
   199  100  221 1    
   200  101  222 1    
   201  101  223 1    
   202  101  224 1    
   203  102  103 2    
   204  102  104 am   BACKBONE|DICT|INTERRES
   205  104  105 1    
   206  104  225 1    
   207  105  106 1    
   208  105  107 1    
   209  105  226 1    
   210  106  227 1    
   211  106  228 1    
   212  106  229 1    
   213  107  108 2    
   214  107  109 am   BACKBONE|DICT|INTERRES
   215  109  110 1    
   216  109  230 1    
   217  110  111 1    
   218  110  112 1    
   219  110  231 1    
   220  111  232 1    
   221  111  233 1    
   222  111  234 1    
   223  112  113 2    
   224  112  114 am   BACKBONE|DICT|INTERRES
   225  114  115 1    
   226  114  235 1    
   227  115  116 1    
   228  115  117 1    
   229  115  236 1    
   230  116  237 1    
   231  116  238 1    
   232  116  239 1    
   233  117  118 2    
   234  117  119 am   BACKBONE|DICT|INTERRES
   235  119  120 1    
   236  119  240 1    
   237  120  121 1    
   238  120  124 1    
   239  120  241 1    
   240  121  122 am   BACKBONE|DICT|INTERRES
   241  121  123 2    
   242  122  242 1    
   243  122  243 1    
   244  124  125 1    
   245  124  244 1    
   246  124  245 1    
   247  125  126 1    
   248  126  246 1    
   249  126  247 1    
@<TRIPOS>SUBSTRUCTURE
     1 UNK         1 GROUP             0       ****    0 ROOT    
