@<TRIPOS>MOLECULE
3R540
247   249    1
SMALL
USER_CHARGES


@<TRIPOS>ATOM
      1 CA          6.9139  -10.5617  -45.6074 C.3       0 UNK        -0.1800 
      2 C           5.5471  -11.2268  -45.5529 C.2       0 UNK         0.5000 
      3 O           4.7112  -10.8325  -44.7427 O.2       0 UNK        -0.5000 
      4 N           5.3115  -12.2161  -46.4249 N.am      1 UNK        -0.5000 
      5 CA          4.0983  -13.0451  -46.5383 C.3       1 UNK         0.1400 
      6 C6          4.2983  -14.0843  -47.6703 C.3       23 UNK        -0.0398 
      7 S7          3.0527  -15.4172  -47.7514 S.3       23 UNK        -0.2404 
      8 C8          2.5419  -15.2612  -49.4907 C.3       23 UNK        -0.0205 
      9 C9          1.6894  -16.4349  -49.9433 C.ar      23 UNK        -0.0193 
     10 C10         0.3248  -16.2684  -50.1889 C.ar      23 UNK        -0.1150 
     11 C11        -0.4499  -17.3385  -50.6450 C.ar      23 UNK        -0.0193 
     12 C12         0.1529  -18.5837  -50.8572 C.ar      23 UNK        -0.1150 
     13 C13         1.5216  -18.7636  -50.6187 C.ar      23 UNK        -0.0193 
     14 C14         2.2793  -17.6824  -50.1601 C.ar      23 UNK        -0.1150 
     15 C15         2.2195  -20.0943  -50.8939 C.3       23 UNK        -0.0205 
     16 S16         1.2930  -21.5669  -50.3529 S.3       23 UNK        -0.2404 
     17 C17         1.0237  -21.1970  -48.5877 C.3       23 UNK        -0.0398 
     18 CA          0.5413  -22.4132  -47.7611 C.3       11 UNK         0.1400 
     19 N           0.4880  -22.0999  -46.3316 N.am      11 UNK        -0.5000 
     20 C           0.2144  -22.9781  -45.3561 C.2       10 UNK         0.5000 
     21 O           0.0528  -24.1842  -45.5418 O.2       10 UNK        -0.5000 
     22 CA          0.0362  -22.4020  -43.9404 C.3       10 UNK         0.1400 
     23 CB          1.3978  -22.1722  -43.2685 C.3       10 UNK        -0.1800 
     24 N          -0.7389  -21.1594  -43.9362 N.am      10 UNK        -0.5000 
     25 C          -2.0224  -21.0675  -44.3153 C.2       9 UNK         0.5000 
     26 O          -2.7033  -22.0359  -44.6506 O.2       9 UNK        -0.5000 
     27 CA         -2.6394  -19.6580  -44.3728 C.3       9 UNK         0.1400 
     28 CB         -3.0641  -19.1883  -42.9740 C.3       9 UNK        -0.1800 
     29 N          -1.7408  -18.6720  -44.9733 N.am      9 UNK        -0.5000 
     30 C          -1.3091  -18.7068  -46.2423 C.2       8 UNK         0.5000 
     31 O          -1.6618  -19.5559  -47.0586 O.2       8 UNK        -0.5000 
     32 CA         -0.2644  -17.6515  -46.6482 C.3       8 UNK         0.1400 
     33 CB         -0.9316  -16.3079  -46.9799 C.3       8 UNK        -0.1800 
     34 N           0.7438  -17.4596  -45.6061 N.am      8 UNK        -0.5000 
     35 C           1.6380  -18.3887  -45.2401 C.2       7 UNK         0.5000 
     36 O           1.7386  -19.4915  -45.7783 O.2       7 UNK        -0.5000 
     37 CA          2.5272  -18.0503  -44.0306 C.3       7 UNK         0.1400 
     38 CB          3.7359  -17.2030  -44.4548 C.3       7 UNK        -0.1800 
     39 N           1.7800  -17.3571  -42.9794 N.am      7 UNK        -0.5000 
     40 C           0.8470  -17.9451  -42.2137 C.2       6 UNK         0.5000 
     41 O           0.5626  -19.1393  -42.2907 O.2       6 UNK        -0.5000 
     42 CA          0.0655  -17.0523  -41.2279 C.3       6 UNK         0.1400 
     43 CB          0.7865  -16.9890  -39.8737 C.3       6 UNK        -0.1800 
     44 N          -0.1448  -15.6927  -41.7233 N.am      6 UNK        -0.5000 
     45 C          -0.7947  -15.3757  -42.8516 C.2       5 UNK         0.5000 
     46 O          -1.4050  -16.1988  -43.5322 O.2       5 UNK        -0.5000 
     47 CA         -0.7066  -13.9132  -43.3338 C.3       5 UNK         0.1400 
     48 CB         -2.0273  -13.1772  -43.0664 C.3       5 UNK        -0.1800 
     49 N           0.3952  -13.1375  -42.7537 N.am      5 UNK        -0.5000 
     50 C           1.7002  -13.4285  -42.8382 C.2       4 UNK         0.5000 
     51 O           2.1393  -14.4457  -43.3776 O.2       4 UNK        -0.5000 
     52 CA          2.6593  -12.4089  -42.1976 C.3       4 UNK         0.1400 
     53 CB          4.1097  -12.9213  -42.1390 C.3       4 UNK        -0.1800 
     54 N           2.6339  -11.1450  -42.9276 N.am      4 UNK        -0.5000 
     55 C           1.6965  -10.1938  -42.8280 C.2       3 UNK         0.5000 
     56 O           0.7308  -10.2665  -42.0663 O.2       3 UNK        -0.5000 
     57 CA          1.8508   -8.9787  -43.7559 C.3       3 UNK         0.1400 
     58 CB          2.9605   -8.0438  -43.2489 C.3       3 UNK        -0.1800 
     59 N           2.1679   -9.4117  -45.1163 N.am      3 UNK        -0.5000 
     60 C           1.2802   -9.5073  -46.1154 C.2       2 UNK         0.5000 
     61 O           0.1008   -9.1658  -46.0181 O.2       2 UNK        -0.5000 
     62 CA          1.7872  -10.0825  -47.4551 C.3       2 UNK         0.1400 
     63 CB          2.2290   -8.9487  -48.3929 C.3       2 UNK        -0.1800 
     64 N           2.8917  -11.0324  -47.3051 N.am      2 UNK        -0.5000 
     65 C           2.7902  -12.2330  -46.7161 C.2       1 UNK         0.5000 
     66 O           1.7271  -12.6844  -46.2900 O.2       1 UNK        -0.5000 
     67 C          -0.8075  -22.9742  -48.2620 C.2       11 UNK         0.5000 
     68 O          -0.8266  -24.0514  -48.8577 O.2       11 UNK        -0.5000 
     69 N          -1.9089  -22.2731  -47.9565 N.am      12 UNK        -0.5000 
     70 CA         -3.2731  -22.6777  -48.2956 C.3       12 UNK         0.1400 
     71 CB         -4.2605  -21.5828  -47.8684 C.3       12 UNK        -0.1800 
     72 C          -3.6711  -24.0293  -47.6802 C.2       12 UNK         0.5000 
     73 O          -4.2701  -24.8512  -48.3724 O.2       12 UNK        -0.5000 
     74 N          -3.3090  -24.2515  -46.4097 N.am      13 UNK        -0.5000 
     75 CA         -3.5323  -25.5069  -45.6938 C.3       13 UNK         0.1400 
     76 CB         -3.1810  -25.3250  -44.2095 C.3       13 UNK        -0.1800 
     77 C          -2.7527  -26.6868  -46.3025 C.2       13 UNK         0.5000 
     78 O          -3.3241  -27.7645  -46.4708 O.2       13 UNK        -0.5000 
     79 N          -1.4767  -26.4582  -46.6432 N.am      14 UNK        -0.5000 
     80 CA         -0.5954  -27.4464  -47.2671 C.3       14 UNK         0.1400 
     81 CB          0.8517  -26.9310  -47.2376 C.3       14 UNK        -0.1800 
     82 C          -1.0159  -27.8041  -48.7045 C.2       14 UNK         0.5000 
     83 O          -0.9913  -28.9795  -49.0714 O.2       14 UNK        -0.5000 
     84 N          -1.3998  -26.7881  -49.4875 N.am      15 UNK        -0.5000 
     85 CA         -1.8274  -26.9245  -50.8809 C.3       15 UNK         0.1400 
     86 CB         -1.7068  -25.5555  -51.5615 C.3       15 UNK        -0.1800 
     87 C          -3.2625  -27.4597  -51.0447 C.2       15 UNK         0.5000 
     88 O          -3.6116  -27.8941  -52.1429 O.2       15 UNK        -0.5000 
     89 N          -4.0633  -27.3960  -49.9707 N.am      16 UNK        -0.5000 
     90 CA         -5.5041  -27.6602  -49.9188 C.3       16 UNK         0.1400 
     91 CB         -5.8276  -29.1293  -50.2639 C.3       16 UNK        -0.1800 
     92 C          -6.2878  -26.6343  -50.7642 C.2       16 UNK         0.5000 
     93 O          -7.0697  -27.0064  -51.6413 O.2       16 UNK        -0.5000 
     94 N          -6.0394  -25.3516  -50.4664 N.am      17 UNK        -0.5000 
     95 CA         -6.5830  -24.1534  -51.1042 C.3       17 UNK         0.1400 
     96 CB         -8.1062  -24.0446  -50.8633 C.3       17 UNK        -0.1800 
     97 C          -6.1501  -24.0459  -52.5806 C.2       17 UNK         0.5000 
     98 O          -4.9507  -23.9337  -52.8412 O.2       17 UNK        -0.5000 
     99 N          -7.1191  -24.0503  -53.5083 N.am      18 UNK        -0.5000 
    100 CA        -6.9569  -23.8679  -54.9543 C.3       18 UNK         0.1400 
    101 CB        -6.2030  -25.0665  -55.5750 C.3       18 UNK        -0.1800 
    102 C         -6.3418  -22.4889  -55.2783 C.2       18 UNK         0.5000 
    103 O         -6.7853  -21.4867  -54.7160 O.2       18 UNK        -0.5000 
    104 N         -5.3280  -22.4436  -56.1523 N.am      19 UNK        -0.5000 
    105 CA        -4.6056  -21.2228  -56.5259 C.3       19 UNK         0.1400 
    106 CB        -3.6929  -21.5330  -57.7223 C.3       19 UNK        -0.1800 
    107 C         -3.7888  -20.6045  -55.3713 C.2       19 UNK         0.5000 
    108 O         -3.4934  -19.4109  -55.4125 O.2       19 UNK        -0.5000 
    109 N         -3.4514  -21.4209  -54.3651 N.am      20 UNK        -0.5000 
    110 CA        -2.6913  -21.0401  -53.1758 C.3       20 UNK         0.1400 
    111 CB        -1.7583  -22.2043  -52.8143 C.3       20 UNK        -0.1800 
    112 C         -3.5926  -20.6533  -51.9852 C.2       20 UNK         0.5000 
    113 O         -3.0775  -20.4848  -50.8821 O.2       20 UNK        -0.5000 
    114 N         -4.9089  -20.5233  -52.2128 N.am      21 UNK        -0.5000 
    115 CA        -5.9103  -20.1061  -51.2295 C.3       21 UNK         0.1400 
    116 CB        -7.3070  -20.1016  -51.8674 C.3       21 UNK        -0.1800 
    117 C         -5.6296  -18.7837  -50.4732 C.2       21 UNK         0.5000 
    118 O         -5.8109  -18.7732  -49.2576 O.2       21 UNK        -0.5000 
    119 N         -5.1900  -17.6757  -51.0906 N.am      22 UNK        -0.5000 
    120 CA        -5.1265  -17.3382  -52.5254 C.3       22 UNK         0.1400 
    121 C         -6.4511  -16.7223  -53.0693 C.2       22 UNK         0.5000 
    122 N         -7.4674  -16.4833  -52.2485 N.am      22 UNK        -0.7600 
    123 O         -6.5678  -16.4722  -54.2653 O.2       22 UNK        -0.5000 
    124 C124       -3.9265  -16.3952  -52.8088 C.3       23 UNK        -0.0398 
    125 S125       -2.3022  -17.2202  -52.6945 S.3       23 UNK        -0.2404 
    126 C126       -1.9345  -17.1418  -50.9128 C.3       23 UNK        -0.0205 
    127 H127        6.8039   -9.4974  -45.8156 H         1 UNK         0.0600 
    128 H128        7.5477  -10.9969  -46.3804 H         1 UNK         0.0600 
    129 H129        7.4208  -10.6718  -44.6488 H         1 UNK         0.0600 
    130 H130        6.0529  -12.4624  -47.0653 H         1 UNK         0.3000 
    131 H131        4.0026  -13.5871  -45.5951 H         1 UNK         0.0600 
    132 H132        4.3623  -13.5740  -48.6329 H         1 UNK         0.0800 
    133 H133        5.2610  -14.5809  -47.5398 H         1 UNK         0.0800 
    134 H134        2.0067  -14.3193  -49.6224 H         1 UNK         0.0800 
    135 H135        3.4260  -15.2078  -50.1279 H         1 UNK         0.0800 
    136 H136       -0.1331  -15.3022  -50.0303 H         1 UNK         0.1150 
    137 H137       -0.4462  -19.4077  -51.2190 H         1 UNK         0.1150 
    138 H138        3.3388  -17.8035  -49.9820 H         1 UNK         0.1150 
    139 H139        2.4004  -20.1731  -51.9665 H         1 UNK         0.0800 
    140 H140        3.1997  -20.1168  -50.4150 H         1 UNK         0.0800 
    141 H141        0.3132  -20.3743  -48.5137 H         1 UNK         0.0800 
    142 H142        1.9624  -20.8243  -48.1755 H         1 UNK         0.0800 
    143 H143        1.2827  -23.2064  -47.8784 H         1 UNK         0.0600 
    144 H144        0.6551  -21.1310  -46.0782 H         1 UNK         0.3000 
    145 H145       -0.5122  -23.1385  -43.3497 H         1 UNK         0.0600 
    146 H146        1.2766  -21.8508  -42.2340 H         1 UNK         0.0600 
    147 H147        1.9875  -23.0897  -43.2568 H         1 UNK         0.0600 
    148 H148        1.9817  -21.4124  -43.7884 H         1 UNK         0.0600 
    149 H149       -0.2599  -20.3264  -43.6075 H         1 UNK         0.3000 
    150 H150       -3.5334  -19.7118  -44.9973 H         1 UNK         0.0600 
    151 H151       -3.7872  -19.8771  -42.5357 H         1 UNK         0.0600 
    152 H152       -3.5320  -18.2044  -43.0124 H         1 UNK         0.0600 
    153 H153       -2.2148  -19.1293  -42.2940 H         1 UNK         0.0600 
    154 H154       -1.4499  -17.8971  -44.3833 H         1 UNK         0.3000 
    155 H155        0.2442  -18.0076  -47.5468 H         1 UNK         0.0600 
    156 H156       -1.6392  -16.4218  -47.8017 H         1 UNK         0.0600 
    157 H157       -0.1930  -15.5664  -47.2854 H         1 UNK         0.0600 
    158 H158       -1.4817  -15.9019  -46.1317 H         1 UNK         0.0600 
    159 H159        0.7155  -16.5890  -45.0967 H         1 UNK         0.3000 
    160 H160        2.9033  -18.9899  -43.6205 H         1 UNK         0.0600 
    161 H161        3.4303  -16.2393  -44.8619 H         1 UNK         0.0600 
    162 H162        4.3188  -17.7120  -45.2234 H         1 UNK         0.0600 
    163 H163        4.4002  -17.0132  -43.6117 H         1 UNK         0.0600 
    164 H164        1.9289  -16.3549  -42.9056 H         1 UNK         0.3000 
    165 H165       -0.9154  -17.5051  -41.0731 H         1 UNK         0.0600 
    166 H166        0.2054  -16.4266  -39.1427 H         1 UNK         0.0600 
    167 H167        1.7661  -16.5171  -39.9607 H         1 UNK         0.0600 
    168 H168        0.9388  -17.9893  -39.4660 H         1 UNK         0.0600 
    169 H169        0.3256  -14.9513  -41.2267 H         1 UNK         0.3000 
    170 H170       -0.5444  -13.9443  -44.4133 H         1 UNK         0.0600 
    171 H171       -2.8691  -13.7073  -43.5143 H         1 UNK         0.0600 
    172 H172       -2.2265  -13.0859  -41.9980 H         1 UNK         0.0600 
    173 H173       -2.0129  -12.1740  -43.4931 H         1 UNK         0.0600 
    174 H174        0.1468  -12.2538  -42.3228 H         1 UNK         0.3000 
    175 H175        2.3255  -12.2355  -41.1725 H         1 UNK         0.0600 
    176 H176        4.5080  -13.1242  -43.1336 H         1 UNK         0.0600 
    177 H177        4.7654  -12.1943  -41.6596 H         1 UNK         0.0600 
    178 H178        4.1741  -13.8465  -41.5650 H         1 UNK         0.0600 
    179 H179        3.3911  -11.0108  -43.5958 H         1 UNK         0.3000 
    180 H180        0.9113   -8.4223  -43.7413 H         1 UNK         0.0600 
    181 H181        3.9347   -8.5345  -43.2424 H         1 UNK         0.0600 
    182 H182        2.7539   -7.7089  -42.2316 H         1 UNK         0.0600 
    183 H183        3.0395   -7.1546  -43.8744 H         1 UNK         0.0600 
    184 H184        3.1057   -9.7692  -45.2627 H         1 UNK         0.3000 
    185 H185        0.9525  -10.6079  -47.9240 H         1 UNK         0.0600 
    186 H186        1.4199   -8.2340  -48.5497 H         1 UNK         0.0600 
    187 H187        3.0788   -8.3986  -47.9867 H         1 UNK         0.0600 
    188 H188        2.5141   -9.3343  -49.3720 H         1 UNK         0.0600 
    189 H189        3.8012  -10.7265  -47.6186 H         1 UNK         0.3000 
    190 H190       -1.8077  -21.3709  -47.4971 H         1 UNK         0.3000 
    191 H191       -3.3230  -22.7802  -49.3815 H         1 UNK         0.0600 
    192 H192       -4.2688  -21.4432  -46.7876 H         1 UNK         0.0600 
    193 H193       -5.2768  -21.8300  -48.1768 H         1 UNK         0.0600 
    194 H194       -4.0047  -20.6258  -48.3225 H         1 UNK         0.0600 
    195 H195       -2.8687  -23.4986  -45.8873 H         1 UNK         0.3000 
    196 H196       -4.5964  -25.7426  -45.7622 H         1 UNK         0.0600 
    197 H197       -3.3572  -26.2447  -43.6504 H         1 UNK         0.0600 
    198 H198       -3.7910  -24.5449  -43.7537 H         1 UNK         0.0600 
    199 H199       -2.1344  -25.0521  -44.0731 H         1 UNK         0.0600 
    200 H200       -1.0691  -25.5493  -46.4422 H         1 UNK         0.3000 
    201 H201       -0.6401  -28.3605  -46.6714 H         1 UNK         0.0600 
    202 H202        1.1877  -26.7608  -46.2146 H         1 UNK         0.0600 
    203 H203        0.9558  -25.9920  -47.7828 H         1 UNK         0.0600 
    204 H204        1.5341  -27.6522  -47.6890 H         1 UNK         0.0600 
    205 H205       -1.3348  -25.8381  -49.1268 H         1 UNK         0.3000 
    206 H206       -1.1543  -27.6194  -51.3872 H         1 UNK         0.0600 
    207 H207       -0.6864  -25.1745  -51.5141 H         1 UNK         0.0600 
    208 H208       -1.9868  -25.6116  -52.6143 H         1 UNK         0.0600 
    209 H209       -2.3613  -24.8244  -51.0846 H         1 UNK         0.0600 
    210 H210       -3.6742  -26.9787  -49.1350 H         1 UNK         0.3000 
    211 H211       -5.8034  -27.4975  -48.8822 H         1 UNK         0.0600 
    212 H212       -5.6163  -29.3642  -51.3071 H         1 UNK         0.0600 
    213 H213       -6.8832  -29.3423  -50.0922 H         1 UNK         0.0600 
    214 H214       -5.2522  -29.8150  -49.6419 H         1 UNK         0.0600 
    215 H215       -5.3528  -25.1734  -49.7339 H         1 UNK         0.3000 
    216 H216       -6.1141  -23.3097  -50.5966 H         1 UNK         0.0600 
    217 H217       -8.5060  -23.1109  -51.2590 H         1 UNK         0.0600 
    218 H218       -8.3295  -24.0572  -49.7964 H         1 UNK         0.0600 
    219 H219       -8.6599  -24.8639  -51.3226 H         1 UNK         0.0600 
    220 H220       -8.0732  -24.1301  -53.1874 H         1 UNK         0.3000 
    221 H221       -7.9624  -23.8561  -55.3768 H         1 UNK         0.0600 
    222 H222       -5.1651  -25.1188  -55.2441 H         1 UNK         0.0600 
    223 H223       -6.6804  -26.0075  -55.3009 H         1 UNK         0.0600 
    224 H224       -6.2057  -25.0155  -56.6644 H         1 UNK         0.0600 
    225 H225       -5.0094  -23.3055  -56.5711 H         1 UNK         0.3000 
    226 H226       -5.3401  -20.4782  -56.8402 H         1 UNK         0.0600 
    227 H227       -4.2678  -21.8960  -58.5745 H         1 UNK         0.0600 
    228 H228       -3.1596  -20.6393  -58.0493 H         1 UNK         0.0600 
    229 H229       -2.9460  -22.2879  -57.4732 H         1 UNK         0.0600 
    230 H230       -3.7800  -22.3774  -54.3883 H         1 UNK         0.3000 
    231 H231       -2.0683  -20.1717  -53.3972 H         1 UNK         0.0600 
    232 H232       -1.1902  -21.9983  -51.9073 H         1 UNK         0.0600 
    233 H233       -1.0402  -22.3986  -53.6108 H         1 UNK         0.0600 
    234 H234       -2.3282  -23.1154  -52.6461 H         1 UNK         0.0600 
    235 H235       -5.2510  -20.7102  -53.1462 H         1 UNK         0.3000 
    236 H236       -5.9158  -20.8863  -50.4668 H         1 UNK         0.0600 
    237 H237       -7.3480  -19.4702  -52.7542 H         1 UNK         0.0600 
    238 H238       -7.6025  -21.1056  -52.1679 H         1 UNK         0.0600 
    239 H239       -8.0617  -19.7397  -51.1679 H         1 UNK         0.0600 
    240 H240       -4.9980  -16.8883  -50.4912 H         1 UNK         0.3000 
    241 H241       -4.9754  -18.2301  -53.1262 H         1 UNK         0.0600 
    242 H242       -8.3186  -16.0898  -52.6185 H         1 UNK         0.3800 
    243 H243       -7.3946  -16.6757  -51.2622 H         1 UNK         0.3800 
    244 H244       -3.9839  -15.9985  -53.8241 H         1 UNK         0.0800 
    245 H245       -3.9471  -15.5248  -52.1512 H         1 UNK         0.0800 
    246 H246       -2.4971  -17.9129  -50.3857 H         1 UNK         0.0800 
    247 H247       -2.2691  -16.1842  -50.5117 H         1 UNK         0.0800 
@<TRIPOS>BOND
     1    1    2 1    
     2    1  127 1    
     3    1  128 1    
     4    1  129 1    
     5    2    3 2    
     6    2    4 am   BACKBONE|DICT|INTERRES
     7    4    5 1    
     8    4  130 1    
     9    5    6 1    
    10    5   65 1    
    11    5  131 1    
    12    6    7 1    
    13    6  132 1    
    14    6  133 1    
    15    7    8 1    
    16    8    9 1    
    17    8  134 1    
    18    8  135 1    
    19    9   10 ar   
    20    9   14 ar   
    21   10   11 ar   
    22   10  136 1    
    23   11   12 ar   
    24   11  126 1    
    25   12   13 ar   
    26   12  137 1    
    27   13   14 ar   
    28   13   15 1    
    29   14  138 1    
    30   15   16 1    
    31   15  139 1    
    32   15  140 1    
    33   16   17 1    
    34   17   18 1    
    35   17  141 1    
    36   17  142 1    
    37   18   19 1    
    38   18   67 1    
    39   18  143 1    
    40   19   20 am   BACKBONE|DICT|INTERRES
    41   19  144 1    
    42   20   21 2    
    43   20   22 1    
    44   22   23 1    
    45   22   24 1    
    46   22  145 1    
    47   23  146 1    
    48   23  147 1    
    49   23  148 1    
    50   24   25 am   BACKBONE|DICT|INTERRES
    51   24  149 1    
    52   25   26 2    
    53   25   27 1    
    54   27   28 1    
    55   27   29 1    
    56   27  150 1    
    57   28  151 1    
    58   28  152 1    
    59   28  153 1    
    60   29   30 am   BACKBONE|DICT|INTERRES
    61   29  154 1    
    62   30   31 2    
    63   30   32 1    
    64   32   33 1    
    65   32   34 1    
    66   32  155 1    
    67   33  156 1    
    68   33  157 1    
    69   33  158 1    
    70   34   35 am   BACKBONE|DICT|INTERRES
    71   34  159 1    
    72   35   36 2    
    73   35   37 1    
    74   37   38 1    
    75   37   39 1    
    76   37  160 1    
    77   38  161 1    
    78   38  162 1    
    79   38  163 1    
    80   39   40 am   BACKBONE|DICT|INTERRES
    81   39  164 1    
    82   40   41 2    
    83   40   42 1    
    84   42   43 1    
    85   42   44 1    
    86   42  165 1    
    87   43  166 1    
    88   43  167 1    
    89   43  168 1    
    90   44   45 am   BACKBONE|DICT|INTERRES
    91   44  169 1    
    92   45   46 2    
    93   45   47 1    
    94   47   48 1    
    95   47   49 1    
    96   47  170 1    
    97   48  171 1    
    98   48  172 1    
    99   48  173 1    
   100   49   50 am   BACKBONE|DICT|INTERRES
   101   49  174 1    
   102   50   51 2    
   103   50   52 1    
   104   52   53 1    
   105   52   54 1    
   106   52  175 1    
   107   53  176 1    
   108   53  177 1    
   109   53  178 1    
   110   54   55 am   BACKBONE|DICT|INTERRES
   111   54  179 1    
   112   55   56 2    
   113   55   57 1    
   114   57   58 1    
   115   57   59 1    
   116   57  180 1    
   117   58  181 1    
   118   58  182 1    
   119   58  183 1    
   120   59   60 am   BACKBONE|DICT|INTERRES
   121   59  184 1    
   122   60   61 2    
   123   60   62 1    
   124   62   63 1    
   125   62   64 1    
   126   62  185 1    
   127   63  186 1    
   128   63  187 1    
   129   63  188 1    
   130   64   65 am   BACKBONE|DICT|INTERRES
   131   64  189 1    
   132   65   66 2    
   133   67   68 2    
   134   67   69 am   BACKBONE|DICT|INTERRES
   135   69   70 1    
   136   69  190 1    
   137   70   71 1    
   138   70   72 1    
   139   70  191 1    
   140   71  192 1    
   141   71  193 1    
   142   71  194 1    
   143   72   73 2    
   144   72   74 am   BACKBONE|DICT|INTERRES
   145   74   75 1    
   146   74  195 1    
   147   75   76 1    
   148   75   77 1    
   149   75  196 1    
   150   76  197 1    
   151   76  198 1    
   152   76  199 1    
   153   77   78 2    
   154   77   79 am   BACKBONE|DICT|INTERRES
   155   79   80 1    
   156   79  200 1    
   157   80   81 1    
   158   80   82 1    
   159   80  201 1    
   160   81  202 1    
   161   81  203 1    
   162   81  204 1    
   163   82   83 2    
   164   82   84 am   BACKBONE|DICT|INTERRES
   165   84   85 1    
   166   84  205 1    
   167   85   86 1    
   168   85   87 1    
   169   85  206 1    
   170   86  207 1    
   171   86  208 1    
   172   86  209 1    
   173   87   88 2    
   174   87   89 am   BACKBONE|DICT|INTERRES
   175   89   90 1    
   176   89  210 1    
   177   90   91 1    
   178   90   92 1    
   179   90  211 1    
   180   91  212 1    
   181   91  213 1    
   182   91  214 1    
   183   92   93 2    
   184   92   94 am   BACKBONE|DICT|INTERRES
   185   94   95 1    
   186   94  215 1    
   187   95   96 1    
   188   95   97 1    
   189   95  216 1    
   190   96  217 1    
   191   96  218 1    
   192   96  219 1    
   193   97   98 2    
   194   97   99 am   BACKBONE|DICT|INTERRES
   195   99  100 1    
   196   99  220 1    
   197  100  101 1    
   198  100  102 1    
   199  100  221 1    
   200  101  222 1    
   201  101  223 1    
   202  101  224 1    
   203  102  103 2    
   204  102  104 am   BACKBONE|DICT|INTERRES
   205  104  105 1    
   206  104  225 1    
   207  105  106 1    
   208  105  107 1    
   209  105  226 1    
   210  106  227 1    
   211  106  228 1    
   212  106  229 1    
   213  107  108 2    
   214  107  109 am   BACKBONE|DICT|INTERRES
   215  109  110 1    
   216  109  230 1    
   217  110  111 1    
   218  110  112 1    
   219  110  231 1    
   220  111  232 1    
   221  111  233 1    
   222  111  234 1    
   223  112  113 2    
   224  112  114 am   BACKBONE|DICT|INTERRES
   225  114  115 1    
   226  114  235 1    
   227  115  116 1    
   228  115  117 1    
   229  115  236 1    
   230  116  237 1    
   231  116  238 1    
   232  116  239 1    
   233  117  118 2    
   234  117  119 am   BACKBONE|DICT|INTERRES
   235  119  120 1    
   236  119  240 1    
   237  120  121 1    
   238  120  124 1    
   239  120  241 1    
   240  121  122 am   BACKBONE|DICT|INTERRES
   241  121  123 2    
   242  122  242 1    
   243  122  243 1    
   244  124  125 1    
   245  124  244 1    
   246  124  245 1    
   247  125  126 1    
   248  126  246 1    
   249  126  247 1    
@<TRIPOS>SUBSTRUCTURE
     1 UNK         1 GROUP             0       ****    0 ROOT    
