@<TRIPOS>MOLECULE
3R540
247   249    1
SMALL
USER_CHARGES


@<TRIPOS>ATOM
      1 CA          2.8966  -16.4474  -49.0509 C.3       0 UNK        -0.1800 
      2 C           2.0829  -15.1623  -48.9933 C.2       0 UNK         0.5000 
      3 O           2.0723  -14.4091  -49.9653 O.2       0 UNK        -0.5000 
      4 N           1.4166  -14.9013  -47.8576 N.am      1 UNK        -0.5000 
      5 CA          0.5014  -13.7693  -47.6131 C.3       1 UNK         0.1400 
      6 C6         -0.6791  -13.7736  -48.6295 C.3       23 UNK        -0.0398 
      7 S7         -2.1862  -12.8412  -48.1754 S.3       23 UNK        -0.2404 
      8 C8         -2.8119  -13.6813  -46.6775 C.3       23 UNK        -0.0205 
      9 C9         -3.3011  -15.1232  -46.8320 C.ar      23 UNK        -0.0193 
     10 C10        -3.4643  -15.7576  -48.0684 C.ar      23 UNK        -0.1150 
     11 C11        -3.9010  -17.0836  -48.1412 C.ar      23 UNK        -0.0193 
     12 C12        -4.2103  -17.7732  -46.9621 C.ar      23 UNK        -0.1150 
     13 C13        -4.1023  -17.1401  -45.7156 C.ar      23 UNK        -0.0193 
     14 C14        -3.6382  -15.8234  -45.6715 C.ar      23 UNK        -0.1150 
     15 C15        -4.5170  -17.7836  -44.3878 C.3       23 UNK        -0.0205 
     16 S16        -5.1510  -19.4940  -44.4654 S.3       23 UNK        -0.2404 
     17 C17        -3.7386  -20.4911  -43.8766 C.3       23 UNK        -0.0398 
     18 CA         -3.0352  -21.2259  -45.0439 C.3       11 UNK         0.1400 
     19 N          -1.8850  -20.4820  -45.5589 N.am      11 UNK        -0.5000 
     20 C          -1.3321  -20.6997  -46.7587 C.2       10 UNK         0.5000 
     21 O          -1.7822  -21.4980  -47.5845 O.2       10 UNK        -0.5000 
     22 CA         -0.0388  -19.9247  -47.0703 C.3       10 UNK         0.1400 
     23 CB         -0.3609  -18.5048  -47.5504 C.3       10 UNK        -0.1800 
     24 N           0.8805  -19.8545  -45.9334 N.am      10 UNK        -0.5000 
     25 C           1.4857  -20.9095  -45.3728 C.2       9 UNK         0.5000 
     26 O           1.3386  -22.0636  -45.7686 O.2       9 UNK        -0.5000 
     27 CA          2.3794  -20.6441  -44.1463 C.3       9 UNK         0.1400 
     28 CB          3.7729  -20.1696  -44.5826 C.3       9 UNK        -0.1800 
     29 N           1.7995  -19.6842  -43.2057 N.am      9 UNK        -0.5000 
     30 C           0.6490  -19.8705  -42.5416 C.2       8 UNK         0.5000 
     31 O          -0.0369  -20.8884  -42.6298 O.2       8 UNK        -0.5000 
     32 CA          0.1407  -18.6934  -41.6889 C.3       8 UNK         0.1400 
     33 CB          0.8916  -18.6072  -40.3520 C.3       8 UNK        -0.1800 
     34 N           0.2334  -17.4159  -42.3954 N.am      8 UNK        -0.5000 
     35 C          -0.3920  -17.1507  -43.5517 C.2       7 UNK         0.5000 
     36 O          -1.1528  -17.9375  -44.1145 O.2       7 UNK        -0.5000 
     37 CA         -0.0513  -15.8115  -44.2231 C.3       7 UNK         0.1400 
     38 CB         -0.7402  -14.6400  -43.5067 C.3       7 UNK        -0.1800 
     39 N           1.3911  -15.5749  -44.2525 N.am      7 UNK        -0.5000 
     40 C           2.2862  -16.3190  -44.9121 C.2       6 UNK         0.5000 
     41 O           1.9710  -17.2196  -45.6838 O.2       6 UNK        -0.5000 
     42 CA          3.7750  -16.0130  -44.6738 C.3       6 UNK         0.1400 
     43 CB          4.2820  -14.9391  -45.6461 C.3       6 UNK        -0.1800 
     44 N           4.0365  -15.5906  -43.2995 N.am      6 UNK        -0.5000 
     45 C           3.9907  -16.4084  -42.2392 C.2       5 UNK         0.5000 
     46 O           3.7430  -17.6118  -42.3156 O.2       5 UNK        -0.5000 
     47 CA          4.2250  -15.7594  -40.8631 C.3       5 UNK         0.1400 
     48 CB          5.7277  -15.6314  -40.5729 C.3       5 UNK        -0.1800 
     49 N           3.5945  -14.4418  -40.7557 N.am      5 UNK        -0.5000 
     50 C           2.2692  -14.2471  -40.7143 C.2       4 UNK         0.5000 
     51 O           1.4460  -15.1633  -40.7262 O.2       4 UNK        -0.5000 
     52 CA          1.7847  -12.7824  -40.7109 C.3       4 UNK         0.1400 
     53 CB          1.8037  -12.2109  -39.2854 C.3       4 UNK        -0.1800 
     54 N           2.5494  -11.8987  -41.6018 N.am      4 UNK        -0.5000 
     55 C           2.6632  -12.0737  -42.9247 C.2       3 UNK         0.5000 
     56 O           2.1680  -13.0302  -43.5236 O.2       3 UNK        -0.5000 
     57 CA          3.4869  -11.0449  -43.7128 C.3       3 UNK         0.1400 
     58 CB          4.9779  -11.1215  -43.3329 C.3       3 UNK        -0.1800 
     59 N           3.3211  -11.3463  -45.1311 N.am      3 UNK        -0.5000 
     60 C           3.5767  -10.5458  -46.1684 C.2       2 UNK         0.5000 
     61 O           3.9836   -9.3892  -46.0513 O.2       2 UNK        -0.5000 
     62 CA          3.3649  -11.1375  -47.5788 C.3       2 UNK         0.1400 
     63 CB          4.7211  -11.4593  -48.2263 C.3       2 UNK        -0.1800 
     64 N           2.5412  -12.3519  -47.6138 N.am      2 UNK        -0.5000 
     65 C           1.2078  -12.3903  -47.4800 C.2       1 UNK         0.5000 
     66 O           0.5445  -11.3855  -47.2251 O.2       1 UNK        -0.5000 
     67 C          -2.6604  -22.6789  -44.6793 C.2       11 UNK         0.5000 
     68 O          -3.4482  -23.5818  -44.9619 O.2       11 UNK        -0.5000 
     69 N          -1.4627  -22.9062  -44.1171 N.am      12 UNK        -0.5000 
     70 CA         -0.9230  -24.2447  -43.8400 C.3       12 UNK         0.1400 
     71 CB          0.3592  -24.1318  -43.0028 C.3       12 UNK        -0.1800 
     72 C          -0.6705  -25.0663  -45.1208 C.2       12 UNK         0.5000 
     73 O          -0.8803  -26.2792  -45.1196 O.2       12 UNK        -0.5000 
     74 N          -0.2891  -24.3786  -46.2053 N.am      13 UNK        -0.5000 
     75 CA         -0.1763  -24.9054  -47.5668 C.3       13 UNK         0.1400 
     76 CB          0.7563  -23.9900  -48.3779 C.3       13 UNK        -0.1800 
     77 C          -1.5362  -25.0754  -48.2799 C.2       13 UNK         0.5000 
     78 O          -1.5485  -25.4186  -49.4628 O.2       13 UNK        -0.5000 
     79 N          -2.6493  -24.8268  -47.5729 N.am      14 UNK        -0.5000 
     80 CA         -4.0397  -24.9958  -47.9999 C.3       14 UNK         0.1400 
     81 CB         -4.3622  -26.4906  -48.2096 C.3       14 UNK        -0.1800 
     82 C          -4.4104  -24.1256  -49.2144 C.2       14 UNK         0.5000 
     83 O          -5.0998  -24.6018  -50.1167 O.2       14 UNK        -0.5000 
     84 N          -3.9287  -22.8725  -49.2282 N.am      15 UNK        -0.5000 
     85 CA         -4.1352  -21.8817  -50.2913 C.3       15 UNK         0.1400 
     86 CB         -5.6138  -21.4401  -50.3493 C.3       15 UNK        -0.1800 
     87 C          -3.5932  -22.3677  -51.6525 C.2       15 UNK         0.5000 
     88 O          -4.2694  -22.2439  -52.6769 O.2       15 UNK        -0.5000 
     89 N          -2.3739  -22.9234  -51.6081 N.am      16 UNK        -0.5000 
     90 CA         -1.6563  -23.5901  -52.6955 C.3       16 UNK         0.1400 
     91 CB         -1.4376  -22.6452  -53.8975 C.3       16 UNK        -0.1800 
     92 C          -2.3320  -24.9213  -53.0758 C.2       16 UNK         0.5000 
     93 O          -2.7801  -25.0903  -54.2095 O.2       16 UNK        -0.5000 
     94 N          -2.4024  -25.8404  -52.1016 N.am      17 UNK        -0.5000 
     95 CA         -2.8806  -27.2238  -52.2192 C.3       17 UNK         0.1400 
     96 CB         -1.8741  -28.0632  -53.0331 C.3       17 UNK        -0.1800 
     97 C          -4.3244  -27.3386  -52.7525 C.2       17 UNK         0.5000 
     98 O          -4.6173  -28.2163  -53.5664 O.2       17 UNK        -0.5000 
     99 N          -5.1921  -26.4258  -52.2944 N.am      18 UNK        -0.5000 
    100 CA        -6.6010  -26.2602  -52.6604 C.3       18 UNK         0.1400 
    101 CB        -7.4279  -27.4996  -52.2591 C.3       18 UNK        -0.1800 
    102 C         -6.8409  -25.8352  -54.1260 C.2       18 UNK         0.5000 
    103 O         -7.9865  -25.8736  -54.5783 O.2       18 UNK        -0.5000 
    104 N         -5.7905  -25.4012  -54.8414 N.am      19 UNK        -0.5000 
    105 CA        -5.8967  -24.8641  -56.2016 C.3       19 UNK         0.1400 
    106 CB        -4.5214  -24.9086  -56.8849 C.3       19 UNK        -0.1800 
    107 C         -6.4571  -23.4294  -56.2281 C.2       19 UNK         0.5000 
    108 O         -6.9496  -22.9980  -57.2710 O.2       19 UNK        -0.5000 
    109 N         -6.3621  -22.7218  -55.0903 N.am      20 UNK        -0.5000 
    110 CA        -6.7995  -21.3409  -54.8620 C.3       20 UNK         0.1400 
    111 CB        -8.3293  -21.2066  -55.0126 C.3       20 UNK        -0.1800 
    112 C         -6.0108  -20.3127  -55.6995 C.2       20 UNK         0.5000 
    113 O         -6.5446  -19.2603  -56.0535 O.2       20 UNK        -0.5000 
    114 N         -4.7381  -20.6283  -55.9828 N.am      21 UNK        -0.5000 
    115 CA        -3.7827  -19.7256  -56.6318 C.3       21 UNK         0.1400 
    116 CB        -2.5976  -20.5450  -57.1652 C.3       21 UNK        -0.1800 
    117 C         -3.2969  -18.6152  -55.6781 C.2       21 UNK         0.5000 
    118 O         -2.8818  -17.5508  -56.1374 O.2       21 UNK        -0.5000 
    119 N         -3.3725  -18.8885  -54.3700 N.am      22 UNK        -0.5000 
    120 CA        -3.1678  -17.9377  -53.2746 C.3       22 UNK         0.1400 
    121 C         -4.2826  -16.8527  -53.2519 C.2       22 UNK         0.5000 
    122 N         -3.9243  -15.5762  -53.2625 N.am      22 UNK        -0.7600 
    123 O         -5.4691  -17.1660  -53.1908 O.2       22 UNK        -0.5000 
    124 C124       -3.0937  -18.7176  -51.9414 C.3       23 UNK        -0.0398 
    125 S125       -2.5729  -17.7151  -50.5135 S.3       23 UNK        -0.2404 
    126 C126       -4.0875  -17.7518  -49.4978 C.3       23 UNK        -0.0205 
    127 H127        2.8608  -17.0011  -48.1141 H         1 UNK         0.0600 
    128 H128        3.9401  -16.2214  -49.2700 H         1 UNK         0.0600 
    129 H129        2.5146  -17.0952  -49.8399 H         1 UNK         0.0600 
    130 H130        1.4680  -15.5823  -47.1099 H         1 UNK         0.3000 
    131 H131        0.0897  -13.9654  -46.6250 H         1 UNK         0.0600 
    132 H132       -0.9804  -14.8029  -48.8238 H         1 UNK         0.0800 
    133 H133       -0.3421  -13.3900  -49.5934 H         1 UNK         0.0800 
    134 H134       -2.0455  -13.6377  -45.9058 H         1 UNK         0.0800 
    135 H135       -3.6460  -13.0890  -46.2991 H         1 UNK         0.0800 
    136 H136       -3.2571  -15.2310  -48.9879 H         1 UNK         0.1150 
    137 H137       -4.5648  -18.7909  -47.0281 H         1 UNK         0.1150 
    138 H138       -3.5654  -15.3270  -44.7154 H         1 UNK         0.1150 
    139 H139       -3.6926  -17.7232  -43.6783 H         1 UNK         0.0800 
    140 H140       -5.3133  -17.1711  -43.9629 H         1 UNK         0.0800 
    141 H141       -4.1551  -21.1963  -43.1547 H         1 UNK         0.0800 
    142 H142       -3.0347  -19.8816  -43.3081 H         1 UNK         0.0800 
    143 H143       -3.7492  -21.3182  -45.8660 H         1 UNK         0.0600 
    144 H144       -1.4882  -19.7644  -44.9598 H         1 UNK         0.3000 
    145 H145        0.4715  -20.4489  -47.8806 H         1 UNK         0.0600 
    146 H146       -0.8261  -17.9024  -46.7702 H         1 UNK         0.0600 
    147 H147        0.5342  -17.9867  -47.8913 H         1 UNK         0.0600 
    148 H148       -1.0525  -18.5400  -48.3868 H         1 UNK         0.0600 
    149 H149        1.1002  -18.9244  -45.5894 H         1 UNK         0.3000 
    150 H150        2.5004  -21.5890  -43.6137 H         1 UNK         0.0600 
    151 H151        4.2495  -20.9071  -45.2295 H         1 UNK         0.0600 
    152 H152        4.4269  -20.0188  -43.7236 H         1 UNK         0.0600 
    153 H153        3.7245  -19.2329  -45.1368 H         1 UNK         0.0600 
    154 H154        2.3253  -18.8317  -43.0416 H         1 UNK         0.3000 
    155 H155       -0.9143  -18.8739  -41.4728 H         1 UNK         0.0600 
    156 H156        0.8057  -19.5416  -39.7961 H         1 UNK         0.0600 
    157 H157        0.4847  -17.8151  -39.7230 H         1 UNK         0.0600 
    158 H158        1.9532  -18.4064  -40.4943 H         1 UNK         0.0600 
    159 H159        0.8217  -16.7023  -41.9788 H         1 UNK         0.3000 
    160 H160       -0.4173  -15.8541  -45.2505 H         1 UNK         0.0600 
    161 H161       -0.5544  -13.6974  -44.0213 H         1 UNK         0.0600 
    162 H162       -0.3874  -14.5289  -42.4828 H         1 UNK         0.0600 
    163 H163       -1.8180  -14.7830  -43.4563 H         1 UNK         0.0600 
    164 H164        1.7264  -14.7756  -43.7198 H         1 UNK         0.3000 
    165 H165        4.3398  -16.9282  -44.8613 H         1 UNK         0.0600 
    166 H166        3.7082  -14.0191  -45.5621 H         1 UNK         0.0600 
    167 H167        5.3292  -14.6995  -45.4608 H         1 UNK         0.0600 
    168 H168        4.2095  -15.2819  -46.6777 H         1 UNK         0.0600 
    169 H169        4.2002  -14.6075  -43.1459 H         1 UNK         0.3000 
    170 H170        3.7858  -16.4140  -40.1070 H         1 UNK         0.0600 
    171 H171        6.2225  -14.9686  -41.2839 H         1 UNK         0.0600 
    172 H172        5.9032  -15.2399  -39.5707 H         1 UNK         0.0600 
    173 H173        6.2201  -16.6030  -40.6319 H         1 UNK         0.0600 
    174 H174        4.2039  -13.6374  -40.7407 H         1 UNK         0.3000 
    175 H175        0.7502  -12.7824  -41.0600 H         1 UNK         0.0600 
    176 H176        2.8182  -12.1438  -38.8907 H         1 UNK         0.0600 
    177 H177        1.3642  -11.2137  -39.2543 H         1 UNK         0.0600 
    178 H178        1.2274  -12.8393  -38.6049 H         1 UNK         0.0600 
    179 H179        2.9877  -11.0964  -41.1727 H         1 UNK         0.3000 
    180 H180        3.0930  -10.0487  -43.5032 H         1 UNK         0.0600 
    181 H181        5.3914  -12.1116  -43.5291 H         1 UNK         0.0600 
    182 H182        5.1304  -10.9034  -42.2754 H         1 UNK         0.0600 
    183 H183        5.5680  -10.3981  -43.8955 H         1 UNK         0.0600 
    184 H184        2.9078  -12.2537  -45.3015 H         1 UNK         0.3000 
    185 H185        2.8728  -10.3715  -48.1817 H         1 UNK         0.0600 
    186 H186        4.5961  -11.8083  -49.2517 H         1 UNK         0.0600 
    187 H187        5.3591  -10.5752  -48.2615 H         1 UNK         0.0600 
    188 H188        5.2582  -12.2299  -47.6716 H         1 UNK         0.0600 
    189 H189        3.0149  -13.2117  -47.8465 H         1 UNK         0.3000 
    190 H190       -0.8804  -22.1178  -43.8473 H         1 UNK         0.3000 
    191 H191       -1.6643  -24.7835  -43.2463 H         1 UNK         0.0600 
    192 H192        1.1431  -23.5961  -43.5367 H         1 UNK         0.0600 
    193 H193        0.1736  -23.6092  -42.0644 H         1 UNK         0.0600 
    194 H194        0.7496  -25.1190  -42.7529 H         1 UNK         0.0600 
    195 H195       -0.0468  -23.3991  -46.0871 H         1 UNK         0.3000 
    196 H196        0.2820  -25.8948  -47.5166 H         1 UNK         0.0600 
    197 H197        1.7329  -23.9021  -47.9016 H         1 UNK         0.0600 
    198 H198        0.3438  -22.9863  -48.4809 H         1 UNK         0.0600 
    199 H199        0.9222  -24.3824  -49.3819 H         1 UNK         0.0600 
    200 H200       -2.5406  -24.5054  -46.6186 H         1 UNK         0.3000 
    201 H201       -4.6601  -24.6401  -47.1767 H         1 UNK         0.0600 
    202 H202       -5.4239  -26.6387  -48.4107 H         1 UNK         0.0600 
    203 H203       -4.1172  -27.0735  -47.3218 H         1 UNK         0.0600 
    204 H204       -3.8094  -26.9114  -49.0492 H         1 UNK         0.0600 
    205 H205       -3.3140  -22.5799  -48.4745 H         1 UNK         0.3000 
    206 H206       -3.5371  -21.0127  -50.0148 H         1 UNK         0.0600 
    207 H207       -5.9518  -21.0726  -49.3804 H         1 UNK         0.0600 
    208 H208       -6.2715  -22.2579  -50.6450 H         1 UNK         0.0600 
    209 H209       -5.7610  -20.6355  -51.0696 H         1 UNK         0.0600 
    210 H210       -1.9392  -23.0015  -50.6993 H         1 UNK         0.3000 
    211 H211       -0.6715  -23.8446  -52.3007 H         1 UNK         0.0600 
    212 H212       -0.9742  -21.7089  -53.5869 H         1 UNK         0.0600 
    213 H213       -0.7797  -23.1063  -54.6349 H         1 UNK         0.0600 
    214 H214       -2.3705  -22.4059  -54.4068 H         1 UNK         0.0600 
    215 H215       -2.0509  -25.5932  -51.1768 H         1 UNK         0.3000 
    216 H216       -2.8991  -27.6268  -51.2060 H         1 UNK         0.0600 
    217 H217       -2.1473  -29.1190  -53.0269 H         1 UNK         0.0600 
    218 H218       -1.8296  -27.7417  -54.0743 H         1 UNK         0.0600 
    219 H219       -0.8701  -27.9877  -52.6154 H         1 UNK         0.0600 
    220 H220       -4.8640  -25.7498  -51.6081 H         1 UNK         0.3000 
    221 H221       -6.9589  -25.4258  -52.0558 H         1 UNK         0.0600 
    222 H222       -7.1887  -28.3659  -52.8761 H         1 UNK         0.0600 
    223 H223       -7.2530  -27.7690  -51.2174 H         1 UNK         0.0600 
    224 H224       -8.4963  -27.3095  -52.3672 H         1 UNK         0.0600 
    225 H225       -4.8648  -25.4059  -54.4260 H         1 UNK         0.3000 
    226 H226       -6.5766  -25.4992  -56.7734 H         1 UNK         0.0600 
    227 H227       -4.0809  -25.9042  -56.8281 H         1 UNK         0.0600 
    228 H228       -4.6049  -24.6483  -57.9407 H         1 UNK         0.0600 
    229 H229       -3.8226  -24.2040  -56.4331 H         1 UNK         0.0600 
    230 H230       -5.8973  -23.1581  -54.3045 H         1 UNK         0.3000 
    231 H231       -6.5585  -21.1204  -53.8211 H         1 UNK         0.0600 
    232 H232       -8.6688  -20.2242  -54.6825 H         1 UNK         0.0600 
    233 H233       -8.8512  -21.9487  -54.4085 H         1 UNK         0.0600 
    234 H234       -8.6492  -21.3302  -56.0475 H         1 UNK         0.0600 
    235 H235       -4.3864  -21.5199  -55.6653 H         1 UNK         0.3000 
    236 H236       -4.2765  -19.2461  -57.4796 H         1 UNK         0.0600 
    237 H237       -2.9319  -21.3219  -57.8532 H         1 UNK         0.0600 
    238 H238       -1.8994  -19.9079  -57.7095 H         1 UNK         0.0600 
    239 H239       -2.0411  -21.0248  -56.3603 H         1 UNK         0.0600 
    240 H240       -3.7500  -19.7868  -54.1081 H         1 UNK         0.3000 
    241 H241       -2.2042  -17.4516  -53.4401 H         1 UNK         0.0600 
    242 H242       -4.6397  -14.8666  -53.2360 H         1 UNK         0.3800 
    243 H243       -2.9556  -15.3006  -53.3053 H         1 UNK         0.3800 
    244 H244       -4.0523  -19.1922  -51.7335 H         1 UNK         0.0800 
    245 H245       -2.3693  -19.5283  -52.0335 H         1 UNK         0.0800 
    246 H246       -4.4023  -18.7872  -49.3649 H         1 UNK         0.0800 
    247 H247       -4.8921  -17.2468  -50.0343 H         1 UNK         0.0800 
@<TRIPOS>BOND
     1    1    2 1    
     2    1  127 1    
     3    1  128 1    
     4    1  129 1    
     5    2    3 2    
     6    2    4 am   BACKBONE|DICT|INTERRES
     7    4    5 1    
     8    4  130 1    
     9    5    6 1    
    10    5   65 1    
    11    5  131 1    
    12    6    7 1    
    13    6  132 1    
    14    6  133 1    
    15    7    8 1    
    16    8    9 1    
    17    8  134 1    
    18    8  135 1    
    19    9   10 ar   
    20    9   14 ar   
    21   10   11 ar   
    22   10  136 1    
    23   11   12 ar   
    24   11  126 1    
    25   12   13 ar   
    26   12  137 1    
    27   13   14 ar   
    28   13   15 1    
    29   14  138 1    
    30   15   16 1    
    31   15  139 1    
    32   15  140 1    
    33   16   17 1    
    34   17   18 1    
    35   17  141 1    
    36   17  142 1    
    37   18   19 1    
    38   18   67 1    
    39   18  143 1    
    40   19   20 am   BACKBONE|DICT|INTERRES
    41   19  144 1    
    42   20   21 2    
    43   20   22 1    
    44   22   23 1    
    45   22   24 1    
    46   22  145 1    
    47   23  146 1    
    48   23  147 1    
    49   23  148 1    
    50   24   25 am   BACKBONE|DICT|INTERRES
    51   24  149 1    
    52   25   26 2    
    53   25   27 1    
    54   27   28 1    
    55   27   29 1    
    56   27  150 1    
    57   28  151 1    
    58   28  152 1    
    59   28  153 1    
    60   29   30 am   BACKBONE|DICT|INTERRES
    61   29  154 1    
    62   30   31 2    
    63   30   32 1    
    64   32   33 1    
    65   32   34 1    
    66   32  155 1    
    67   33  156 1    
    68   33  157 1    
    69   33  158 1    
    70   34   35 am   BACKBONE|DICT|INTERRES
    71   34  159 1    
    72   35   36 2    
    73   35   37 1    
    74   37   38 1    
    75   37   39 1    
    76   37  160 1    
    77   38  161 1    
    78   38  162 1    
    79   38  163 1    
    80   39   40 am   BACKBONE|DICT|INTERRES
    81   39  164 1    
    82   40   41 2    
    83   40   42 1    
    84   42   43 1    
    85   42   44 1    
    86   42  165 1    
    87   43  166 1    
    88   43  167 1    
    89   43  168 1    
    90   44   45 am   BACKBONE|DICT|INTERRES
    91   44  169 1    
    92   45   46 2    
    93   45   47 1    
    94   47   48 1    
    95   47   49 1    
    96   47  170 1    
    97   48  171 1    
    98   48  172 1    
    99   48  173 1    
   100   49   50 am   BACKBONE|DICT|INTERRES
   101   49  174 1    
   102   50   51 2    
   103   50   52 1    
   104   52   53 1    
   105   52   54 1    
   106   52  175 1    
   107   53  176 1    
   108   53  177 1    
   109   53  178 1    
   110   54   55 am   BACKBONE|DICT|INTERRES
   111   54  179 1    
   112   55   56 2    
   113   55   57 1    
   114   57   58 1    
   115   57   59 1    
   116   57  180 1    
   117   58  181 1    
   118   58  182 1    
   119   58  183 1    
   120   59   60 am   BACKBONE|DICT|INTERRES
   121   59  184 1    
   122   60   61 2    
   123   60   62 1    
   124   62   63 1    
   125   62   64 1    
   126   62  185 1    
   127   63  186 1    
   128   63  187 1    
   129   63  188 1    
   130   64   65 am   BACKBONE|DICT|INTERRES
   131   64  189 1    
   132   65   66 2    
   133   67   68 2    
   134   67   69 am   BACKBONE|DICT|INTERRES
   135   69   70 1    
   136   69  190 1    
   137   70   71 1    
   138   70   72 1    
   139   70  191 1    
   140   71  192 1    
   141   71  193 1    
   142   71  194 1    
   143   72   73 2    
   144   72   74 am   BACKBONE|DICT|INTERRES
   145   74   75 1    
   146   74  195 1    
   147   75   76 1    
   148   75   77 1    
   149   75  196 1    
   150   76  197 1    
   151   76  198 1    
   152   76  199 1    
   153   77   78 2    
   154   77   79 am   BACKBONE|DICT|INTERRES
   155   79   80 1    
   156   79  200 1    
   157   80   81 1    
   158   80   82 1    
   159   80  201 1    
   160   81  202 1    
   161   81  203 1    
   162   81  204 1    
   163   82   83 2    
   164   82   84 am   BACKBONE|DICT|INTERRES
   165   84   85 1    
   166   84  205 1    
   167   85   86 1    
   168   85   87 1    
   169   85  206 1    
   170   86  207 1    
   171   86  208 1    
   172   86  209 1    
   173   87   88 2    
   174   87   89 am   BACKBONE|DICT|INTERRES
   175   89   90 1    
   176   89  210 1    
   177   90   91 1    
   178   90   92 1    
   179   90  211 1    
   180   91  212 1    
   181   91  213 1    
   182   91  214 1    
   183   92   93 2    
   184   92   94 am   BACKBONE|DICT|INTERRES
   185   94   95 1    
   186   94  215 1    
   187   95   96 1    
   188   95   97 1    
   189   95  216 1    
   190   96  217 1    
   191   96  218 1    
   192   96  219 1    
   193   97   98 2    
   194   97   99 am   BACKBONE|DICT|INTERRES
   195   99  100 1    
   196   99  220 1    
   197  100  101 1    
   198  100  102 1    
   199  100  221 1    
   200  101  222 1    
   201  101  223 1    
   202  101  224 1    
   203  102  103 2    
   204  102  104 am   BACKBONE|DICT|INTERRES
   205  104  105 1    
   206  104  225 1    
   207  105  106 1    
   208  105  107 1    
   209  105  226 1    
   210  106  227 1    
   211  106  228 1    
   212  106  229 1    
   213  107  108 2    
   214  107  109 am   BACKBONE|DICT|INTERRES
   215  109  110 1    
   216  109  230 1    
   217  110  111 1    
   218  110  112 1    
   219  110  231 1    
   220  111  232 1    
   221  111  233 1    
   222  111  234 1    
   223  112  113 2    
   224  112  114 am   BACKBONE|DICT|INTERRES
   225  114  115 1    
   226  114  235 1    
   227  115  116 1    
   228  115  117 1    
   229  115  236 1    
   230  116  237 1    
   231  116  238 1    
   232  116  239 1    
   233  117  118 2    
   234  117  119 am   BACKBONE|DICT|INTERRES
   235  119  120 1    
   236  119  240 1    
   237  120  121 1    
   238  120  124 1    
   239  120  241 1    
   240  121  122 am   BACKBONE|DICT|INTERRES
   241  121  123 2    
   242  122  242 1    
   243  122  243 1    
   244  124  125 1    
   245  124  244 1    
   246  124  245 1    
   247  125  126 1    
   248  126  246 1    
   249  126  247 1    
@<TRIPOS>SUBSTRUCTURE
     1 UNK         1 GROUP             0       ****    0 ROOT    
