@<TRIPOS>MOLECULE
3R540
247   249    1
SMALL
USER_CHARGES


@<TRIPOS>ATOM
      1 CA          1.3706  -12.3446  -48.6685 C.3       0 UNK        -0.1800 
      2 C           2.8409  -12.4989  -48.3066 C.2       0 UNK         0.5000 
      3 O           3.3046  -11.8903  -47.3423 O.2       0 UNK        -0.5000 
      4 N           3.5725  -13.3377  -49.0536 N.am      1 UNK        -0.5000 
      5 CA          5.0006  -13.6485  -48.8675 C.3       1 UNK         0.1400 
      6 C6          5.6058  -14.4096  -50.0814 C.3       23 UNK        -0.0398 
      7 S7          4.6430  -15.7797  -50.8332 S.3       23 UNK        -0.2404 
      8 C8          3.8884  -16.6669  -49.4318 C.3       23 UNK        -0.0205 
      9 C9          3.0669  -17.8639  -49.8815 C.ar      23 UNK        -0.0193 
     10 C10         1.9909  -17.6874  -50.7554 C.ar      23 UNK        -0.1150 
     11 C11         1.1932  -18.7689  -51.1347 C.ar      23 UNK        -0.0193 
     12 C12         1.4829  -20.0408  -50.6274 C.ar      23 UNK        -0.1150 
     13 C13         2.5689  -20.2378  -49.7653 C.ar      23 UNK        -0.0193 
     14 C14         3.3582  -19.1425  -49.3999 C.ar      23 UNK        -0.1150 
     15 C15         2.9017  -21.6412  -49.2632 C.3       23 UNK        -0.0205 
     16 S16         3.2038  -21.7521  -47.4609 S.3       23 UNK        -0.2404 
     17 C17         1.6689  -21.0601  -46.7560 C.3       23 UNK        -0.0398 
     18 CA          0.5960  -22.1099  -46.3754 C.3       11 UNK         0.1400 
     19 N          -0.4881  -21.5075  -45.5950 N.am      11 UNK        -0.5000 
     20 C          -1.5168  -22.1679  -45.0447 C.2       10 UNK         0.5000 
     21 O          -1.6293  -23.3924  -45.0564 O.2       10 UNK        -0.5000 
     22 CA         -2.6387  -21.3153  -44.4244 C.3       10 UNK         0.1400 
     23 CB         -2.2821  -20.8926  -42.9919 C.3       10 UNK        -0.1800 
     24 N          -2.9528  -20.1346  -45.2307 N.am      10 UNK        -0.5000 
     25 C          -3.4682  -20.1807  -46.4685 C.2       9 UNK         0.5000 
     26 O          -3.8030  -21.2251  -47.0282 O.2       9 UNK        -0.5000 
     27 CA         -3.5967  -18.8418  -47.2195 C.3       9 UNK         0.1400 
     28 CB         -4.8579  -18.0910  -46.7710 C.3       9 UNK        -0.1800 
     29 N          -2.4279  -17.9787  -47.0425 N.am      9 UNK        -0.5000 
     30 C          -1.1887  -18.2863  -47.4492 C.2       8 UNK         0.5000 
     31 O          -0.9169  -19.3158  -48.0638 O.2       8 UNK        -0.5000 
     32 CA         -0.0551  -17.3291  -47.0265 C.3       8 UNK         0.1400 
     33 CB          0.0365  -16.1054  -47.9465 C.3       8 UNK        -0.1800 
     34 N          -0.1993  -16.8792  -45.6426 N.am      8 UNK        -0.5000 
     35 C          -0.0955  -17.6812  -44.5743 C.2       7 UNK         0.5000 
     36 O           0.1838  -18.8767  -44.6452 O.2       7 UNK        -0.5000 
     37 CA         -0.4046  -17.0560  -43.2035 C.3       7 UNK         0.1400 
     38 CB          0.8250  -16.3412  -42.6244 C.3       7 UNK        -0.1800 
     39 N          -1.5320  -16.1270  -43.2720 N.am      7 UNK        -0.5000 
     40 C          -2.8025  -16.5038  -43.4748 C.2       6 UNK         0.5000 
     41 O          -3.1584  -17.6772  -43.5781 O.2       6 UNK        -0.5000 
     42 CA         -3.8395  -15.3769  -43.6323 C.3       6 UNK         0.1400 
     43 CB         -4.3226  -14.8896  -42.2583 C.3       6 UNK        -0.1800 
     44 N          -3.3194  -14.2409  -44.3952 N.am      6 UNK        -0.5000 
     45 C          -2.9897  -14.2863  -45.6944 C.2       5 UNK         0.5000 
     46 O          -3.1302  -15.2835  -46.3989 O.2       5 UNK        -0.5000 
     47 CA         -2.3418  -13.0230  -46.2888 C.3       5 UNK         0.1400 
     48 CB         -3.4141  -12.0532  -46.8056 C.3       5 UNK        -0.1800 
     49 N          -1.4779  -12.3330  -45.3273 N.am      5 UNK        -0.5000 
     50 C          -0.3358  -12.8411  -44.8492 C.2       4 UNK         0.5000 
     51 O           0.1252  -13.9350  -45.1890 O.2       4 UNK        -0.5000 
     52 CA          0.3878  -12.0142  -43.7826 C.3       4 UNK         0.1400 
     53 CB         -0.0587  -12.4341  -42.3702 C.3       4 UNK        -0.1800 
     54 N           1.8178  -12.2220  -43.9548 N.am      4 UNK        -0.5000 
     55 C           2.7935  -11.4440  -43.4759 C.2       3 UNK         0.5000 
     56 O           2.5898  -10.4783  -42.7382 O.2       3 UNK        -0.5000 
     57 CA          4.2322  -11.7547  -43.9362 C.3       3 UNK         0.1400 
     58 CB          5.2543  -11.7078  -42.7810 C.3       3 UNK        -0.1800 
     59 N           4.3480  -12.9796  -44.7386 N.am      3 UNK        -0.5000 
     60 C           4.3552  -14.2602  -44.3341 C.2       2 UNK         0.5000 
     61 O           4.2779  -14.6073  -43.1560 O.2       2 UNK        -0.5000 
     62 CA          4.4381  -15.3441  -45.4339 C.3       2 UNK         0.1400 
     63 CB          3.3206  -16.3860  -45.2780 C.3       2 UNK        -0.1800 
     64 N           4.3405  -14.7847  -46.7813 N.am      2 UNK        -0.5000 
     65 C           5.3569  -14.3154  -47.5157 C.2       1 UNK         0.5000 
     66 O           6.5327  -14.3644  -47.1544 O.2       1 UNK        -0.5000 
     67 C           0.0502  -22.8556  -47.6104 C.2       11 UNK         0.5000 
     68 O           0.4007  -24.0169  -47.8158 O.2       11 UNK        -0.5000 
     69 N          -0.8244  -22.1973  -48.3849 N.am      12 UNK        -0.5000 
     70 CA         -1.4955  -22.7771  -49.5490 C.3       12 UNK         0.1400 
     71 CB         -2.3176  -21.6982  -50.2651 C.3       12 UNK        -0.1800 
     72 C          -2.3658  -23.9953  -49.1920 C.2       12 UNK         0.5000 
     73 O          -2.2771  -25.0189  -49.8700 O.2       12 UNK        -0.5000 
     74 N          -3.1407  -23.8897  -48.1038 N.am      13 UNK        -0.5000 
     75 CA         -3.9508  -24.9814  -47.5633 C.3       13 UNK         0.1400 
     76 CB         -4.8397  -24.4523  -46.4283 C.3       13 UNK        -0.1800 
     77 C          -3.1017  -26.1804  -47.0954 C.2       13 UNK         0.5000 
     78 O          -3.4386  -27.3202  -47.4165 O.2       13 UNK        -0.5000 
     79 N          -1.9924  -25.9081  -46.3920 N.am      14 UNK        -0.5000 
     80 CA         -1.0167  -26.9079  -45.9450 C.3       14 UNK         0.1400 
     81 CB         -0.0116  -26.2534  -44.9854 C.3       14 UNK        -0.1800 
     82 C          -0.2838  -27.6034  -47.1091 C.2       14 UNK         0.5000 
     83 O           0.0040  -28.7973  -47.0200 O.2       14 UNK        -0.5000 
     84 N          -0.0366  -26.8589  -48.1947 N.am      15 UNK        -0.5000 
     85 CA          0.5190  -27.3495  -49.4583 C.3       15 UNK         0.1400 
     86 CB          1.0995  -26.1580  -50.2388 C.3       15 UNK        -0.1800 
     87 C          -0.4960  -28.1319  -50.3224 C.2       15 UNK         0.5000 
     88 O          -0.1160  -28.6274  -51.3841 O.2       15 UNK        -0.5000 
     89 N          -1.7540  -28.2287  -49.8654 N.am      16 UNK        -0.5000 
     90 CA         -2.8950  -28.8955  -50.4998 C.3       16 UNK         0.1400 
     91 CB         -2.6351  -30.4055  -50.6873 C.3       16 UNK        -0.1800 
     92 C          -3.3838  -28.1962  -51.7853 C.2       16 UNK         0.5000 
     93 O          -3.9877  -28.8423  -52.6444 O.2       16 UNK        -0.5000 
     94 N          -3.1507  -26.8817  -51.8795 N.am      17 UNK        -0.5000 
     95 CA         -3.7608  -25.9942  -52.8651 C.3       17 UNK         0.1400 
     96 CB         -2.7564  -24.8807  -53.2142 C.3       17 UNK        -0.1800 
     97 C          -5.0795  -25.4223  -52.3044 C.2       17 UNK         0.5000 
     98 O          -5.4899  -25.7660  -51.1912 O.2       17 UNK        -0.5000 
     99 N          -5.7348  -24.5609  -53.0919 N.am      18 UNK        -0.5000 
    100 CA        -6.9504  -23.8462  -52.7000 C.3       18 UNK         0.1400 
    101 CB        -7.5006  -23.0915  -53.9202 C.3       18 UNK        -0.1800 
    102 C         -6.7028  -22.8718  -51.5311 C.2       18 UNK         0.5000 
    103 O         -5.6327  -22.2640  -51.4542 O.2       18 UNK        -0.5000 
    104 N         -7.7091  -22.7300  -50.6607 N.am      19 UNK        -0.5000 
    105 CA        -7.7196  -21.7746  -49.5529 C.3       19 UNK         0.1400 
    106 CB        -8.8496  -22.1578  -48.5838 C.3       19 UNK        -0.1800 
    107 C         -7.8904  -20.3240  -50.0471 C.2       19 UNK         0.5000 
    108 O         -8.3579  -20.1032  -51.1680 O.2       19 UNK        -0.5000 
    109 N         -7.5293  -19.3682  -49.1797 N.am      20 UNK        -0.5000 
    110 CA        -7.4536  -17.9269  -49.4468 C.3       20 UNK         0.1400 
    111 CB        -8.8524  -17.3365  -49.7413 C.3       20 UNK        -0.1800 
    112 C         -6.3839  -17.6131  -50.5178 C.2       20 UNK         0.5000 
    113 O         -5.3433  -18.2734  -50.5308 O.2       20 UNK        -0.5000 
    114 N         -6.6501  -16.6190  -51.3779 N.am      21 UNK        -0.5000 
    115 CA        -5.7967  -16.1529  -52.4765 C.3       21 UNK         0.1400 
    116 CB        -5.7158  -17.2288  -53.5847 C.3       21 UNK        -0.1800 
    117 C         -4.4201  -15.6431  -51.9880 C.2       21 UNK         0.5000 
    118 O         -4.3506  -15.0156  -50.9288 O.2       21 UNK        -0.5000 
    119 N         -3.3673  -15.8879  -52.7801 N.am      22 UNK        -0.5000 
    120 CA        -1.9609  -15.5299  -52.5120 C.3       22 UNK         0.1400 
    121 C         -1.6577  -13.9985  -52.5039 C.2       22 UNK         0.5000 
    122 N         -2.5210  -13.1502  -53.0489 N.am      22 UNK        -0.7600 
    123 O         -0.6092  -13.5695  -52.0297 O.2       22 UNK        -0.5000 
    124 C124       -1.3660  -16.2573  -51.2728 C.3       23 UNK        -0.0398 
    125 S125       -1.5114  -18.0761  -51.3564 S.3       23 UNK        -0.2404 
    126 C126        0.0597  -18.5730  -52.1355 C.3       23 UNK        -0.0205 
    127 H127        1.0995  -12.9488  -49.5350 H         1 UNK         0.0600 
    128 H128        1.1472  -11.3026  -48.8963 H         1 UNK         0.0600 
    129 H129        0.7451  -12.6534  -47.8312 H         1 UNK         0.0600 
    130 H130        3.1389  -13.7984  -49.8417 H         1 UNK         0.3000 
    131 H131        5.5088  -12.6824  -48.8298 H         1 UNK         0.0600 
    132 H132        6.6048  -14.7840  -49.8498 H         1 UNK         0.0800 
    133 H133        5.7656  -13.6873  -50.8831 H         1 UNK         0.0800 
    134 H134        4.6707  -16.9747  -48.7363 H         1 UNK         0.0800 
    135 H135        3.2138  -16.0063  -48.8914 H         1 UNK         0.0800 
    136 H136        1.7859  -16.7023  -51.1469 H         1 UNK         0.1150 
    137 H137        0.8716  -20.8821  -50.9214 H         1 UNK         0.1150 
    138 H138        4.1959  -19.2874  -48.7324 H         1 UNK         0.1150 
    139 H139        2.1128  -22.3432  -49.5347 H         1 UNK         0.0800 
    140 H140        3.7974  -21.9849  -49.7817 H         1 UNK         0.0800 
    141 H141        1.2653  -20.3112  -47.4325 H         1 UNK         0.0800 
    142 H142        1.9635  -20.5103  -45.8614 H         1 UNK         0.0800 
    143 H143        1.0692  -22.8526  -45.7299 H         1 UNK         0.0600 
    144 H144       -0.4466  -20.4995  -45.4760 H         1 UNK         0.3000 
    145 H145       -3.5373  -21.9338  -44.3780 H         1 UNK         0.0600 
    146 H146       -3.1009  -20.3423  -42.5283 H         1 UNK         0.0600 
    147 H147       -2.0809  -21.7641  -42.3678 H         1 UNK         0.0600 
    148 H148       -1.3961  -20.2590  -42.9649 H         1 UNK         0.0600 
    149 H149       -2.7642  -19.2305  -44.8103 H         1 UNK         0.3000 
    150 H150       -3.6893  -19.0636  -48.2851 H         1 UNK         0.0600 
    151 H151       -5.7447  -18.7140  -46.8845 H         1 UNK         0.0600 
    152 H152       -5.0059  -17.1886  -47.3641 H         1 UNK         0.0600 
    153 H153       -4.8011  -17.7951  -45.7239 H         1 UNK         0.0600 
    154 H154       -2.5899  -17.0783  -46.5994 H         1 UNK         0.3000 
    155 H155        0.8883  -17.8738  -47.1036 H         1 UNK         0.0600 
    156 H156       -0.8996  -15.5484  -47.9781 H         1 UNK         0.0600 
    157 H157        0.2733  -16.4152  -48.9613 H         1 UNK         0.0600 
    158 H158        0.8236  -15.4238  -47.6242 H         1 UNK         0.0600 
    159 H159       -0.3828  -15.8924  -45.4978 H         1 UNK         0.3000 
    160 H160       -0.6721  -17.8664  -42.5221 H         1 UNK         0.0600 
    161 H161        1.1458  -15.5072  -43.2484 H         1 UNK         0.0600 
    162 H162        1.6676  -17.0278  -42.5365 H         1 UNK         0.0600 
    163 H163        0.6209  -15.9533  -41.6265 H         1 UNK         0.0600 
    164 H164       -1.3160  -15.1429  -43.2369 H         1 UNK         0.3000 
    165 H165       -4.6969  -15.7848  -44.1717 H         1 UNK         0.0600 
    166 H166       -5.1115  -14.1442  -42.3596 H         1 UNK         0.0600 
    167 H167       -4.7304  -15.7152  -41.6734 H         1 UNK         0.0600 
    168 H168       -3.5125  -14.4452  -41.6786 H         1 UNK         0.0600 
    169 H169       -3.1783  -13.3780  -43.8918 H         1 UNK         0.3000 
    170 H170       -1.7274  -13.3331  -47.1367 H         1 UNK         0.0600 
    171 H171       -4.0571  -12.5401  -47.5403 H         1 UNK         0.0600 
    172 H172       -4.0526  -11.6888  -45.9999 H         1 UNK         0.0600 
    173 H173       -2.9619  -11.1897  -47.2937 H         1 UNK         0.0600 
    174 H174       -1.7924  -11.4294  -45.0037 H         1 UNK         0.3000 
    175 H175        0.1608  -10.9580  -43.9413 H         1 UNK         0.0600 
    176 H176       -1.1380  -12.3315  -42.2515 H         1 UNK         0.0600 
    177 H177        0.2003  -13.4709  -42.1574 H         1 UNK         0.0600 
    178 H178        0.4084  -11.8132  -41.6058 H         1 UNK         0.0600 
    179 H179        2.0554  -12.9863  -44.5730 H         1 UNK         0.3000 
    180 H180        4.4930  -10.9469  -44.6215 H         1 UNK         0.0600 
    181 H181        4.9994  -12.4033  -41.9814 H         1 UNK         0.0600 
    182 H182        5.2939  -10.7118  -42.3387 H         1 UNK         0.0600 
    183 H183        6.2587  -11.9464  -43.1305 H         1 UNK         0.0600 
    184 H184        4.3449  -12.8122  -45.7384 H         1 UNK         0.3000 
    185 H185        5.3976  -15.8525  -45.3197 H         1 UNK         0.0600 
    186 H186        3.3827  -16.8918  -44.3142 H         1 UNK         0.0600 
    187 H187        2.3396  -15.9176  -45.3466 H         1 UNK         0.0600 
    188 H188        3.3805  -17.1541  -46.0494 H         1 UNK         0.0600 
    189 H189        3.4070  -14.6612  -47.1433 H         1 UNK         0.3000 
    190 H190       -1.0295  -21.2227  -48.1766 H         1 UNK         0.3000 
    191 H191       -0.7193  -23.1177  -50.2370 H         1 UNK         0.0600 
    192 H192       -3.0946  -21.2832  -49.6232 H         1 UNK         0.0600 
    193 H193       -2.8081  -22.0999  -51.1520 H         1 UNK         0.0600 
    194 H194       -1.6803  -20.8775  -50.5894 H         1 UNK         0.0600 
    195 H195       -3.1873  -22.9972  -47.6203 H         1 UNK         0.3000 
    196 H196       -4.6029  -25.3328  -48.3661 H         1 UNK         0.0600 
    197 H197       -5.4773  -25.2430  -46.0313 H         1 UNK         0.0600 
    198 H198       -5.4922  -23.6528  -46.7801 H         1 UNK         0.0600 
    199 H199       -4.2476  -24.0606  -45.6012 H         1 UNK         0.0600 
    200 H200       -1.8033  -24.9441  -46.1278 H         1 UNK         0.3000 
    201 H201       -1.5600  -27.6772  -45.3927 H         1 UNK         0.0600 
    202 H202       -0.5149  -25.8344  -44.1139 H         1 UNK         0.0600 
    203 H203        0.5424  -25.4491  -45.4699 H         1 UNK         0.0600 
    204 H204        0.7148  -26.9817  -44.6227 H         1 UNK         0.0600 
    205 H205       -0.2382  -25.8641  -48.1517 H         1 UNK         0.3000 
    206 H206        1.3386  -28.0334  -49.2293 H         1 UNK         0.0600 
    207 H207        1.8502  -25.6290  -49.6512 H         1 UNK         0.0600 
    208 H208        1.5828  -26.4874  -51.1593 H         1 UNK         0.0600 
    209 H209        0.3250  -25.4421  -50.5137 H         1 UNK         0.0600 
    210 H210       -1.9710  -27.7601  -48.9942 H         1 UNK         0.3000 
    211 H211       -3.7172  -28.7994  -49.7895 H         1 UNK         0.0600 
    212 H212       -1.8872  -30.5979  -51.4566 H         1 UNK         0.0600 
    213 H213       -3.5470  -30.9240  -50.9851 H         1 UNK         0.0600 
    214 H214       -2.2912  -30.8645  -49.7604 H         1 UNK         0.0600 
    215 H215       -2.7139  -26.4095  -51.0914 H         1 UNK         0.3000 
    216 H216       -3.9903  -26.5499  -53.7764 H         1 UNK         0.0600 
    217 H217       -2.5831  -24.2123  -52.3716 H         1 UNK         0.0600 
    218 H218       -3.1123  -24.2716  -54.0453 H         1 UNK         0.0600 
    219 H219       -1.7940  -25.2978  -53.5114 H         1 UNK         0.0600 
    220 H220       -5.3322  -24.3048  -53.9809 H         1 UNK         0.3000 
    221 H221       -7.6895  -24.5875  -52.3885 H         1 UNK         0.0600 
    222 H222       -7.7310  -23.7745  -54.7381 H         1 UNK         0.0600 
    223 H223       -6.7891  -22.3513  -54.2886 H         1 UNK         0.0600 
    224 H224       -8.4212  -22.5626  -53.6696 H         1 UNK         0.0600 
    225 H225       -8.5675  -23.2366  -50.8190 H         1 UNK         0.3000 
    226 H226       -6.7655  -21.8491  -49.0255 H         1 UNK         0.0600 
    227 H227       -8.7199  -23.1734  -48.2089 H         1 UNK         0.0600 
    228 H228       -8.8683  -21.4951  -47.7179 H         1 UNK         0.0600 
    229 H229       -9.8277  -22.0982  -49.0629 H         1 UNK         0.0600 
    230 H230       -7.1537  -19.6590  -48.2894 H         1 UNK         0.3000 
    231 H231       -7.1025  -17.4634  -48.5254 H         1 UNK         0.0600 
    232 H232       -9.2372  -17.6512  -50.7118 H         1 UNK         0.0600 
    233 H233       -8.8312  -16.2463  -49.7307 H         1 UNK         0.0600 
    234 H234       -9.5732  -17.6456  -48.9843 H         1 UNK         0.0600 
    235 H235       -7.5179  -16.1161  -51.2617 H         1 UNK         0.3000 
    236 H236       -6.3022  -15.2844  -52.9007 H         1 UNK         0.0600 
    237 H237       -5.2579  -16.8345  -54.4924 H         1 UNK         0.0600 
    238 H238       -5.1372  -18.0974  -53.2671 H         1 UNK         0.0600 
    239 H239       -6.7103  -17.5800  -53.8606 H         1 UNK         0.0600 
    240 H240       -3.5258  -16.4057  -53.6320 H         1 UNK         0.3000 
    241 H241       -1.4107  -15.8967  -53.3789 H         1 UNK         0.0600 
    242 H242       -2.3120  -12.1643  -53.0505 H         1 UNK         0.3800 
    243 H243       -3.3815  -13.4815  -53.4541 H         1 UNK         0.3800 
    244 H244       -1.8648  -15.9209  -50.3631 H         1 UNK         0.0800 
    245 H245       -0.3166  -15.9971  -51.1522 H         1 UNK         0.0800 
    246 H246        0.3463  -17.8395  -52.8904 H         1 UNK         0.0800 
    247 H247       -0.1100  -19.5048  -52.6767 H         1 UNK         0.0800 
@<TRIPOS>BOND
     1    1    2 1    
     2    1  127 1    
     3    1  128 1    
     4    1  129 1    
     5    2    3 2    
     6    2    4 am   BACKBONE|DICT|INTERRES
     7    4    5 1    
     8    4  130 1    
     9    5    6 1    
    10    5   65 1    
    11    5  131 1    
    12    6    7 1    
    13    6  132 1    
    14    6  133 1    
    15    7    8 1    
    16    8    9 1    
    17    8  134 1    
    18    8  135 1    
    19    9   10 ar   
    20    9   14 ar   
    21   10   11 ar   
    22   10  136 1    
    23   11   12 ar   
    24   11  126 1    
    25   12   13 ar   
    26   12  137 1    
    27   13   14 ar   
    28   13   15 1    
    29   14  138 1    
    30   15   16 1    
    31   15  139 1    
    32   15  140 1    
    33   16   17 1    
    34   17   18 1    
    35   17  141 1    
    36   17  142 1    
    37   18   19 1    
    38   18   67 1    
    39   18  143 1    
    40   19   20 am   BACKBONE|DICT|INTERRES
    41   19  144 1    
    42   20   21 2    
    43   20   22 1    
    44   22   23 1    
    45   22   24 1    
    46   22  145 1    
    47   23  146 1    
    48   23  147 1    
    49   23  148 1    
    50   24   25 am   BACKBONE|DICT|INTERRES
    51   24  149 1    
    52   25   26 2    
    53   25   27 1    
    54   27   28 1    
    55   27   29 1    
    56   27  150 1    
    57   28  151 1    
    58   28  152 1    
    59   28  153 1    
    60   29   30 am   BACKBONE|DICT|INTERRES
    61   29  154 1    
    62   30   31 2    
    63   30   32 1    
    64   32   33 1    
    65   32   34 1    
    66   32  155 1    
    67   33  156 1    
    68   33  157 1    
    69   33  158 1    
    70   34   35 am   BACKBONE|DICT|INTERRES
    71   34  159 1    
    72   35   36 2    
    73   35   37 1    
    74   37   38 1    
    75   37   39 1    
    76   37  160 1    
    77   38  161 1    
    78   38  162 1    
    79   38  163 1    
    80   39   40 am   BACKBONE|DICT|INTERRES
    81   39  164 1    
    82   40   41 2    
    83   40   42 1    
    84   42   43 1    
    85   42   44 1    
    86   42  165 1    
    87   43  166 1    
    88   43  167 1    
    89   43  168 1    
    90   44   45 am   BACKBONE|DICT|INTERRES
    91   44  169 1    
    92   45   46 2    
    93   45   47 1    
    94   47   48 1    
    95   47   49 1    
    96   47  170 1    
    97   48  171 1    
    98   48  172 1    
    99   48  173 1    
   100   49   50 am   BACKBONE|DICT|INTERRES
   101   49  174 1    
   102   50   51 2    
   103   50   52 1    
   104   52   53 1    
   105   52   54 1    
   106   52  175 1    
   107   53  176 1    
   108   53  177 1    
   109   53  178 1    
   110   54   55 am   BACKBONE|DICT|INTERRES
   111   54  179 1    
   112   55   56 2    
   113   55   57 1    
   114   57   58 1    
   115   57   59 1    
   116   57  180 1    
   117   58  181 1    
   118   58  182 1    
   119   58  183 1    
   120   59   60 am   BACKBONE|DICT|INTERRES
   121   59  184 1    
   122   60   61 2    
   123   60   62 1    
   124   62   63 1    
   125   62   64 1    
   126   62  185 1    
   127   63  186 1    
   128   63  187 1    
   129   63  188 1    
   130   64   65 am   BACKBONE|DICT|INTERRES
   131   64  189 1    
   132   65   66 2    
   133   67   68 2    
   134   67   69 am   BACKBONE|DICT|INTERRES
   135   69   70 1    
   136   69  190 1    
   137   70   71 1    
   138   70   72 1    
   139   70  191 1    
   140   71  192 1    
   141   71  193 1    
   142   71  194 1    
   143   72   73 2    
   144   72   74 am   BACKBONE|DICT|INTERRES
   145   74   75 1    
   146   74  195 1    
   147   75   76 1    
   148   75   77 1    
   149   75  196 1    
   150   76  197 1    
   151   76  198 1    
   152   76  199 1    
   153   77   78 2    
   154   77   79 am   BACKBONE|DICT|INTERRES
   155   79   80 1    
   156   79  200 1    
   157   80   81 1    
   158   80   82 1    
   159   80  201 1    
   160   81  202 1    
   161   81  203 1    
   162   81  204 1    
   163   82   83 2    
   164   82   84 am   BACKBONE|DICT|INTERRES
   165   84   85 1    
   166   84  205 1    
   167   85   86 1    
   168   85   87 1    
   169   85  206 1    
   170   86  207 1    
   171   86  208 1    
   172   86  209 1    
   173   87   88 2    
   174   87   89 am   BACKBONE|DICT|INTERRES
   175   89   90 1    
   176   89  210 1    
   177   90   91 1    
   178   90   92 1    
   179   90  211 1    
   180   91  212 1    
   181   91  213 1    
   182   91  214 1    
   183   92   93 2    
   184   92   94 am   BACKBONE|DICT|INTERRES
   185   94   95 1    
   186   94  215 1    
   187   95   96 1    
   188   95   97 1    
   189   95  216 1    
   190   96  217 1    
   191   96  218 1    
   192   96  219 1    
   193   97   98 2    
   194   97   99 am   BACKBONE|DICT|INTERRES
   195   99  100 1    
   196   99  220 1    
   197  100  101 1    
   198  100  102 1    
   199  100  221 1    
   200  101  222 1    
   201  101  223 1    
   202  101  224 1    
   203  102  103 2    
   204  102  104 am   BACKBONE|DICT|INTERRES
   205  104  105 1    
   206  104  225 1    
   207  105  106 1    
   208  105  107 1    
   209  105  226 1    
   210  106  227 1    
   211  106  228 1    
   212  106  229 1    
   213  107  108 2    
   214  107  109 am   BACKBONE|DICT|INTERRES
   215  109  110 1    
   216  109  230 1    
   217  110  111 1    
   218  110  112 1    
   219  110  231 1    
   220  111  232 1    
   221  111  233 1    
   222  111  234 1    
   223  112  113 2    
   224  112  114 am   BACKBONE|DICT|INTERRES
   225  114  115 1    
   226  114  235 1    
   227  115  116 1    
   228  115  117 1    
   229  115  236 1    
   230  116  237 1    
   231  116  238 1    
   232  116  239 1    
   233  117  118 2    
   234  117  119 am   BACKBONE|DICT|INTERRES
   235  119  120 1    
   236  119  240 1    
   237  120  121 1    
   238  120  124 1    
   239  120  241 1    
   240  121  122 am   BACKBONE|DICT|INTERRES
   241  121  123 2    
   242  122  242 1    
   243  122  243 1    
   244  124  125 1    
   245  124  244 1    
   246  124  245 1    
   247  125  126 1    
   248  126  246 1    
   249  126  247 1    
@<TRIPOS>SUBSTRUCTURE
     1 UNK         1 GROUP             0       ****    0 ROOT    
