@<TRIPOS>MOLECULE
3R540
247   249    1
SMALL
USER_CHARGES


@<TRIPOS>ATOM
      1 CA          2.0155  -11.4898  -45.8644 C.3       0 UNK        -0.1800 
      2 C           1.2814  -12.5334  -46.6922 C.2       0 UNK         0.5000 
      3 O           0.0670  -12.6726  -46.5649 O.2       0 UNK        -0.5000 
      4 N           2.0039  -13.2569  -47.5580 N.am      1 UNK        -0.5000 
      5 CA          1.4748  -14.3427  -48.3988 C.3       1 UNK         0.1400 
      6 C6          2.6175  -15.2062  -48.9949 C.3       23 UNK        -0.0398 
      7 S7          2.2243  -16.9867  -48.9826 S.3       23 UNK        -0.2404 
      8 C8          2.1194  -17.3366  -50.7697 C.3       23 UNK        -0.0205 
      9 C9          1.8154  -18.7991  -51.0821 C.ar      23 UNK        -0.0193 
     10 C10         0.9091  -19.1186  -52.0974 C.ar      23 UNK        -0.1150 
     11 C11         0.6486  -20.4519  -52.4253 C.ar      23 UNK        -0.0193 
     12 C12         1.2802  -21.4713  -51.7106 C.ar      23 UNK        -0.1150 
     13 C13         2.1911  -21.1764  -50.6928 C.ar      23 UNK        -0.0193 
     14 C14         2.4683  -19.8339  -50.4021 C.ar      23 UNK        -0.1150 
     15 C15         2.8729  -22.3424  -49.9748 C.3       23 UNK        -0.0205 
     16 S16         3.6997  -21.9524  -48.3926 S.3       23 UNK        -0.2404 
     17 C17         2.3063  -21.4392  -47.3331 C.3       23 UNK        -0.0398 
     18 CA          1.6170  -22.6385  -46.6289 C.3       11 UNK         0.1400 
     19 N           1.3952  -22.4021  -45.1996 N.am      11 UNK        -0.5000 
     20 C           0.9975  -23.3395  -44.3270 C.2       10 UNK         0.5000 
     21 O           0.8330  -24.5238  -44.6230 O.2       10 UNK        -0.5000 
     22 CA          0.6800  -22.8631  -42.8966 C.3       10 UNK         0.1400 
     23 CB          1.9612  -22.7292  -42.0604 C.3       10 UNK        -0.1800 
     24 N          -0.0556  -21.5972  -42.8814 N.am      10 UNK        -0.5000 
     25 C          -1.2902  -21.4407  -43.3813 C.2       9 UNK         0.5000 
     26 O          -1.9605  -22.3635  -43.8435 O.2       9 UNK        -0.5000 
     27 CA         -1.8513  -20.0085  -43.4198 C.3       9 UNK         0.1400 
     28 CB         -2.4426  -19.6150  -42.0582 C.3       9 UNK        -0.1800 
     29 N          -0.8505  -19.0218  -43.8233 N.am      9 UNK        -0.5000 
     30 C          -0.2391  -18.9862  -45.0156 C.2       8 UNK         0.5000 
     31 O          -0.4785  -19.7673  -45.9329 O.2       8 UNK        -0.5000 
     32 CA          0.8672  -17.9351  -45.1943 C.3       8 UNK         0.1400 
     33 CB          0.2653  -16.5583  -45.5042 C.3       8 UNK        -0.1800 
     34 N           1.7301  -17.8449  -44.0167 N.am      8 UNK        -0.5000 
     35 C           2.5470  -18.8228  -43.5995 C.2       7 UNK         0.5000 
     36 O           2.6749  -19.9012  -44.1781 O.2       7 UNK        -0.5000 
     37 CA          3.3182  -18.5646  -42.2933 C.3       7 UNK         0.1400 
     38 CB          4.5940  -17.7550  -42.5683 C.3       7 UNK        -0.1800 
     39 N           2.5048  -17.8676  -41.2961 N.am      7 UNK        -0.5000 
     40 C           1.4474  -18.4079  -40.6741 C.2       6 UNK         0.5000 
     41 O           1.0656  -19.5653  -40.8522 O.2       6 UNK        -0.5000 
     42 CA          0.6543  -17.4724  -39.7401 C.3       6 UNK         0.1400 
     43 CB          1.3378  -17.3646  -38.3687 C.3       6 UNK        -0.1800 
     44 N           0.4596  -16.1284  -40.2996 N.am      6 UNK        -0.5000 
     45 C          -0.2139  -15.8832  -41.4304 C.2       5 UNK         0.5000 
     46 O          -0.7222  -16.7720  -42.1195 O.2       5 UNK        -0.5000 
     47 CA         -0.3150  -14.4232  -41.8981 C.3       5 UNK         0.1400 
     48 CB          1.0303  -13.9464  -42.4814 C.3       5 UNK        -0.1800 
     49 N          -1.3590  -14.3853  -42.9157 N.am      5 UNK        -0.5000 
     50 C          -1.8882  -13.3223  -43.5229 C.2       4 UNK         0.5000 
     51 O          -1.5852  -12.1519  -43.2763 O.2       4 UNK        -0.5000 
     52 CA         -2.9655  -13.6361  -44.5695 C.3       4 UNK         0.1400 
     53 CB         -4.3570  -13.7445  -43.9234 C.3       4 UNK        -0.1800 
     54 N          -2.9711  -12.5858  -45.5787 N.am      4 UNK        -0.5000 
     55 C          -3.2260  -12.7698  -46.8779 C.2       3 UNK         0.5000 
     56 O          -3.5679  -13.8524  -47.3562 O.2       3 UNK        -0.5000 
     57 CA         -3.0661  -11.5582  -47.8117 C.3       3 UNK         0.1400 
     58 CB         -2.9204  -10.2055  -47.0848 C.3       3 UNK        -0.1800 
     59 N          -1.8891  -11.7802  -48.6426 N.am      3 UNK        -0.5000 
     60 C          -1.8276  -11.6218  -49.9711 C.2       2 UNK         0.5000 
     61 O          -2.7804  -11.2470  -50.6554 O.2       2 UNK        -0.5000 
     62 CA         -0.4761  -11.9009  -50.6662 C.3       2 UNK         0.1400 
     63 CB          0.1441  -10.5925  -51.1821 C.3       2 UNK        -0.1800 
     64 N           0.4986  -12.5656  -49.7997 N.am      2 UNK        -0.5000 
     65 C           0.4721  -13.8654  -49.4758 C.2       1 UNK         0.5000 
     66 O          -0.3255  -14.6636  -49.9632 O.2       1 UNK        -0.5000 
     67 C           0.3093  -23.0341  -47.3448 C.2       11 UNK         0.5000 
     68 O           0.2963  -24.0121  -48.0899 O.2       11 UNK        -0.5000 
     69 N          -0.7750  -22.2967  -47.0699 N.am      12 UNK        -0.5000 
     70 CA         -2.1143  -22.5328  -47.6064 C.3       12 UNK         0.1400 
     71 CB         -3.0549  -21.4070  -47.1512 C.3       12 UNK        -0.1800 
     72 C          -2.6893  -23.9056  -47.2185 C.2       12 UNK         0.5000 
     73 O          -3.2935  -24.5717  -48.0588 O.2       12 UNK        -0.5000 
     74 N          -2.4580  -24.3247  -45.9667 N.am      13 UNK        -0.5000 
     75 CA         -2.8293  -25.6432  -45.4532 C.3       13 UNK         0.1400 
     76 CB         -2.5899  -25.6899  -43.9368 C.3       13 UNK        -0.1800 
     77 C          -2.0866  -26.7926  -46.1609 C.2       13 UNK         0.5000 
     78 O          -2.6924  -27.8332  -46.4182 O.2       13 UNK        -0.5000 
     79 N          -0.8039  -26.5777  -46.4856 N.am      14 UNK        -0.5000 
     80 CA          0.0204  -27.5156  -47.2484 C.3       14 UNK         0.1400 
     81 CB          1.5039  -27.1546  -47.0736 C.3       14 UNK        -0.1800 
     82 C          -0.3675  -27.5581  -48.7392 C.2       14 UNK         0.5000 
     83 O          -0.4255  -28.6419  -49.3213 O.2       14 UNK        -0.5000 
     84 N          -0.6340  -26.3828  -49.3254 N.am      15 UNK        -0.5000 
     85 CA         -1.0406  -26.2091  -50.7219 C.3       15 UNK         0.1400 
     86 CB         -0.8980  -24.7262  -51.0993 C.3       15 UNK        -0.1800 
     87 C          -2.4735  -26.6933  -51.0149 C.2       15 UNK         0.5000 
     88 O          -2.7652  -27.0466  -52.1580 O.2       15 UNK        -0.5000 
     89 N          -3.3330  -26.6824  -49.9859 N.am      16 UNK        -0.5000 
     90 CA         -4.7703  -26.9698  -50.0121 C.3       16 UNK         0.1400 
     91 CB         -5.0467  -28.4280  -50.4347 C.3       16 UNK        -0.1800 
     92 C          -5.5642  -25.9284  -50.8308 C.2       16 UNK         0.5000 
     93 O          -6.5448  -26.2720  -51.4939 O.2       16 UNK        -0.5000 
     94 N          -5.1278  -24.6668  -50.7572 N.am      17 UNK        -0.5000 
     95 CA         -5.7242  -23.5031  -51.4034 C.3       17 UNK         0.1400 
     96 CB         -5.2917  -23.4337  -52.8789 C.3       17 UNK        -0.1800 
     97 C          -5.2563  -22.2591  -50.6409 C.2       17 UNK         0.5000 
     98 O          -4.1392  -22.2619  -50.1234 O.2       17 UNK        -0.5000 
     99 N          -6.1028  -21.2233  -50.5794 N.am      18 UNK        -0.5000 
    100 CA        -5.7993  -19.9520  -49.9182 C.3       18 UNK         0.1400 
    101 CB        -7.0591  -19.0727  -49.9031 C.3       18 UNK        -0.1800 
    102 C         -4.6376  -19.2192  -50.6111 C.2       18 UNK         0.5000 
    103 O         -4.6732  -19.0668  -51.8331 O.2       18 UNK        -0.5000 
    104 N         -3.6546  -18.7636  -49.8222 N.am      19 UNK        -0.5000 
    105 CA        -2.3998  -18.1589  -50.2852 C.3       19 UNK         0.1400 
    106 CB        -1.5526  -17.7676  -49.0659 C.3       19 UNK        -0.1800 
    107 C         -2.5920  -16.9581  -51.2317 C.2       19 UNK         0.5000 
    108 O         -1.9253  -16.8720  -52.2640 O.2       19 UNK        -0.5000 
    109 N         -3.5543  -16.0909  -50.8909 N.am      20 UNK        -0.5000 
    110 CA        -3.9395  -14.9245  -51.6840 C.3       20 UNK         0.1400 
    111 CB        -4.8352  -14.0184  -50.8265 C.3       20 UNK        -0.1800 
    112 C         -4.6522  -15.2793  -53.0049 C.2       20 UNK         0.5000 
    113 O         -4.6463  -14.4595  -53.9241 O.2       20 UNK        -0.5000 
    114 N         -5.2631  -16.4704  -53.0781 N.am      21 UNK        -0.5000 
    115 CA        -5.9602  -16.9650  -54.2623 C.3       21 UNK         0.1400 
    116 CB        -7.1282  -17.8731  -53.8432 C.3       21 UNK        -0.1800 
    117 C         -4.9974  -17.7020  -55.2052 C.2       21 UNK         0.5000 
    118 O         -5.0225  -17.4394  -56.4088 O.2       21 UNK        -0.5000 
    119 N         -4.1713  -18.6047  -54.6561 N.am      22 UNK        -0.5000 
    120 CA        -3.1730  -19.3619  -55.4283 C.3       22 UNK         0.1400 
    121 C         -1.9156  -18.5410  -55.8361 C.2       22 UNK         0.5000 
    122 N         -1.5275  -17.5050  -55.1018 N.am      22 UNK        -0.7600 
    123 O         -1.2875  -18.8444  -56.8467 O.2       22 UNK        -0.5000 
    124 C124       -2.8115  -20.7243  -54.7786 C.3       23 UNK        -0.0398 
    125 S125       -2.0240  -20.6137  -53.1357 S.3       23 UNK        -0.2404 
    126 C126       -0.2726  -20.7885  -53.5860 C.3       23 UNK        -0.0205 
    127 H127        3.0845  -11.4803  -46.0779 H         1 UNK         0.0600 
    128 H128        1.8817  -11.6943  -44.8024 H         1 UNK         0.0600 
    129 H129        1.6159  -10.4976  -46.0737 H         1 UNK         0.0600 
    130 H130        2.9967  -13.0847  -47.6326 H         1 UNK         0.3000 
    131 H131        0.8888  -14.9706  -47.7290 H         1 UNK         0.0600 
    132 H132        2.8972  -14.8758  -49.9970 H         1 UNK         0.0800 
    133 H133        3.5232  -15.1027  -48.3958 H         1 UNK         0.0800 
    134 H134        3.0638  -17.0699  -51.2456 H         1 UNK         0.0800 
    135 H135        1.3526  -16.6913  -51.2025 H         1 UNK         0.0800 
    136 H136        0.4153  -18.3305  -52.6493 H         1 UNK         0.1150 
    137 H137        1.0798  -22.5016  -51.9667 H         1 UNK         0.1150 
    138 H138        3.1934  -19.5820  -49.6428 H         1 UNK         0.1150 
    139 H139        2.1479  -23.1378  -49.7998 H         1 UNK         0.0800 
    140 H140        3.6214  -22.7598  -50.6492 H         1 UNK         0.0800 
    141 H141        1.6038  -20.8215  -47.8961 H         1 UNK         0.0800 
    142 H142        2.7369  -20.7625  -46.5961 H         1 UNK         0.0800 
    143 H143        2.2795  -23.5053  -46.6843 H         1 UNK         0.0600 
    144 H144        1.5508  -21.4577  -44.8629 H         1 UNK         0.3000 
    145 H145        0.0487  -23.6211  -42.4282 H         1 UNK         0.0600 
    146 H146        1.7322  -22.4507  -41.0315 H         1 UNK         0.0600 
    147 H147        2.5062  -23.6733  -42.0291 H         1 UNK         0.0600 
    148 H148        2.6345  -21.9751  -42.4675 H         1 UNK         0.0600 
    149 H149        0.4144  -20.7962  -42.4749 H         1 UNK         0.3000 
    150 H150       -2.6559  -19.9843  -44.1567 H         1 UNK         0.0600 
    151 H151       -3.2049  -20.3281  -41.7421 H         1 UNK         0.0600 
    152 H152       -2.9137  -18.6330  -42.1030 H         1 UNK         0.0600 
    153 H153       -1.6786  -19.5829  -41.2809 H         1 UNK         0.0600 
    154 H154       -0.6266  -18.3037  -43.1385 H         1 UNK         0.3000 
    155 H155        1.4853  -18.2358  -46.0432 H         1 UNK         0.0600 
    156 H156        1.0420  -15.7990  -45.5905 H         1 UNK         0.0600 
    157 H157       -0.2849  -16.5817  -46.4455 H         1 UNK         0.0600 
    158 H158       -0.4309  -16.2364  -44.7326 H         1 UNK         0.0600 
    159 H159        1.6533  -17.0102  -43.4573 H         1 UNK         0.3000 
    160 H160        3.6100  -19.5331  -41.8812 H         1 UNK         0.0600 
    161 H161        4.3675  -16.7631  -42.9615 H         1 UNK         0.0600 
    162 H162        5.2267  -18.2612  -43.2987 H         1 UNK         0.0600 
    163 H163        5.1844  -17.6297  -41.6604 H         1 UNK         0.0600 
    164 H164        2.7494  -16.9102  -41.0909 H         1 UNK         0.3000 
    165 H165       -0.3320  -17.9177  -39.5928 H         1 UNK         0.0600 
    166 H166        0.7341  -16.7825  -37.6723 H         1 UNK         0.0600 
    167 H167        1.4814  -18.3512  -37.9259 H         1 UNK         0.0600 
    168 H168        2.3177  -16.8913  -38.4410 H         1 UNK         0.0600 
    169 H169        0.8555  -15.3577  -39.7807 H         1 UNK         0.3000 
    170 H170       -0.6089  -13.7964  -41.0544 H         1 UNK         0.0600 
    171 H171        1.8327  -14.0317  -41.7479 H         1 UNK         0.0600 
    172 H172        1.3197  -14.5286  -43.3567 H         1 UNK         0.0600 
    173 H173        0.9848  -12.8995  -42.7803 H         1 UNK         0.0600 
    174 H174       -1.6978  -15.3133  -43.1424 H         1 UNK         0.3000 
    175 H175       -2.7108  -14.5897  -45.0380 H         1 UNK         0.0600 
    176 H176       -4.3753  -14.5232  -43.1600 H         1 UNK         0.0600 
    177 H177       -4.6516  -12.8085  -43.4473 H         1 UNK         0.0600 
    178 H178       -5.1163  -13.9976  -44.6635 H         1 UNK         0.0600 
    179 H179       -2.6150  -11.6946  -45.2581 H         1 UNK         0.3000 
    180 H180       -3.9681  -11.5217  -48.4260 H         1 UNK         0.0600 
    181 H181       -2.0058  -10.1566  -46.4920 H         1 UNK         0.0600 
    182 H182       -3.7653  -10.0207  -46.4201 H         1 UNK         0.0600 
    183 H183       -2.8906   -9.3838  -47.8005 H         1 UNK         0.0600 
    184 H184       -1.0799  -12.1405  -48.1466 H         1 UNK         0.3000 
    185 H185       -0.6785  -12.5446  -51.5250 H         1 UNK         0.0600 
    186 H186        1.0702  -10.7816  -51.7252 H         1 UNK         0.0600 
    187 H187       -0.5332  -10.0812  -51.8675 H         1 UNK         0.0600 
    188 H188        0.3665   -9.9037  -50.3661 H         1 UNK         0.0600 
    189 H189        1.1818  -11.9744  -49.3492 H         1 UNK         0.3000 
    190 H190       -0.6673  -21.4695  -46.4855 H         1 UNK         0.3000 
    191 H191       -2.0317  -22.4991  -48.6933 H         1 UNK         0.0600 
    192 H192       -3.1240  -21.3549  -46.0658 H         1 UNK         0.0600 
    193 H193       -4.0641  -21.5636  -47.5316 H         1 UNK         0.0600 
    194 H194       -2.7125  -20.4388  -47.5134 H         1 UNK         0.0600 
    195 H195       -2.0116  -23.6880  -45.3132 H         1 UNK         0.3000 
    196 H196       -3.8977  -25.7803  -45.6323 H         1 UNK         0.0600 
    197 H197       -2.8780  -26.6578  -43.5249 H         1 UNK         0.0600 
    198 H198       -3.1772  -24.9293  -43.4220 H         1 UNK         0.0600 
    199 H199       -1.5409  -25.5257  -43.6889 H         1 UNK         0.0600 
    200 H200       -0.3746  -25.6988  -46.2237 H         1 UNK         0.3000 
    201 H201       -0.1303  -28.5159  -46.8368 H         1 UNK         0.0600 
    202 H202        1.7918  -27.1725  -46.0222 H         1 UNK         0.0600 
    203 H203        1.7305  -26.1621  -47.4632 H         1 UNK         0.0600 
    204 H204        2.1422  -27.8661  -47.5988 H         1 UNK         0.0600 
    205 H205       -0.4871  -25.5305  -48.7885 H         1 UNK         0.3000 
    206 H206       -0.3596  -26.7887  -51.3484 H         1 UNK         0.0600 
    207 H207        0.1220  -24.3795  -50.9380 H         1 UNK         0.0600 
    208 H208       -1.1383  -24.5612  -52.1504 H         1 UNK         0.0600 
    209 H209       -1.5630  -24.0949  -50.5086 H         1 UNK         0.0600 
    210 H210       -3.0002  -26.2802  -49.1160 H         1 UNK         0.3000 
    211 H211       -5.1109  -26.8610  -48.9815 H         1 UNK         0.0600 
    212 H212       -4.8088  -28.6010  -51.4844 H         1 UNK         0.0600 
    213 H213       -6.0982  -28.6809  -50.2942 H         1 UNK         0.0600 
    214 H214       -4.4625  -29.1281  -49.8374 H         1 UNK         0.0600 
    215 H215       -4.3460  -24.4465  -50.1474 H         1 UNK         0.3000 
    216 H216       -6.8120  -23.5714  -51.3382 H         1 UNK         0.0600 
    217 H217       -4.2061  -23.3794  -52.9736 H         1 UNK         0.0600 
    218 H218       -5.7086  -22.5519  -53.3670 H         1 UNK         0.0600 
    219 H219       -5.6332  -24.3065  -53.4354 H         1 UNK         0.0600 
    220 H220       -6.9886  -21.2801  -51.0595 H         1 UNK         0.3000 
    221 H221       -5.5200  -20.1668  -48.8852 H         1 UNK         0.0600 
    222 H222       -7.8723  -19.5579  -49.3630 H         1 UNK         0.0600 
    223 H223       -7.4110  -18.8530  -50.9115 H         1 UNK         0.0600 
    224 H224       -6.8650  -18.1198  -49.4091 H         1 UNK         0.0600 
    225 H225       -3.7243  -18.9199  -48.8283 H         1 UNK         0.3000 
    226 H226       -1.8510  -18.9240  -50.8343 H         1 UNK         0.0600 
    227 H227       -1.2859  -18.6392  -48.4680 H         1 UNK         0.0600 
    228 H228       -0.6215  -17.3011  -49.3834 H         1 UNK         0.0600 
    229 H229       -2.0700  -17.0559  -48.4216 H         1 UNK         0.0600 
    230 H230       -4.0558  -16.2413  -50.0283 H         1 UNK         0.3000 
    231 H231       -3.0320  -14.3706  -51.9346 H         1 UNK         0.0600 
    232 H232       -5.7525  -14.5251  -50.5244 H         1 UNK         0.0600 
    233 H233       -5.1191  -13.1182  -51.3733 H         1 UNK         0.0600 
    234 H234       -4.3160  -13.6946  -49.9255 H         1 UNK         0.0600 
    235 H235       -5.1461  -17.1316  -52.3198 H         1 UNK         0.3000 
    236 H236       -6.3858  -16.1204  -54.8086 H         1 UNK         0.0600 
    237 H237       -7.8090  -17.3540  -53.1685 H         1 UNK         0.0600 
    238 H238       -7.7070  -18.1832  -54.7139 H         1 UNK         0.0600 
    239 H239       -6.7862  -18.7792  -53.3437 H         1 UNK         0.0600 
    240 H240       -4.2090  -18.7812  -53.6549 H         1 UNK         0.3000 
    241 H241       -3.6524  -19.6218  -56.3745 H         1 UNK         0.0600 
    242 H242       -0.7195  -16.9772  -55.3879 H         1 UNK         0.3800 
    243 H243       -1.9613  -17.3006  -54.2071 H         1 UNK         0.3800 
    244 H244       -2.1756  -21.3067  -55.4475 H         1 UNK         0.0800 
    245 H245       -3.7213  -21.3139  -54.6620 H         1 UNK         0.0800 
    246 H246       -0.0949  -21.8068  -53.9352 H         1 UNK         0.0800 
    247 H247       -0.0332  -20.1330  -54.4231 H         1 UNK         0.0800 
@<TRIPOS>BOND
     1    1    2 1    
     2    1  127 1    
     3    1  128 1    
     4    1  129 1    
     5    2    3 2    
     6    2    4 am   BACKBONE|DICT|INTERRES
     7    4    5 1    
     8    4  130 1    
     9    5    6 1    
    10    5   65 1    
    11    5  131 1    
    12    6    7 1    
    13    6  132 1    
    14    6  133 1    
    15    7    8 1    
    16    8    9 1    
    17    8  134 1    
    18    8  135 1    
    19    9   10 ar   
    20    9   14 ar   
    21   10   11 ar   
    22   10  136 1    
    23   11   12 ar   
    24   11  126 1    
    25   12   13 ar   
    26   12  137 1    
    27   13   14 ar   
    28   13   15 1    
    29   14  138 1    
    30   15   16 1    
    31   15  139 1    
    32   15  140 1    
    33   16   17 1    
    34   17   18 1    
    35   17  141 1    
    36   17  142 1    
    37   18   19 1    
    38   18   67 1    
    39   18  143 1    
    40   19   20 am   BACKBONE|DICT|INTERRES
    41   19  144 1    
    42   20   21 2    
    43   20   22 1    
    44   22   23 1    
    45   22   24 1    
    46   22  145 1    
    47   23  146 1    
    48   23  147 1    
    49   23  148 1    
    50   24   25 am   BACKBONE|DICT|INTERRES
    51   24  149 1    
    52   25   26 2    
    53   25   27 1    
    54   27   28 1    
    55   27   29 1    
    56   27  150 1    
    57   28  151 1    
    58   28  152 1    
    59   28  153 1    
    60   29   30 am   BACKBONE|DICT|INTERRES
    61   29  154 1    
    62   30   31 2    
    63   30   32 1    
    64   32   33 1    
    65   32   34 1    
    66   32  155 1    
    67   33  156 1    
    68   33  157 1    
    69   33  158 1    
    70   34   35 am   BACKBONE|DICT|INTERRES
    71   34  159 1    
    72   35   36 2    
    73   35   37 1    
    74   37   38 1    
    75   37   39 1    
    76   37  160 1    
    77   38  161 1    
    78   38  162 1    
    79   38  163 1    
    80   39   40 am   BACKBONE|DICT|INTERRES
    81   39  164 1    
    82   40   41 2    
    83   40   42 1    
    84   42   43 1    
    85   42   44 1    
    86   42  165 1    
    87   43  166 1    
    88   43  167 1    
    89   43  168 1    
    90   44   45 am   BACKBONE|DICT|INTERRES
    91   44  169 1    
    92   45   46 2    
    93   45   47 1    
    94   47   48 1    
    95   47   49 1    
    96   47  170 1    
    97   48  171 1    
    98   48  172 1    
    99   48  173 1    
   100   49   50 am   BACKBONE|DICT|INTERRES
   101   49  174 1    
   102   50   51 2    
   103   50   52 1    
   104   52   53 1    
   105   52   54 1    
   106   52  175 1    
   107   53  176 1    
   108   53  177 1    
   109   53  178 1    
   110   54   55 am   BACKBONE|DICT|INTERRES
   111   54  179 1    
   112   55   56 2    
   113   55   57 1    
   114   57   58 1    
   115   57   59 1    
   116   57  180 1    
   117   58  181 1    
   118   58  182 1    
   119   58  183 1    
   120   59   60 am   BACKBONE|DICT|INTERRES
   121   59  184 1    
   122   60   61 2    
   123   60   62 1    
   124   62   63 1    
   125   62   64 1    
   126   62  185 1    
   127   63  186 1    
   128   63  187 1    
   129   63  188 1    
   130   64   65 am   BACKBONE|DICT|INTERRES
   131   64  189 1    
   132   65   66 2    
   133   67   68 2    
   134   67   69 am   BACKBONE|DICT|INTERRES
   135   69   70 1    
   136   69  190 1    
   137   70   71 1    
   138   70   72 1    
   139   70  191 1    
   140   71  192 1    
   141   71  193 1    
   142   71  194 1    
   143   72   73 2    
   144   72   74 am   BACKBONE|DICT|INTERRES
   145   74   75 1    
   146   74  195 1    
   147   75   76 1    
   148   75   77 1    
   149   75  196 1    
   150   76  197 1    
   151   76  198 1    
   152   76  199 1    
   153   77   78 2    
   154   77   79 am   BACKBONE|DICT|INTERRES
   155   79   80 1    
   156   79  200 1    
   157   80   81 1    
   158   80   82 1    
   159   80  201 1    
   160   81  202 1    
   161   81  203 1    
   162   81  204 1    
   163   82   83 2    
   164   82   84 am   BACKBONE|DICT|INTERRES
   165   84   85 1    
   166   84  205 1    
   167   85   86 1    
   168   85   87 1    
   169   85  206 1    
   170   86  207 1    
   171   86  208 1    
   172   86  209 1    
   173   87   88 2    
   174   87   89 am   BACKBONE|DICT|INTERRES
   175   89   90 1    
   176   89  210 1    
   177   90   91 1    
   178   90   92 1    
   179   90  211 1    
   180   91  212 1    
   181   91  213 1    
   182   91  214 1    
   183   92   93 2    
   184   92   94 am   BACKBONE|DICT|INTERRES
   185   94   95 1    
   186   94  215 1    
   187   95   96 1    
   188   95   97 1    
   189   95  216 1    
   190   96  217 1    
   191   96  218 1    
   192   96  219 1    
   193   97   98 2    
   194   97   99 am   BACKBONE|DICT|INTERRES
   195   99  100 1    
   196   99  220 1    
   197  100  101 1    
   198  100  102 1    
   199  100  221 1    
   200  101  222 1    
   201  101  223 1    
   202  101  224 1    
   203  102  103 2    
   204  102  104 am   BACKBONE|DICT|INTERRES
   205  104  105 1    
   206  104  225 1    
   207  105  106 1    
   208  105  107 1    
   209  105  226 1    
   210  106  227 1    
   211  106  228 1    
   212  106  229 1    
   213  107  108 2    
   214  107  109 am   BACKBONE|DICT|INTERRES
   215  109  110 1    
   216  109  230 1    
   217  110  111 1    
   218  110  112 1    
   219  110  231 1    
   220  111  232 1    
   221  111  233 1    
   222  111  234 1    
   223  112  113 2    
   224  112  114 am   BACKBONE|DICT|INTERRES
   225  114  115 1    
   226  114  235 1    
   227  115  116 1    
   228  115  117 1    
   229  115  236 1    
   230  116  237 1    
   231  116  238 1    
   232  116  239 1    
   233  117  118 2    
   234  117  119 am   BACKBONE|DICT|INTERRES
   235  119  120 1    
   236  119  240 1    
   237  120  121 1    
   238  120  124 1    
   239  120  241 1    
   240  121  122 am   BACKBONE|DICT|INTERRES
   241  121  123 2    
   242  122  242 1    
   243  122  243 1    
   244  124  125 1    
   245  124  244 1    
   246  124  245 1    
   247  125  126 1    
   248  126  246 1    
   249  126  247 1    
@<TRIPOS>SUBSTRUCTURE
     1 UNK         1 GROUP             0       ****    0 ROOT    
