@<TRIPOS>MOLECULE
3R540
247   249    1
SMALL
USER_CHARGES


@<TRIPOS>ATOM
      1 CA          4.1074  -12.1680  -50.2014 C.3       0 UNK        -0.1800 
      2 C           4.7915  -12.4529  -48.8717 C.2       0 UNK         0.5000 
      3 O           5.8162  -11.8435  -48.5655 O.2       0 UNK        -0.5000 
      4 N           4.2245  -13.3727  -48.0827 N.am      1 UNK        -0.5000 
      5 CA          4.7055  -13.7626  -46.7490 C.3       1 UNK         0.1400 
      6 C6          4.0723  -15.0883  -46.2509 C.3       23 UNK        -0.0398 
      7 S7          4.1269  -16.4257  -47.4926 S.3       23 UNK        -0.2404 
      8 C8          2.3545  -16.5499  -47.9031 C.3       23 UNK        -0.0205 
      9 C9          2.0645  -17.4943  -49.0622 C.ar      23 UNK        -0.0193 
     10 C10         1.1915  -17.0956  -50.0779 C.ar      23 UNK        -0.1150 
     11 C11         0.8531  -17.9686  -51.1194 C.ar      23 UNK        -0.0193 
     12 C12         1.4421  -19.2356  -51.1614 C.ar      23 UNK        -0.1150 
     13 C13         2.3247  -19.6451  -50.1586 C.ar      23 UNK        -0.0193 
     14 C14         2.6195  -18.7767  -49.1041 C.ar      23 UNK        -0.1150 
     15 C15         2.9511  -21.0310  -50.2070 C.3       23 UNK        -0.0205 
     16 S16         1.7375  -22.3433  -49.8675 S.3       23 UNK        -0.2404 
     17 C17         1.0976  -21.8217  -48.2445 C.3       23 UNK        -0.0398 
     18 CA          0.4386  -22.9698  -47.4481 C.3       11 UNK         0.1400 
     19 N           0.4027  -22.6343  -46.0261 N.am      11 UNK        -0.5000 
     20 C           0.1757  -23.4813  -45.0173 C.2       10 UNK         0.5000 
     21 O          -0.0243  -24.6844  -45.1818 O.2       10 UNK        -0.5000 
     22 CA          0.0943  -22.8649  -43.6033 C.3       10 UNK         0.1400 
     23 CB          0.7262  -23.7696  -42.5266 C.3       10 UNK        -0.1800 
     24 N           0.6132  -21.4908  -43.5316 N.am      10 UNK        -0.5000 
     25 C           1.8807  -21.0743  -43.6857 C.2       9 UNK         0.5000 
     26 O           2.8370  -21.8316  -43.8504 O.2       9 UNK        -0.5000 
     27 CA          2.1231  -19.5501  -43.7060 C.3       9 UNK         0.1400 
     28 CB          2.4835  -19.0849  -45.1252 C.3       9 UNK        -0.1800 
     29 N           0.9795  -18.7643  -43.2385 N.am      9 UNK        -0.5000 
     30 C           0.5957  -18.6573  -41.9591 C.2       8 UNK         0.5000 
     31 O           1.1924  -19.1781  -41.0165 O.2       8 UNK        -0.5000 
     32 CA         -0.6941  -17.8608  -41.7000 C.3       8 UNK         0.1400 
     33 CB         -0.3901  -16.3583  -41.6037 C.3       8 UNK        -0.1800 
     34 N          -1.6985  -18.0952  -42.7408 N.am      8 UNK        -0.5000 
     35 C          -2.4162  -19.2222  -42.8559 C.2       7 UNK         0.5000 
     36 O          -2.3128  -20.1790  -42.0887 O.2       7 UNK        -0.5000 
     37 CA         -3.3896  -19.3120  -44.0455 C.3       7 UNK         0.1400 
     38 CB         -4.7326  -18.6538  -43.7025 C.3       7 UNK        -0.1800 
     39 N          -2.8508  -18.7093  -45.2643 N.am      7 UNK        -0.5000 
     40 C          -1.8234  -19.2109  -45.9612 C.2       6 UNK         0.5000 
     41 O          -1.2845  -20.2889  -45.7058 O.2       6 UNK        -0.5000 
     42 CA         -1.2943  -18.3683  -47.1330 C.3       6 UNK         0.1400 
     43 CB         -1.9534  -18.8136  -48.4389 C.3       6 UNK        -0.1800 
     44 N          -1.4656  -16.9248  -46.9575 N.am      6 UNK        -0.5000 
     45 C          -0.8883  -16.2019  -45.9902 C.2       5 UNK         0.5000 
     46 O          -0.1634  -16.6982  -45.1242 O.2       5 UNK        -0.5000 
     47 CA         -1.1672  -14.6854  -45.9982 C.3       5 UNK         0.1400 
     48 CB         -0.3829  -13.9346  -44.9082 C.3       5 UNK        -0.1800 
     49 N          -0.8577  -14.0700  -47.2877 N.am      5 UNK        -0.5000 
     50 C          -1.6405  -14.0510  -48.3712 C.2       4 UNK         0.5000 
     51 O          -2.7183  -14.6424  -48.4225 O.2       4 UNK        -0.5000 
     52 CA         -1.1392  -13.2271  -49.5829 C.3       4 UNK         0.1400 
     53 CB         -2.2312  -13.0271  -50.6488 C.3       4 UNK        -0.1800 
     54 N          -0.6120  -11.9050  -49.2220 N.am      4 UNK        -0.5000 
     55 C           0.5537  -11.6546  -48.6149 C.2       3 UNK         0.5000 
     56 O           1.3277  -12.5482  -48.2522 O.2       3 UNK        -0.5000 
     57 CA          0.9292  -10.1752  -48.3638 C.3       3 UNK         0.1400 
     58 CB         -0.2835   -9.2283  -48.2209 C.3       3 UNK        -0.1800 
     59 N           1.8491  -10.0788  -47.2252 N.am      3 UNK        -0.5000 
     60 C           1.5678  -10.3653  -45.9439 C.2       2 UNK         0.5000 
     61 O           0.4335  -10.3908  -45.4655 O.2       2 UNK        -0.5000 
     62 CA          2.7680  -10.8607  -45.1237 C.3       2 UNK         0.1400 
     63 CB          2.4063  -11.2495  -43.6755 C.3       2 UNK        -0.1800 
     64 N           3.2742  -12.0127  -45.8619 N.am      2 UNK        -0.5000 
     65 C           4.4458  -12.6393  -45.7234 C.2       1 UNK         0.5000 
     66 O           5.2908  -12.3602  -44.8723 O.2       1 UNK        -0.5000 
     67 C          -0.9727  -23.3102  -47.9746 C.2       11 UNK         0.5000 
     68 O          -1.1160  -24.1613  -48.8549 O.2       11 UNK        -0.5000 
     69 N          -1.9975  -22.6677  -47.3952 N.am      12 UNK        -0.5000 
     70 CA         -3.4059  -22.9715  -47.6425 C.3       12 UNK         0.1400 
     71 CB         -4.2694  -21.8110  -47.1410 C.3       12 UNK        -0.1800 
     72 C          -3.8395  -24.2884  -46.9777 C.2       12 UNK         0.5000 
     73 O          -4.6090  -25.0388  -47.5749 O.2       12 UNK        -0.5000 
     74 N          -3.3103  -24.5664  -45.7766 N.am      13 UNK        -0.5000 
     75 CA         -3.5478  -25.8062  -45.0297 C.3       13 UNK         0.1400 
     76 CB         -3.0487  -25.6439  -43.5858 C.3       13 UNK        -0.1800 
     77 C          -2.8980  -27.0272  -45.7075 C.2       13 UNK         0.5000 
     78 O          -3.4891  -28.1069  -45.7205 O.2       13 UNK        -0.5000 
     79 N          -1.7201  -26.8134  -46.3099 N.am      14 UNK        -0.5000 
     80 CA         -1.0241  -27.7682  -47.1750 C.3       14 UNK         0.1400 
     81 CB          0.4282  -27.2953  -47.3501 C.3       14 UNK        -0.1800 
     82 C          -1.6936  -27.9510  -48.5550 C.2       14 UNK         0.5000 
     83 O          -1.3214  -28.8719  -49.2825 O.2       14 UNK        -0.5000 
     84 N          -2.6405  -27.0625  -48.8978 N.am      15 UNK        -0.5000 
     85 CA         -3.3818  -26.9627  -50.1605 C.3       15 UNK         0.1400 
     86 CB         -4.2325  -28.2248  -50.4095 C.3       15 UNK        -0.1800 
     87 C          -2.5014  -26.5873  -51.3713 C.2       15 UNK         0.5000 
     88 O          -2.9239  -26.7692  -52.5136 O.2       15 UNK        -0.5000 
     89 N          -1.3094  -26.0382  -51.1078 N.am      16 UNK        -0.5000 
     90 CA         -0.3520  -25.5893  -52.1156 C.3       16 UNK         0.1400 
     91 CB          1.0592  -25.6183  -51.5117 C.3       16 UNK        -0.1800 
     92 C          -0.7081  -24.1944  -52.6581 C.2       16 UNK         0.5000 
     93 O          -0.5259  -23.9441  -53.8499 O.2       16 UNK        -0.5000 
     94 N          -1.2501  -23.3281  -51.7896 N.am      17 UNK        -0.5000 
     95 CA         -1.7696  -22.0082  -52.1622 C.3       17 UNK         0.1400 
     96 CB         -1.7757  -21.1023  -50.9278 C.3       17 UNK        -0.1800 
     97 C          -3.1896  -22.0683  -52.7539 C.2       17 UNK         0.5000 
     98 O          -3.6426  -21.0789  -53.3274 O.2       17 UNK        -0.5000 
     99 N          -3.8776  -23.2031  -52.5628 N.am      18 UNK        -0.5000 
    100 CA        -5.2388  -23.5463  -52.9975 C.3       18 UNK         0.1400 
    101 CB        -5.3789  -23.4336  -54.5285 C.3       18 UNK        -0.1800 
    102 C         -6.3801  -22.7971  -52.2746 C.2       18 UNK         0.5000 
    103 O         -7.5230  -23.2503  -52.3520 O.2       18 UNK        -0.5000 
    104 N         -6.0782  -21.7024  -51.5680 N.am      19 UNK        -0.5000 
    105 CA        -7.0204  -20.9046  -50.7910 C.3       19 UNK         0.1400 
    106 CB        -7.8206  -19.9732  -51.7201 C.3       19 UNK        -0.1800 
    107 C         -6.2494  -20.0908  -49.7450 C.2       19 UNK         0.5000 
    108 O         -5.0535  -19.8437  -49.9196 O.2       19 UNK        -0.5000 
    109 N         -6.9638  -19.6561  -48.6978 N.am      20 UNK        -0.5000 
    110 CA        -6.4596  -18.8600  -47.5710 C.3       20 UNK         0.1400 
    111 CB        -7.6047  -18.6509  -46.5678 C.3       20 UNK        -0.1800 
    112 C         -5.8473  -17.5032  -47.9657 C.2       20 UNK         0.5000 
    113 O         -4.9471  -17.0250  -47.2747 O.2       20 UNK        -0.5000 
    114 N         -6.3487  -16.9306  -49.0665 N.am      21 UNK        -0.5000 
    115 CA        -5.9052  -15.6676  -49.6549 C.3       21 UNK         0.1400 
    116 CB        -7.1290  -14.7445  -49.7989 C.3       21 UNK        -0.1800 
    117 C         -5.1898  -15.8825  -51.0061 C.2       21 UNK         0.5000 
    118 O         -5.0767  -14.9284  -51.7765 O.2       21 UNK        -0.5000 
    119 N         -4.7324  -17.1175  -51.2666 N.am      22 UNK        -0.5000 
    120 CA        -4.0602  -17.5971  -52.4880 C.3       22 UNK         0.1400 
    121 C         -5.0323  -17.7437  -53.6917 C.2       22 UNK         0.5000 
    122 N         -5.1032  -18.9206  -54.2964 N.am      22 UNK        -0.7600 
    123 O         -5.6956  -16.8003  -54.1136 O.2       22 UNK        -0.5000 
    124 C124       -2.7980  -16.7811  -52.8862 C.3       23 UNK        -0.0398 
    125 S125       -1.5865  -16.6716  -51.5275 S.3       23 UNK        -0.2404 
    126 C126       -0.1477  -17.5665  -52.1998 C.3       23 UNK        -0.0205 
    127 H127        3.2471  -12.8187  -50.3617 H         1 UNK         0.0600 
    128 H128        3.7625  -11.1347  -50.2320 H         1 UNK         0.0600 
    129 H129        4.8060  -12.3211  -51.0240 H         1 UNK         0.0600 
    130 H130        3.3678  -13.8126  -48.3880 H         1 UNK         0.3000 
    131 H131        5.7856  -13.9101  -46.8153 H         1 UNK         0.0600 
    132 H132        3.0365  -14.9355  -45.9406 H         1 UNK         0.0800 
    133 H133        4.5979  -15.4383  -45.3608 H         1 UNK         0.0800 
    134 H134        1.9722  -15.5524  -48.1253 H         1 UNK         0.0800 
    135 H135        1.8104  -16.9009  -47.0277 H         1 UNK         0.0800 
    136 H136        0.7497  -16.1105  -50.0422 H         1 UNK         0.1150 
    137 H137        1.2007  -19.9174  -51.9649 H         1 UNK         0.1150 
    138 H138        3.2857  -19.0968  -48.3154 H         1 UNK         0.1150 
    139 H139        3.3844  -21.1964  -51.1943 H         1 UNK         0.0800 
    140 H140        3.7737  -21.1105  -49.4947 H         1 UNK         0.0800 
    141 H141        1.9466  -21.4324  -47.6800 H         1 UNK         0.0800 
    142 H142        0.4147  -20.9801  -48.3726 H         1 UNK         0.0800 
    143 H143        1.0547  -23.8653  -47.5541 H         1 UNK         0.0600 
    144 H144        0.4436  -21.6508  -45.7950 H         1 UNK         0.3000 
    145 H145       -0.9699  -22.7865  -43.3768 H         1 UNK         0.0600 
    146 H146        0.6570  -23.3139  -41.5390 H         1 UNK         0.0600 
    147 H147        0.2152  -24.7316  -42.4754 H         1 UNK         0.0600 
    148 H148        1.7773  -23.9739  -42.7308 H         1 UNK         0.0600 
    149 H149       -0.0920  -20.7742  -43.4262 H         1 UNK         0.3000 
    150 H150        2.9742  -19.3464  -43.0530 H         1 UNK         0.0600 
    151 H151        3.3479  -19.6255  -45.5128 H         1 UNK         0.0600 
    152 H152        2.7375  -18.0252  -45.1316 H         1 UNK         0.0600 
    153 H153        1.6594  -19.2390  -45.8220 H         1 UNK         0.0600 
    154 H154        0.4665  -18.2404  -43.9405 H         1 UNK         0.3000 
    155 H155       -1.1070  -18.1855  -40.7424 H         1 UNK         0.0600 
    156 H156       -1.2994  -15.7764  -41.4528 H         1 UNK         0.0600 
    157 H157        0.1037  -15.9897  -42.5025 H         1 UNK         0.0600 
    158 H158        0.2725  -16.1513  -40.7626 H         1 UNK         0.0600 
    159 H159       -1.7956  -17.3796  -43.4461 H         1 UNK         0.3000 
    160 H160       -3.5713  -20.3710  -44.2358 H         1 UNK         0.0600 
    161 H161       -4.6317  -17.5773  -43.5594 H         1 UNK         0.0600 
    162 H162       -5.1517  -19.0713  -42.7860 H         1 UNK         0.0600 
    163 H163       -5.4595  -18.8216  -44.4952 H         1 UNK         0.0600 
    164 H164       -3.2693  -17.8445  -45.5805 H         1 UNK         0.3000 
    165 H165       -0.2249  -18.5702  -47.2130 H         1 UNK         0.0600 
    166 H166       -2.9857  -18.4743  -48.5181 H         1 UNK         0.0600 
    167 H167       -1.4050  -18.4352  -49.2980 H         1 UNK         0.0600 
    168 H168       -1.9582  -19.8991  -48.5139 H         1 UNK         0.0600 
    169 H169       -2.0672  -16.4432  -47.6185 H         1 UNK         0.3000 
    170 H170       -2.2315  -14.5537  -45.7929 H         1 UNK         0.0600 
    171 H171       -0.6511  -14.2931  -43.9149 H         1 UNK         0.0600 
    172 H172        0.6945  -14.0562  -45.0279 H         1 UNK         0.0600 
    173 H173       -0.6037  -12.8676  -44.9303 H         1 UNK         0.0600 
    174 H174        0.0290  -13.5809  -47.3586 H         1 UNK         0.3000 
    175 H175       -0.3322  -13.8034  -50.0398 H         1 UNK         0.0600 
    176 H176       -1.8427  -12.4997  -51.5201 H         1 UNK         0.0600 
    177 H177       -2.6187  -13.9820  -51.0017 H         1 UNK         0.0600 
    178 H178       -3.0757  -12.4583  -50.2581 H         1 UNK         0.0600 
    179 H179       -1.2046  -11.1208  -49.4518 H         1 UNK         0.3000 
    180 H180        1.4978   -9.8537  -49.2373 H         1 UNK         0.0600 
    181 H181        0.0330   -8.2301  -47.9185 H         1 UNK         0.0600 
    182 H182       -0.8119   -9.1204  -49.1686 H         1 UNK         0.0600 
    183 H183       -1.0027   -9.5868  -47.4838 H         1 UNK         0.0600 
    184 H184        2.8258  -10.0880  -47.4834 H         1 UNK         0.3000 
    185 H185        3.5247  -10.0740  -45.1102 H         1 UNK         0.0600 
    186 H186        1.9775  -10.4013  -43.1409 H         1 UNK         0.0600 
    187 H187        1.6781  -12.0606  -43.6460 H         1 UNK         0.0600 
    188 H188        3.2856  -11.5708  -43.1176 H         1 UNK         0.0600 
    189 H189        2.6746  -12.3074  -46.6265 H         1 UNK         0.3000 
    190 H190       -1.7921  -21.9597  -46.6979 H         1 UNK         0.3000 
    191 H191       -3.5602  -23.0714  -48.7190 H         1 UNK         0.0600 
    192 H192       -5.3224  -21.9823  -47.3675 H         1 UNK         0.0600 
    193 H193       -3.9776  -20.8789  -47.6217 H         1 UNK         0.0600 
    194 H194       -4.1824  -21.6769  -46.0635 H         1 UNK         0.0600 
    195 H195       -2.6683  -23.9064  -45.3671 H         1 UNK         0.3000 
    196 H196       -4.6257  -25.9792  -44.9972 H         1 UNK         0.0600 
    197 H197       -3.2743  -26.5332  -42.9961 H         1 UNK         0.0600 
    198 H198       -3.5291  -24.7981  -43.0935 H         1 UNK         0.0600 
    199 H199       -1.9708  -25.4908  -43.5423 H         1 UNK         0.0600 
    200 H200       -1.2567  -25.9231  -46.1596 H         1 UNK         0.3000 
    201 H201       -1.0145  -28.7415  -46.6802 H         1 UNK         0.0600 
    202 H202        0.9307  -27.1979  -46.3875 H         1 UNK         0.0600 
    203 H203        0.4777  -26.3287  -47.8524 H         1 UNK         0.0600 
    204 H204        1.0036  -28.0046  -47.9464 H         1 UNK         0.0600 
    205 H205       -2.8747  -26.3535  -48.2161 H         1 UNK         0.3000 
    206 H206       -4.0724  -26.1284  -50.0328 H         1 UNK         0.0600 
    207 H207       -4.8460  -28.4633  -49.5406 H         1 UNK         0.0600 
    208 H208       -4.9093  -28.0807  -51.2524 H         1 UNK         0.0600 
    209 H209       -3.6146  -29.0943  -50.6343 H         1 UNK         0.0600 
    210 H210       -1.0785  -25.8360  -50.1422 H         1 UNK         0.3000 
    211 H211       -0.3693  -26.2840  -52.9582 H         1 UNK         0.0600 
    212 H212        1.1068  -25.0629  -50.5758 H         1 UNK         0.0600 
    213 H213        1.7920  -25.1859  -52.1941 H         1 UNK         0.0600 
    214 H214        1.3717  -26.6414  -51.3021 H         1 UNK         0.0600 
    215 H215       -1.3168  -23.5981  -50.8140 H         1 UNK         0.3000 
    216 H216       -1.1131  -21.5601  -52.9110 H         1 UNK         0.0600 
    217 H217       -2.1089  -20.0953  -51.1812 H         1 UNK         0.0600 
    218 H218       -0.7810  -21.0087  -50.4987 H         1 UNK         0.0600 
    219 H219       -2.4457  -21.4830  -50.1576 H         1 UNK         0.0600 
    220 H220       -3.3923  -23.9385  -52.0716 H         1 UNK         0.3000 
    221 H221       -5.3641  -24.5991  -52.7393 H         1 UNK         0.0600 
    222 H222       -5.3266  -22.3992  -54.8687 H         1 UNK         0.0600 
    223 H223       -4.5972  -23.9964  -55.0387 H         1 UNK         0.0600 
    224 H224       -6.3369  -23.8344  -54.8617 H         1 UNK         0.0600 
    225 H225       -5.1213  -21.3734  -51.5379 H         1 UNK         0.3000 
    226 H226       -7.7042  -21.5746  -50.2656 H         1 UNK         0.0600 
    227 H227       -8.5402  -19.3772  -51.1579 H         1 UNK         0.0600 
    228 H228       -7.1676  -19.2824  -52.2530 H         1 UNK         0.0600 
    229 H229       -8.3834  -20.5385  -52.4628 H         1 UNK         0.0600 
    230 H230       -7.9422  -19.9026  -48.6516 H         1 UNK         0.3000 
    231 H231       -5.6754  -19.4284  -47.0724 H         1 UNK         0.0600 
    232 H232       -7.2935  -18.0189  -45.7353 H         1 UNK         0.0600 
    233 H233       -7.9384  -19.5998  -46.1474 H         1 UNK         0.0600 
    234 H234       -8.4642  -18.1684  -47.0347 H         1 UNK         0.0600 
    235 H235       -7.0822  -17.4167  -49.5612 H         1 UNK         0.3000 
    236 H236       -5.1920  -15.1742  -48.9938 H         1 UNK         0.0600 
    237 H237       -7.8590  -15.1518  -50.4993 H         1 UNK         0.0600 
    238 H238       -7.6274  -14.5997  -48.8402 H         1 UNK         0.0600 
    239 H239       -6.8381  -13.7579  -50.1615 H         1 UNK         0.0600 
    240 H240       -4.8700  -17.8323  -50.5624 H         1 UNK         0.3000 
    241 H241       -3.7170  -18.5987  -52.2279 H         1 UNK         0.0600 
    242 H242       -5.7135  -19.0298  -55.0898 H         1 UNK         0.3800 
    243 H243       -4.5550  -19.7184  -53.9721 H         1 UNK         0.3800 
    244 H244       -3.0660  -15.7679  -53.1876 H         1 UNK         0.0800 
    245 H245       -2.3197  -17.2317  -53.7572 H         1 UNK         0.0800 
    246 H246        0.3535  -16.9416  -52.9397 H         1 UNK         0.0800 
    247 H247       -0.5042  -18.4554  -52.7228 H         1 UNK         0.0800 
@<TRIPOS>BOND
     1    1    2 1    
     2    1  127 1    
     3    1  128 1    
     4    1  129 1    
     5    2    3 2    
     6    2    4 am   BACKBONE|DICT|INTERRES
     7    4    5 1    
     8    4  130 1    
     9    5    6 1    
    10    5   65 1    
    11    5  131 1    
    12    6    7 1    
    13    6  132 1    
    14    6  133 1    
    15    7    8 1    
    16    8    9 1    
    17    8  134 1    
    18    8  135 1    
    19    9   10 ar   
    20    9   14 ar   
    21   10   11 ar   
    22   10  136 1    
    23   11   12 ar   
    24   11  126 1    
    25   12   13 ar   
    26   12  137 1    
    27   13   14 ar   
    28   13   15 1    
    29   14  138 1    
    30   15   16 1    
    31   15  139 1    
    32   15  140 1    
    33   16   17 1    
    34   17   18 1    
    35   17  141 1    
    36   17  142 1    
    37   18   19 1    
    38   18   67 1    
    39   18  143 1    
    40   19   20 am   BACKBONE|DICT|INTERRES
    41   19  144 1    
    42   20   21 2    
    43   20   22 1    
    44   22   23 1    
    45   22   24 1    
    46   22  145 1    
    47   23  146 1    
    48   23  147 1    
    49   23  148 1    
    50   24   25 am   BACKBONE|DICT|INTERRES
    51   24  149 1    
    52   25   26 2    
    53   25   27 1    
    54   27   28 1    
    55   27   29 1    
    56   27  150 1    
    57   28  151 1    
    58   28  152 1    
    59   28  153 1    
    60   29   30 am   BACKBONE|DICT|INTERRES
    61   29  154 1    
    62   30   31 2    
    63   30   32 1    
    64   32   33 1    
    65   32   34 1    
    66   32  155 1    
    67   33  156 1    
    68   33  157 1    
    69   33  158 1    
    70   34   35 am   BACKBONE|DICT|INTERRES
    71   34  159 1    
    72   35   36 2    
    73   35   37 1    
    74   37   38 1    
    75   37   39 1    
    76   37  160 1    
    77   38  161 1    
    78   38  162 1    
    79   38  163 1    
    80   39   40 am   BACKBONE|DICT|INTERRES
    81   39  164 1    
    82   40   41 2    
    83   40   42 1    
    84   42   43 1    
    85   42   44 1    
    86   42  165 1    
    87   43  166 1    
    88   43  167 1    
    89   43  168 1    
    90   44   45 am   BACKBONE|DICT|INTERRES
    91   44  169 1    
    92   45   46 2    
    93   45   47 1    
    94   47   48 1    
    95   47   49 1    
    96   47  170 1    
    97   48  171 1    
    98   48  172 1    
    99   48  173 1    
   100   49   50 am   BACKBONE|DICT|INTERRES
   101   49  174 1    
   102   50   51 2    
   103   50   52 1    
   104   52   53 1    
   105   52   54 1    
   106   52  175 1    
   107   53  176 1    
   108   53  177 1    
   109   53  178 1    
   110   54   55 am   BACKBONE|DICT|INTERRES
   111   54  179 1    
   112   55   56 2    
   113   55   57 1    
   114   57   58 1    
   115   57   59 1    
   116   57  180 1    
   117   58  181 1    
   118   58  182 1    
   119   58  183 1    
   120   59   60 am   BACKBONE|DICT|INTERRES
   121   59  184 1    
   122   60   61 2    
   123   60   62 1    
   124   62   63 1    
   125   62   64 1    
   126   62  185 1    
   127   63  186 1    
   128   63  187 1    
   129   63  188 1    
   130   64   65 am   BACKBONE|DICT|INTERRES
   131   64  189 1    
   132   65   66 2    
   133   67   68 2    
   134   67   69 am   BACKBONE|DICT|INTERRES
   135   69   70 1    
   136   69  190 1    
   137   70   71 1    
   138   70   72 1    
   139   70  191 1    
   140   71  192 1    
   141   71  193 1    
   142   71  194 1    
   143   72   73 2    
   144   72   74 am   BACKBONE|DICT|INTERRES
   145   74   75 1    
   146   74  195 1    
   147   75   76 1    
   148   75   77 1    
   149   75  196 1    
   150   76  197 1    
   151   76  198 1    
   152   76  199 1    
   153   77   78 2    
   154   77   79 am   BACKBONE|DICT|INTERRES
   155   79   80 1    
   156   79  200 1    
   157   80   81 1    
   158   80   82 1    
   159   80  201 1    
   160   81  202 1    
   161   81  203 1    
   162   81  204 1    
   163   82   83 2    
   164   82   84 am   BACKBONE|DICT|INTERRES
   165   84   85 1    
   166   84  205 1    
   167   85   86 1    
   168   85   87 1    
   169   85  206 1    
   170   86  207 1    
   171   86  208 1    
   172   86  209 1    
   173   87   88 2    
   174   87   89 am   BACKBONE|DICT|INTERRES
   175   89   90 1    
   176   89  210 1    
   177   90   91 1    
   178   90   92 1    
   179   90  211 1    
   180   91  212 1    
   181   91  213 1    
   182   91  214 1    
   183   92   93 2    
   184   92   94 am   BACKBONE|DICT|INTERRES
   185   94   95 1    
   186   94  215 1    
   187   95   96 1    
   188   95   97 1    
   189   95  216 1    
   190   96  217 1    
   191   96  218 1    
   192   96  219 1    
   193   97   98 2    
   194   97   99 am   BACKBONE|DICT|INTERRES
   195   99  100 1    
   196   99  220 1    
   197  100  101 1    
   198  100  102 1    
   199  100  221 1    
   200  101  222 1    
   201  101  223 1    
   202  101  224 1    
   203  102  103 2    
   204  102  104 am   BACKBONE|DICT|INTERRES
   205  104  105 1    
   206  104  225 1    
   207  105  106 1    
   208  105  107 1    
   209  105  226 1    
   210  106  227 1    
   211  106  228 1    
   212  106  229 1    
   213  107  108 2    
   214  107  109 am   BACKBONE|DICT|INTERRES
   215  109  110 1    
   216  109  230 1    
   217  110  111 1    
   218  110  112 1    
   219  110  231 1    
   220  111  232 1    
   221  111  233 1    
   222  111  234 1    
   223  112  113 2    
   224  112  114 am   BACKBONE|DICT|INTERRES
   225  114  115 1    
   226  114  235 1    
   227  115  116 1    
   228  115  117 1    
   229  115  236 1    
   230  116  237 1    
   231  116  238 1    
   232  116  239 1    
   233  117  118 2    
   234  117  119 am   BACKBONE|DICT|INTERRES
   235  119  120 1    
   236  119  240 1    
   237  120  121 1    
   238  120  124 1    
   239  120  241 1    
   240  121  122 am   BACKBONE|DICT|INTERRES
   241  121  123 2    
   242  122  242 1    
   243  122  243 1    
   244  124  125 1    
   245  124  244 1    
   246  124  245 1    
   247  125  126 1    
   248  126  246 1    
   249  126  247 1    
@<TRIPOS>SUBSTRUCTURE
     1 UNK         1 GROUP             0       ****    0 ROOT    
