@<TRIPOS>MOLECULE
3R540
247   249    1
SMALL
USER_CHARGES


@<TRIPOS>ATOM
      1 CA          4.9285  -15.6803  -44.5317 C.3       0 UNK        -0.1800 
      2 C           6.0803  -15.2211  -45.4223 C.2       0 UNK         0.5000 
      3 O           7.2293  -15.5394  -45.1252 O.2       0 UNK        -0.5000 
      4 N           5.8448  -14.4677  -46.5068 N.am      1 UNK        -0.5000 
      5 CA          4.5509  -13.9912  -47.0248 C.3       1 UNK         0.1400 
      6 C6          4.6607  -13.5232  -48.4987 C.3       23 UNK        -0.0398 
      7 S7          5.3385  -14.8079  -49.6029 S.3       23 UNK        -0.2404 
      8 C8          4.3817  -14.5453  -51.1317 C.3       23 UNK        -0.0205 
      9 C9          3.1316  -15.4125  -51.2056 C.ar      23 UNK        -0.0193 
     10 C10         1.8596  -14.8333  -51.2908 C.ar      23 UNK        -0.1150 
     11 C11         0.7223  -15.6357  -51.4449 C.ar      23 UNK        -0.0193 
     12 C12         0.8742  -17.0217  -51.5332 C.ar      23 UNK        -0.1150 
     13 C13         2.1301  -17.6175  -51.3954 C.ar      23 UNK        -0.0193 
     14 C14         3.2559  -16.8052  -51.2431 C.ar      23 UNK        -0.1150 
     15 C15         2.2709  -19.1339  -51.4133 C.3       23 UNK        -0.0205 
     16 S16         1.8878  -19.8698  -49.7880 S.3       23 UNK        -0.2404 
     17 C17         0.0795  -19.6484  -49.7274 C.3       23 UNK        -0.0398 
     18 CA         -0.6657  -20.7630  -48.9555 C.3       11 UNK         0.1400 
     19 N          -0.2581  -20.8132  -47.5436 N.am      11 UNK        -0.5000 
     20 C          -0.4046  -21.8397  -46.6924 C.2       10 UNK         0.5000 
     21 O          -1.0114  -22.8764  -46.9769 O.2       10 UNK        -0.5000 
     22 CA          0.1469  -21.6532  -45.2655 C.3       10 UNK         0.1400 
     23 CB          0.5894  -22.9739  -44.6097 C.3       10 UNK        -0.1800 
     24 N           1.1956  -20.6397  -45.1660 N.am      10 UNK        -0.5000 
     25 C           2.4308  -20.6439  -45.6897 C.2       9 UNK         0.5000 
     26 O           2.8968  -21.5703  -46.3527 O.2       9 UNK        -0.5000 
     27 CA          3.2920  -19.3932  -45.4097 C.3       9 UNK         0.1400 
     28 CB          3.6565  -18.6572  -46.7116 C.3       9 UNK        -0.1800 
     29 N           2.6015  -18.4685  -44.5014 N.am      9 UNK        -0.5000 
     30 C           2.8027  -18.4202  -43.1770 C.2       8 UNK         0.5000 
     31 O           3.6984  -19.0331  -42.5960 O.2       8 UNK        -0.5000 
     32 CA          1.8137  -17.5741  -42.3563 C.3       8 UNK         0.1400 
     33 CB          2.1957  -16.0874  -42.3935 C.3       8 UNK        -0.1800 
     34 N           0.4225  -17.7279  -42.7887 N.am      8 UNK        -0.5000 
     35 C          -0.3291  -18.8162  -42.5674 C.2       7 UNK         0.5000 
     36 O           0.1093  -19.8541  -42.0738 O.2       7 UNK        -0.5000 
     37 CA         -1.8125  -18.7479  -42.9669 C.3       7 UNK         0.1400 
     38 CB         -2.6243  -18.0178  -41.8860 C.3       7 UNK        -0.1800 
     39 N          -1.9964  -18.0612  -44.2432 N.am      7 UNK        -0.5000 
     40 C          -2.4795  -18.6249  -45.3588 C.2       6 UNK         0.5000 
     41 O          -2.8319  -19.8034  -45.4399 O.2       6 UNK        -0.5000 
     42 CA         -2.5615  -17.7255  -46.6109 C.3       6 UNK         0.1400 
     43 CB         -3.9166  -17.0028  -46.6646 C.3       6 UNK        -0.1800 
     44 N          -1.5102  -16.7129  -46.6977 N.am      6 UNK        -0.5000 
     45 C          -0.1899  -16.9195  -46.6199 C.2       5 UNK         0.5000 
     46 O           0.3285  -18.0314  -46.5234 O.2       5 UNK        -0.5000 
     47 CA          0.6962  -15.6594  -46.5612 C.3       5 UNK         0.1400 
     48 CB          1.1407  -15.2830  -47.9778 C.3       5 UNK        -0.1800 
     49 N           0.0627  -14.4911  -45.9305 N.am      5 UNK        -0.5000 
     50 C          -0.5141  -14.4670  -44.7206 C.2       4 UNK         0.5000 
     51 O          -0.5914  -15.4503  -43.9818 O.2       4 UNK        -0.5000 
     52 CA         -1.1044  -13.1328  -44.2565 C.3       4 UNK         0.1400 
     53 CB         -2.4131  -13.3450  -43.4658 C.3       4 UNK        -0.1800 
     54 N          -0.1025  -12.4626  -43.4382 N.am      4 UNK        -0.5000 
     55 C          -0.1467  -11.1918  -43.0282 C.2       3 UNK         0.5000 
     56 O          -1.0594  -10.4124  -43.3049 O.2       3 UNK        -0.5000 
     57 CA          1.0415  -10.6915  -42.1866 C.3       3 UNK         0.1400 
     58 CB          1.1759  -11.4568  -40.8537 C.3       3 UNK        -0.1800 
     59 N           2.3001  -10.6640  -42.9405 N.am      3 UNK        -0.5000 
     60 C           3.0186  -11.6957  -43.4031 C.2       2 UNK         0.5000 
     61 O           2.7514  -12.8808  -43.1879 O.2       2 UNK        -0.5000 
     62 CA          4.2622  -11.3163  -44.2325 C.3       2 UNK         0.1400 
     63 CB          5.4485  -11.0136  -43.3037 C.3       2 UNK        -0.1800 
     64 N           4.6719  -12.3505  -45.1833 N.am      2 UNK        -0.5000 
     65 C           3.9191  -12.8704  -46.1637 C.2       1 UNK         0.5000 
     66 O           2.7754  -12.4902  -46.4171 O.2       1 UNK        -0.5000 
     67 C          -2.1987  -20.6458  -49.1508 C.2       11 UNK         0.5000 
     68 O          -2.6563  -19.9414  -50.0481 O.2       11 UNK        -0.5000 
     69 N          -2.9591  -21.3402  -48.3066 N.am      12 UNK        -0.5000 
     70 CA         -4.4038  -21.5220  -48.3302 C.3       12 UNK         0.1400 
     71 CB         -5.1752  -20.2122  -48.0928 C.3       12 UNK        -0.1800 
     72 C          -4.7458  -22.5540  -47.2516 C.2       12 UNK         0.5000 
     73 O          -5.4797  -23.4971  -47.5364 O.2       12 UNK        -0.5000 
     74 N          -4.1676  -22.3801  -46.0520 N.am      13 UNK        -0.5000 
     75 CA         -4.3605  -23.2462  -44.8877 C.3       13 UNK         0.1400 
     76 CB         -3.6486  -22.6302  -43.6728 C.3       13 UNK        -0.1800 
     77 C          -3.9054  -24.7013  -45.1117 C.2       13 UNK         0.5000 
     78 O          -4.6750  -25.6224  -44.8362 O.2       13 UNK        -0.5000 
     79 N          -2.6804  -24.8845  -45.6245 N.am      14 UNK        -0.5000 
     80 CA         -2.1290  -26.1999  -45.9688 C.3       14 UNK         0.1400 
     81 CB         -0.6094  -26.1968  -45.7444 C.3       14 UNK        -0.1800 
     82 C          -2.4498  -26.5857  -47.4223 C.2       14 UNK         0.5000 
     83 O          -2.5394  -27.7727  -47.7354 O.2       14 UNK        -0.5000 
     84 N          -2.6263  -25.5726  -48.2798 N.am      15 UNK        -0.5000 
     85 CA         -2.9205  -25.7055  -49.7065 C.3       15 UNK         0.1400 
     86 CB         -2.5180  -24.3923  -50.3896 C.3       15 UNK        -0.1800 
     87 C          -4.3925  -26.0521  -50.0184 C.2       15 UNK         0.5000 
     88 O          -4.7336  -26.2182  -51.1925 O.2       15 UNK        -0.5000 
     89 N          -5.2436  -26.0993  -48.9809 N.am      16 UNK        -0.5000 
     90 CA         -6.6876  -26.3758  -48.9966 C.3       16 UNK         0.1400 
     91 CB         -6.9432  -27.8398  -49.4097 C.3       16 UNK        -0.1800 
     92 C          -7.5029  -25.3757  -49.8464 C.2       16 UNK         0.5000 
     93 O          -8.5816  -25.7180  -50.3330 O.2       16 UNK        -0.5000 
     94 N          -6.9413  -24.1727  -50.0429 N.am      17 UNK        -0.5000 
     95 CA         -7.3667  -23.1122  -50.9646 C.3       17 UNK         0.1400 
     96 CB         -8.6814  -22.4717  -50.4762 C.3       17 UNK        -0.1800 
     97 C          -7.4373  -23.5612  -52.4460 C.2       17 UNK         0.5000 
     98 O          -8.1265  -22.9196  -53.2412 O.2       17 UNK        -0.5000 
     99 N          -6.7479  -24.6597  -52.7872 N.am      18 UNK        -0.5000 
    100 CA        -6.8216  -25.3335  -54.0809 C.3       18 UNK         0.1400 
    101 CB        -7.3253  -26.7705  -53.8676 C.3       18 UNK        -0.1800 
    102 C         -5.4577  -25.3347  -54.7812 C.2       18 UNK         0.5000 
    103 O         -5.3831  -24.9735  -55.9562 O.2       18 UNK        -0.5000 
    104 N         -4.3997  -25.7248  -54.0551 N.am      19 UNK        -0.5000 
    105 CA        -3.0265  -25.7529  -54.5701 C.3       19 UNK         0.1400 
    106 CB        -2.1861  -26.7163  -53.7174 C.3       19 UNK        -0.1800 
    107 C         -2.3815  -24.3535  -54.6260 C.2       19 UNK         0.5000 
    108 O         -1.4329  -24.1492  -55.3842 O.2       19 UNK        -0.5000 
    109 N         -2.9165  -23.4202  -53.8339 N.am      20 UNK        -0.5000 
    110 CA        -2.5349  -22.0202  -53.7304 C.3       20 UNK         0.1400 
    111 CB        -1.2044  -21.8707  -52.9669 C.3       20 UNK        -0.1800 
    112 C         -3.6687  -21.2901  -52.9993 C.2       20 UNK         0.5000 
    113 O         -4.4276  -21.9230  -52.2591 O.2       20 UNK        -0.5000 
    114 N         -3.7473  -19.9771  -53.2137 N.am      21 UNK        -0.5000 
    115 CA        -4.6553  -19.0471  -52.5549 C.3       21 UNK         0.1400 
    116 CB        -6.0608  -19.1442  -53.1771 C.3       21 UNK        -0.1800 
    117 C         -4.0650  -17.6370  -52.7107 C.2       21 UNK         0.5000 
    118 O         -3.2274  -17.4241  -53.5939 O.2       21 UNK        -0.5000 
    119 N         -4.5226  -16.7009  -51.8750 N.am      22 UNK        -0.5000 
    120 CA        -4.1512  -15.2786  -51.9211 C.3       22 UNK         0.1400 
    121 C         -5.4172  -14.4009  -52.0984 C.2       22 UNK         0.5000 
    122 N         -5.3098  -13.2767  -52.7933 N.am      22 UNK        -0.7600 
    123 O         -6.4905  -14.7110  -51.5847 O.2       22 UNK        -0.5000 
    124 C124       -3.3598  -14.8301  -50.6640 C.3       23 UNK        -0.0398 
    125 S125       -1.8428  -15.7964  -50.3631 S.3       23 UNK        -0.2404 
    126 C126       -0.6692  -15.0151  -51.5260 C.3       23 UNK        -0.0205 
    127 H127        4.7003  -14.9153  -43.7900 H         1 UNK         0.0600 
    128 H128        5.2072  -16.5895  -43.9988 H         1 UNK         0.0600 
    129 H129        4.0225  -15.9000  -45.0920 H         1 UNK         0.0600 
    130 H130        6.6382  -14.2034  -47.0735 H         1 UNK         0.3000 
    131 H131        3.8598  -14.8336  -47.0109 H         1 UNK         0.0600 
    132 H132        3.6810  -13.2237  -48.8752 H         1 UNK         0.0800 
    133 H133        5.2986  -12.6409  -48.5761 H         1 UNK         0.0800 
    134 H134        5.0196  -14.7949  -51.9807 H         1 UNK         0.0800 
    135 H135        4.1376  -13.4878  -51.2430 H         1 UNK         0.0800 
    136 H136        1.7561  -13.7582  -51.2497 H         1 UNK         0.1150 
    137 H137       -0.0019  -17.6346  -51.6816 H         1 UNK         0.1150 
    138 H138        4.2353  -17.2555  -51.1609 H         1 UNK         0.1150 
    139 H139        1.6264  -19.5639  -52.1814 H         1 UNK         0.0800 
    140 H140        3.2901  -19.4103  -51.6872 H         1 UNK         0.0800 
    141 H141       -0.2742  -19.6279  -50.7582 H         1 UNK         0.0800 
    142 H142       -0.1421  -18.6682  -49.3009 H         1 UNK         0.0800 
    143 H143       -0.3842  -21.7162  -49.4075 H         1 UNK         0.0600 
    144 H144        0.1927  -19.9735  -47.1949 H         1 UNK         0.3000 
    145 H145       -0.6837  -21.2663  -44.6760 H         1 UNK         0.0600 
    146 H146        1.0322  -22.7987  -43.6292 H         1 UNK         0.0600 
    147 H147       -0.2637  -23.6338  -44.4597 H         1 UNK         0.0600 
    148 H148        1.3196  -23.5061  -45.2200 H         1 UNK         0.0600 
    149 H149        0.9390  -19.8140  -44.6468 H         1 UNK         0.3000 
    150 H150        4.2224  -19.7429  -44.9580 H         1 UNK         0.0600 
    151 H151        4.1656  -19.3256  -47.4071 H         1 UNK         0.0600 
    152 H152        4.3307  -17.8236  -46.5206 H         1 UNK         0.0600 
    153 H153        2.7796  -18.2672  -47.2260 H         1 UNK         0.0600 
    154 H154        1.8239  -17.9604  -44.9009 H         1 UNK         0.3000 
    155 H155        1.8798  -17.9067  -41.3181 H         1 UNK         0.0600 
    156 H156        3.2101  -15.9342  -42.0241 H         1 UNK         0.0600 
    157 H157        1.5311  -15.4922  -41.7671 H         1 UNK         0.0600 
    158 H158        2.1475  -15.6816  -43.4041 H         1 UNK         0.0600 
    159 H159       -0.0094  -16.8977  -43.1914 H         1 UNK         0.3000 
    160 H160       -2.1806  -19.7743  -43.0268 H         1 UNK         0.0600 
    161 H161       -2.3134  -16.9772  -41.7819 H         1 UNK         0.0600 
    162 H162       -2.5039  -18.4977  -40.9140 H         1 UNK         0.0600 
    163 H163       -3.6882  -18.0261  -42.1234 H         1 UNK         0.0600 
    164 H164       -1.6943  -17.0936  -44.2808 H         1 UNK         0.3000 
    165 H165       -2.4754  -18.3681  -47.4865 H         1 UNK         0.0600 
    166 H166       -4.0637  -16.5189  -47.6305 H         1 UNK         0.0600 
    167 H167       -4.7492  -17.6888  -46.5167 H         1 UNK         0.0600 
    168 H168       -3.9930  -16.2383  -45.8904 H         1 UNK         0.0600 
    169 H169       -1.8234  -15.7578  -46.7826 H         1 UNK         0.3000 
    170 H170        1.5827  -15.9049  -45.9744 H         1 UNK         0.0600 
    171 H171        0.2866  -15.0373  -48.6055 H         1 UNK         0.0600 
    172 H172        1.7947  -14.4152  -47.9811 H         1 UNK         0.0600 
    173 H173        1.6785  -16.1038  -48.4554 H         1 UNK         0.0600 
    174 H174        0.1227  -13.6268  -46.4504 H         1 UNK         0.3000 
    175 H175       -1.3182  -12.5198  -45.1344 H         1 UNK         0.0600 
    176 H176       -3.1251  -13.9379  -44.0414 H         1 UNK         0.0600 
    177 H177       -2.2352  -13.8681  -42.5252 H         1 UNK         0.0600 
    178 H178       -2.8999  -12.3983  -43.2330 H         1 UNK         0.0600 
    179 H179        0.7354  -12.9988  -43.2287 H         1 UNK         0.3000 
    180 H180        0.8288   -9.6514  -41.9343 H         1 UNK         0.0600 
    181 H181        1.3724  -12.5191  -40.9987 H         1 UNK         0.0600 
    182 H182        0.2586  -11.3763  -40.2694 H         1 UNK         0.0600 
    183 H183        1.9840  -11.0484  -40.2469 H         1 UNK         0.0600 
    184 H184        2.6131   -9.7351  -43.1868 H         1 UNK         0.3000 
    185 H185        4.0289  -10.4188  -44.8088 H         1 UNK         0.0600 
    186 H186        5.2032  -10.2211  -42.5956 H         1 UNK         0.0600 
    187 H187        5.7377  -11.8919  -42.7248 H         1 UNK         0.0600 
    188 H188        6.3196  -10.6819  -43.8692 H         1 UNK         0.0600 
    189 H189        5.6004  -12.7255  -45.0590 H         1 UNK         0.3000 
    190 H190       -2.4623  -21.9121  -47.6296 H         1 UNK         0.3000 
    191 H191       -4.6820  -21.9232  -49.3061 H         1 UNK         0.0600 
    192 H192       -5.0043  -19.8307  -47.0880 H         1 UNK         0.0600 
    193 H193       -6.2482  -20.3765  -48.1976 H         1 UNK         0.0600 
    194 H194       -4.8990  -19.4343  -48.8036 H         1 UNK         0.0600 
    195 H195       -3.6315  -21.5307  -45.8925 H         1 UNK         0.3000 
    196 H196       -5.4310  -23.2678  -44.6735 H         1 UNK         0.0600 
    197 H197       -3.7957  -23.2413  -42.7815 H         1 UNK         0.0600 
    198 H198       -4.0369  -21.6356  -43.4523 H         1 UNK         0.0600 
    199 H199       -2.5749  -22.5401  -43.8357 H         1 UNK         0.0600 
    200 H200       -2.1129  -24.0790  -45.8659 H         1 UNK         0.3000 
    201 H201       -2.5595  -26.9654  -45.3196 H         1 UNK         0.0600 
    202 H202       -0.3669  -26.0086  -44.6988 H         1 UNK         0.0600 
    203 H203       -0.1119  -25.4396  -46.3515 H         1 UNK         0.0600 
    204 H204       -0.1744  -27.1623  -46.0056 H         1 UNK         0.0600 
    205 H205       -2.4992  -24.6344  -47.9303 H         1 UNK         0.3000 
    206 H206       -2.3035  -26.5085  -50.1145 H         1 UNK         0.0600 
    207 H207       -1.4878  -24.1206  -50.1586 H         1 UNK         0.0600 
    208 H208       -2.5912  -24.4836  -51.4691 H         1 UNK         0.0600 
    209 H209       -3.1617  -23.5663  -50.0919 H         1 UNK         0.0600 
    210 H210       -4.8671  -25.8669  -48.0723 H         1 UNK         0.3000 
    211 H211       -7.0326  -26.2519  -47.9692 H         1 UNK         0.0600 
    212 H212       -6.6836  -28.0155  -50.4542 H         1 UNK         0.0600 
    213 H213       -7.9931  -28.1065  -49.2842 H         1 UNK         0.0600 
    214 H214       -6.3602  -28.5290  -48.7987 H         1 UNK         0.0600 
    215 H215       -6.0978  -23.9860  -49.5152 H         1 UNK         0.3000 
    216 H216       -6.5971  -22.3424  -50.9164 H         1 UNK         0.0600 
    217 H217       -8.9288  -21.5869  -51.0639 H         1 UNK         0.0600 
    218 H218       -8.6020  -22.1557  -49.4360 H         1 UNK         0.0600 
    219 H219       -9.5212  -23.1625  -50.5548 H         1 UNK         0.0600 
    220 H220       -6.1838  -25.1143  -52.0778 H         1 UNK         0.3000 
    221 H221       -7.5281  -24.8258  -54.7408 H         1 UNK         0.0600 
    222 H222       -6.6714  -27.3354  -53.2018 H         1 UNK         0.0600 
    223 H223       -8.3241  -26.7731  -53.4305 H         1 UNK         0.0600 
    224 H224       -7.3814  -27.3109  -54.8134 H         1 UNK         0.0600 
    225 H225       -4.5322  -26.0091  -53.0883 H         1 UNK         0.3000 
    226 H226       -3.0439  -26.1426  -55.5902 H         1 UNK         0.0600 
    227 H227       -2.5982  -27.7251  -53.7446 H         1 UNK         0.0600 
    228 H228       -1.1620  -26.7741  -54.0882 H         1 UNK         0.0600 
    229 H229       -2.1396  -26.4048  -52.6751 H         1 UNK         0.0600 
    230 H230       -3.7225  -23.6572  -53.2685 H         1 UNK         0.3000 
    231 H231       -2.4356  -21.6061  -54.7359 H         1 UNK         0.0600 
    232 H232       -0.3928  -22.3994  -53.4662 H         1 UNK         0.0600 
    233 H233       -1.2794  -22.2551  -51.9499 H         1 UNK         0.0600 
    234 H234       -0.9115  -20.8225  -52.8983 H         1 UNK         0.0600 
    235 H235       -3.0665  -19.5126  -53.8029 H         1 UNK         0.3000 
    236 H236       -4.7121  -19.2866  -51.4916 H         1 UNK         0.0600 
    237 H237       -6.7478  -18.4399  -52.7068 H         1 UNK         0.0600 
    238 H238       -6.0416  -18.9229  -54.2448 H         1 UNK         0.0600 
    239 H239       -6.4841  -20.1409  -53.0494 H         1 UNK         0.0600 
    240 H240       -5.2510  -16.9322  -51.2147 H         1 UNK         0.3000 
    241 H241       -3.5189  -15.0947  -52.7916 H         1 UNK         0.0600 
    242 H242       -6.1241  -12.6921  -52.9047 H         1 UNK         0.3800 
    243 H243       -4.4406  -12.9956  -53.2208 H         1 UNK         0.3800 
    244 H244       -3.0888  -13.7754  -50.7360 H         1 UNK         0.0800 
    245 H245       -3.9856  -14.9197  -49.7744 H         1 UNK         0.0800 
    246 H246       -1.0426  -15.1256  -52.5448 H         1 UNK         0.0800 
    247 H247       -0.6230  -13.9451  -51.3183 H         1 UNK         0.0800 
@<TRIPOS>BOND
     1    1    2 1    
     2    1  127 1    
     3    1  128 1    
     4    1  129 1    
     5    2    3 2    
     6    2    4 am   BACKBONE|DICT|INTERRES
     7    4    5 1    
     8    4  130 1    
     9    5    6 1    
    10    5   65 1    
    11    5  131 1    
    12    6    7 1    
    13    6  132 1    
    14    6  133 1    
    15    7    8 1    
    16    8    9 1    
    17    8  134 1    
    18    8  135 1    
    19    9   10 ar   
    20    9   14 ar   
    21   10   11 ar   
    22   10  136 1    
    23   11   12 ar   
    24   11  126 1    
    25   12   13 ar   
    26   12  137 1    
    27   13   14 ar   
    28   13   15 1    
    29   14  138 1    
    30   15   16 1    
    31   15  139 1    
    32   15  140 1    
    33   16   17 1    
    34   17   18 1    
    35   17  141 1    
    36   17  142 1    
    37   18   19 1    
    38   18   67 1    
    39   18  143 1    
    40   19   20 am   BACKBONE|DICT|INTERRES
    41   19  144 1    
    42   20   21 2    
    43   20   22 1    
    44   22   23 1    
    45   22   24 1    
    46   22  145 1    
    47   23  146 1    
    48   23  147 1    
    49   23  148 1    
    50   24   25 am   BACKBONE|DICT|INTERRES
    51   24  149 1    
    52   25   26 2    
    53   25   27 1    
    54   27   28 1    
    55   27   29 1    
    56   27  150 1    
    57   28  151 1    
    58   28  152 1    
    59   28  153 1    
    60   29   30 am   BACKBONE|DICT|INTERRES
    61   29  154 1    
    62   30   31 2    
    63   30   32 1    
    64   32   33 1    
    65   32   34 1    
    66   32  155 1    
    67   33  156 1    
    68   33  157 1    
    69   33  158 1    
    70   34   35 am   BACKBONE|DICT|INTERRES
    71   34  159 1    
    72   35   36 2    
    73   35   37 1    
    74   37   38 1    
    75   37   39 1    
    76   37  160 1    
    77   38  161 1    
    78   38  162 1    
    79   38  163 1    
    80   39   40 am   BACKBONE|DICT|INTERRES
    81   39  164 1    
    82   40   41 2    
    83   40   42 1    
    84   42   43 1    
    85   42   44 1    
    86   42  165 1    
    87   43  166 1    
    88   43  167 1    
    89   43  168 1    
    90   44   45 am   BACKBONE|DICT|INTERRES
    91   44  169 1    
    92   45   46 2    
    93   45   47 1    
    94   47   48 1    
    95   47   49 1    
    96   47  170 1    
    97   48  171 1    
    98   48  172 1    
    99   48  173 1    
   100   49   50 am   BACKBONE|DICT|INTERRES
   101   49  174 1    
   102   50   51 2    
   103   50   52 1    
   104   52   53 1    
   105   52   54 1    
   106   52  175 1    
   107   53  176 1    
   108   53  177 1    
   109   53  178 1    
   110   54   55 am   BACKBONE|DICT|INTERRES
   111   54  179 1    
   112   55   56 2    
   113   55   57 1    
   114   57   58 1    
   115   57   59 1    
   116   57  180 1    
   117   58  181 1    
   118   58  182 1    
   119   58  183 1    
   120   59   60 am   BACKBONE|DICT|INTERRES
   121   59  184 1    
   122   60   61 2    
   123   60   62 1    
   124   62   63 1    
   125   62   64 1    
   126   62  185 1    
   127   63  186 1    
   128   63  187 1    
   129   63  188 1    
   130   64   65 am   BACKBONE|DICT|INTERRES
   131   64  189 1    
   132   65   66 2    
   133   67   68 2    
   134   67   69 am   BACKBONE|DICT|INTERRES
   135   69   70 1    
   136   69  190 1    
   137   70   71 1    
   138   70   72 1    
   139   70  191 1    
   140   71  192 1    
   141   71  193 1    
   142   71  194 1    
   143   72   73 2    
   144   72   74 am   BACKBONE|DICT|INTERRES
   145   74   75 1    
   146   74  195 1    
   147   75   76 1    
   148   75   77 1    
   149   75  196 1    
   150   76  197 1    
   151   76  198 1    
   152   76  199 1    
   153   77   78 2    
   154   77   79 am   BACKBONE|DICT|INTERRES
   155   79   80 1    
   156   79  200 1    
   157   80   81 1    
   158   80   82 1    
   159   80  201 1    
   160   81  202 1    
   161   81  203 1    
   162   81  204 1    
   163   82   83 2    
   164   82   84 am   BACKBONE|DICT|INTERRES
   165   84   85 1    
   166   84  205 1    
   167   85   86 1    
   168   85   87 1    
   169   85  206 1    
   170   86  207 1    
   171   86  208 1    
   172   86  209 1    
   173   87   88 2    
   174   87   89 am   BACKBONE|DICT|INTERRES
   175   89   90 1    
   176   89  210 1    
   177   90   91 1    
   178   90   92 1    
   179   90  211 1    
   180   91  212 1    
   181   91  213 1    
   182   91  214 1    
   183   92   93 2    
   184   92   94 am   BACKBONE|DICT|INTERRES
   185   94   95 1    
   186   94  215 1    
   187   95   96 1    
   188   95   97 1    
   189   95  216 1    
   190   96  217 1    
   191   96  218 1    
   192   96  219 1    
   193   97   98 2    
   194   97   99 am   BACKBONE|DICT|INTERRES
   195   99  100 1    
   196   99  220 1    
   197  100  101 1    
   198  100  102 1    
   199  100  221 1    
   200  101  222 1    
   201  101  223 1    
   202  101  224 1    
   203  102  103 2    
   204  102  104 am   BACKBONE|DICT|INTERRES
   205  104  105 1    
   206  104  225 1    
   207  105  106 1    
   208  105  107 1    
   209  105  226 1    
   210  106  227 1    
   211  106  228 1    
   212  106  229 1    
   213  107  108 2    
   214  107  109 am   BACKBONE|DICT|INTERRES
   215  109  110 1    
   216  109  230 1    
   217  110  111 1    
   218  110  112 1    
   219  110  231 1    
   220  111  232 1    
   221  111  233 1    
   222  111  234 1    
   223  112  113 2    
   224  112  114 am   BACKBONE|DICT|INTERRES
   225  114  115 1    
   226  114  235 1    
   227  115  116 1    
   228  115  117 1    
   229  115  236 1    
   230  116  237 1    
   231  116  238 1    
   232  116  239 1    
   233  117  118 2    
   234  117  119 am   BACKBONE|DICT|INTERRES
   235  119  120 1    
   236  119  240 1    
   237  120  121 1    
   238  120  124 1    
   239  120  241 1    
   240  121  122 am   BACKBONE|DICT|INTERRES
   241  121  123 2    
   242  122  242 1    
   243  122  243 1    
   244  124  125 1    
   245  124  244 1    
   246  124  245 1    
   247  125  126 1    
   248  126  246 1    
   249  126  247 1    
@<TRIPOS>SUBSTRUCTURE
     1 UNK         1 GROUP             0       ****    0 ROOT    
