@<TRIPOS>MOLECULE
3R540
247   249    1
SMALL
USER_CHARGES


@<TRIPOS>ATOM
      1 CA          4.8567  -13.6080  -45.6318 C.3       0 UNK        -0.1800 
      2 C           3.3797  -13.2660  -45.5130 C.2       0 UNK         0.5000 
      3 O           2.9410  -12.8027  -44.4604 O.2       0 UNK        -0.5000 
      4 N           2.6073  -13.4824  -46.5865 N.am      1 UNK        -0.5000 
      5 CA          1.1644  -13.2063  -46.6463 C.3       1 UNK         0.1400 
      6 C6          0.5053  -13.7686  -47.9283 C.3       23 UNK        -0.0398 
      7 S7          0.5157  -15.5921  -47.9934 S.3       23 UNK        -0.2404 
      8 C8          1.8064  -15.9145  -49.2353 C.3       23 UNK        -0.0205 
      9 C9          1.7450  -17.3454  -49.7493 C.ar      23 UNK        -0.0193 
     10 C10         0.7775  -17.6969  -50.6929 C.ar      23 UNK        -0.1150 
     11 C11         0.7207  -18.9944  -51.2057 C.ar      23 UNK        -0.0193 
     12 C12         1.6527  -19.9451  -50.7797 C.ar      23 UNK        -0.1150 
     13 C13         2.6301  -19.6081  -49.8361 C.ar      23 UNK        -0.0193 
     14 C14         2.6638  -18.3076  -49.3173 C.ar      23 UNK        -0.1150 
     15 C15         3.6870  -20.6259  -49.4175 C.3       23 UNK        -0.0205 
     16 S16         2.9974  -22.1769  -48.7495 S.3       23 UNK        -0.2404 
     17 C17         2.2249  -21.6014  -47.1998 C.3       23 UNK        -0.0398 
     18 CA          0.8527  -22.2585  -46.9141 C.3       11 UNK         0.1400 
     19 N           0.3777  -21.9600  -45.5602 N.am      11 UNK        -0.5000 
     20 C          -0.7093  -22.4985  -44.9883 C.2       10 UNK         0.5000 
     21 O          -1.3983  -23.3696  -45.5163 O.2       10 UNK        -0.5000 
     22 CA         -1.1319  -21.9328  -43.6206 C.3       10 UNK         0.1400 
     23 CB         -0.3088  -22.5632  -42.4878 C.3       10 UNK        -0.1800 
     24 N          -1.0247  -20.4744  -43.5627 N.am      10 UNK        -0.5000 
     25 C          -1.7452  -19.6307  -44.3168 C.2       9 UNK         0.5000 
     26 O          -2.6340  -19.9947  -45.0872 O.2       9 UNK        -0.5000 
     27 CA         -1.3714  -18.1376  -44.2407 C.3       9 UNK         0.1400 
     28 CB         -1.9967  -17.4726  -43.0058 C.3       9 UNK        -0.1800 
     29 N           0.0762  -17.9225  -44.2336 N.am      9 UNK        -0.5000 
     30 C           0.8978  -18.2697  -45.2343 C.2       8 UNK         0.5000 
     31 O           0.5112  -18.7593  -46.2927 O.2       8 UNK        -0.5000 
     32 CA          2.4067  -18.1139  -44.9850 C.3       8 UNK         0.1400 
     33 CB          2.8692  -16.6739  -45.2255 C.3       8 UNK        -0.1800 
     34 N           2.7741  -18.5251  -43.6323 N.am      8 UNK        -0.5000 
     35 C           2.7996  -19.7982  -43.2168 C.2       7 UNK         0.5000 
     36 O           2.5428  -20.7580  -43.9429 O.2       7 UNK        -0.5000 
     37 CA          3.1326  -20.0321  -41.7324 C.3       7 UNK         0.1400 
     38 CB          4.6529  -20.0676  -41.5178 C.3       7 UNK        -0.1800 
     39 N           2.5421  -19.0170  -40.8584 N.am      7 UNK        -0.5000 
     40 C           1.2253  -18.8722  -40.6556 C.2       6 UNK         0.5000 
     41 O           0.3715  -19.5963  -41.1658 O.2       6 UNK        -0.5000 
     42 CA          0.7880  -17.6916  -39.7708 C.3       6 UNK         0.1400 
     43 CB          0.8355  -18.0822  -38.2862 C.3       6 UNK        -0.1800 
     44 N           1.5794  -16.4754  -39.9810 N.am      6 UNK        -0.5000 
     45 C           1.6465  -15.8022  -41.1369 C.2       5 UNK         0.5000 
     46 O           1.1175  -16.1832  -42.1835 O.2       5 UNK        -0.5000 
     47 CA          2.4639  -14.4986  -41.1310 C.3       5 UNK         0.1400 
     48 CB          3.8345  -14.7188  -41.7885 C.3       5 UNK        -0.1800 
     49 N           1.7592  -13.4272  -41.8331 N.am      5 UNK        -0.5000 
     50 C           0.6211  -12.8593  -41.4068 C.2       4 UNK         0.5000 
     51 O           0.0766  -13.1479  -40.3387 O.2       4 UNK        -0.5000 
     52 CA          0.0014  -11.7847  -42.3254 C.3       4 UNK         0.1400 
     53 CB         -1.0879  -10.9398  -41.6324 C.3       4 UNK        -0.1800 
     54 N           1.0105  -10.9263  -42.9500 N.am      4 UNK        -0.5000 
     55 C           1.8981  -10.1202  -42.3462 C.2       3 UNK         0.5000 
     56 O           1.9301   -9.9202  -41.1314 O.2       3 UNK        -0.5000 
     57 CA          2.9457   -9.4329  -43.2469 C.3       3 UNK         0.1400 
     58 CB          4.3588   -9.9421  -42.9159 C.3       3 UNK        -0.1800 
     59 N           2.6920   -9.6617  -44.6707 N.am      3 UNK        -0.5000 
     60 C           1.9256   -8.8881  -45.4515 C.2       2 UNK         0.5000 
     61 O           1.4053   -7.8377  -45.0750 O.2       2 UNK        -0.5000 
     62 CA          1.6807   -9.3843  -46.8913 C.3       2 UNK         0.1400 
     63 CB          2.6925   -8.7500  -47.8576 C.3       2 UNK        -0.1800 
     64 N           1.7491  -10.8433  -47.0186 N.am      2 UNK        -0.5000 
     65 C           0.8563  -11.7004  -46.5004 C.2       1 UNK         0.5000 
     66 O          -0.1468  -11.3455  -45.8821 O.2       1 UNK        -0.5000 
     67 C          -0.2080  -21.9033  -47.9776 C.2       11 UNK         0.5000 
     68 O          -0.5304  -22.7502  -48.8095 O.2       11 UNK        -0.5000 
     69 N          -0.7782  -20.6939  -47.8923 N.am      12 UNK        -0.5000 
     70 CA         -1.8362  -20.2088  -48.7784 C.3       12 UNK         0.1400 
     71 CB         -2.1219  -18.7306  -48.4786 C.3       12 UNK        -0.1800 
     72 C          -3.1274  -21.0437  -48.7148 C.2       12 UNK         0.5000 
     73 O          -3.7679  -21.2422  -49.7455 O.2       12 UNK        -0.5000 
     74 N          -3.4759  -21.5378  -47.5203 N.am      13 UNK        -0.5000 
     75 CA         -4.6066  -22.4398  -47.3103 C.3       13 UNK         0.1400 
     76 CB         -4.9568  -22.4706  -45.8154 C.3       13 UNK        -0.1800 
     77 C          -4.3509  -23.8660  -47.8367 C.2       13 UNK         0.5000 
     78 O          -5.2997  -24.5344  -48.2463 O.2       13 UNK        -0.5000 
     79 N          -3.0920  -24.3192  -47.7953 N.am      14 UNK        -0.5000 
     80 CA         -2.6875  -25.6652  -48.1925 C.3       14 UNK         0.1400 
     81 CB         -1.4279  -26.0690  -47.4103 C.3       14 UNK        -0.1800 
     82 C          -2.4431  -25.7986  -49.7042 C.2       14 UNK         0.5000 
     83 O          -2.9000  -26.7753  -50.2995 O.2       14 UNK        -0.5000 
     84 N          -1.7017  -24.8469  -50.2885 N.am      15 UNK        -0.5000 
     85 CA         -1.1813  -24.8819  -51.6573 C.3       15 UNK         0.1400 
     86 CB         -0.2462  -23.6837  -51.8715 C.3       15 UNK        -0.1800 
     87 C          -2.2874  -24.9348  -52.7279 C.2       15 UNK         0.5000 
     88 O          -2.8738  -23.9024  -53.0602 O.2       15 UNK        -0.5000 
     89 N          -2.5517  -26.1544  -53.2213 N.am      16 UNK        -0.5000 
     90 CA         -3.6283  -26.5359  -54.1451 C.3       16 UNK         0.1400 
     91 CB         -3.4515  -25.8451  -55.5146 C.3       16 UNK        -0.1800 
     92 C          -5.0438  -26.3529  -53.5495 C.2       16 UNK         0.5000 
     93 O          -6.0147  -26.2775  -54.3035 O.2       16 UNK        -0.5000 
     94 N          -5.1251  -26.3070  -52.2099 N.am      17 UNK        -0.5000 
     95 CA         -6.2667  -25.9376  -51.3673 C.3       17 UNK         0.1400 
     96 CB         -7.4913  -26.8355  -51.6354 C.3       17 UNK        -0.1800 
     97 C          -6.6313  -24.4432  -51.4772 C.2       17 UNK         0.5000 
     98 O          -6.3171  -23.7807  -52.4681 O.2       17 UNK        -0.5000 
     99 N          -7.3289  -23.9370  -50.4524 N.am      18 UNK        -0.5000 
    100 CA        -7.7160  -22.5304  -50.2899 C.3       18 UNK         0.1400 
    101 CB        -8.3954  -22.3630  -48.9217 C.3       18 UNK        -0.1800 
    102 C         -8.6231  -21.9747  -51.4078 C.2       18 UNK         0.5000 
    103 O         -8.6923  -20.7580  -51.5815 O.2       18 UNK        -0.5000 
    104 N         -9.2903  -22.8687  -52.1503 N.am      19 UNK        -0.5000 
    105 CA       -10.0827  -22.5493  -53.3369 C.3       19 UNK         0.1400 
    106 CB       -10.9093  -23.7834  -53.7298 C.3       19 UNK        -0.1800 
    107 C         -9.2273  -22.0721  -54.5285 C.2       19 UNK         0.5000 
    108 O         -9.7182  -21.2820  -55.3361 O.2       19 UNK        -0.5000 
    109 N         -7.9786  -22.5513  -54.6186 N.am      20 UNK        -0.5000 
    110 CA        -7.0102  -22.1566  -55.6415 C.3       20 UNK         0.1400 
    111 CB        -6.3281  -23.4075  -56.2108 C.3       20 UNK        -0.1800 
    112 C         -5.9618  -21.1949  -55.0634 C.2       20 UNK         0.5000 
    113 O         -5.6207  -20.2166  -55.7292 O.2       20 UNK        -0.5000 
    114 N         -5.4785  -21.4925  -53.8458 N.am      21 UNK        -0.5000 
    115 CA        -4.5151  -20.7351  -53.0403 C.3       21 UNK         0.1400 
    116 CB        -5.2224  -19.5483  -52.3570 C.3       21 UNK        -0.1800 
    117 C         -3.2697  -20.3087  -53.8410 C.2       21 UNK         0.5000 
    118 O         -3.0568  -19.1151  -54.0568 O.2       21 UNK        -0.5000 
    119 N         -2.5271  -21.3133  -54.3237 N.am      22 UNK        -0.5000 
    120 CA        -1.3731  -21.2381  -55.2420 C.3       22 UNK         0.1400 
    121 C         -1.5910  -20.5090  -56.6070 C.2       22 UNK         0.5000 
    122 N         -2.8051  -20.1296  -56.9881 N.am      22 UNK        -0.7600 
    123 O         -0.6445  -20.3302  -57.3691 O.2       22 UNK        -0.5000 
    124 C124       -0.0206  -20.8934  -54.5451 C.3       23 UNK        -0.0398 
    125 S125        0.1831  -19.1866  -53.9249 S.3       23 UNK        -0.2404 
    126 C126       -0.3675  -19.3649  -52.1983 C.3       23 UNK        -0.0205 
    127 H127        5.1521  -14.2790  -44.8256 H         1 UNK         0.0600 
    128 H128        5.4567  -12.7012  -45.5574 H         1 UNK         0.0600 
    129 H129        5.0848  -14.0946  -46.5802 H         1 UNK         0.0600 
    130 H130        3.0181  -13.8675  -47.4237 H         1 UNK         0.3000 
    131 H131        0.7052  -13.7033  -45.7883 H         1 UNK         0.0600 
    132 H132        0.9780  -13.3557  -48.8208 H         1 UNK         0.0800 
    133 H133       -0.5422  -13.4649  -47.9788 H         1 UNK         0.0800 
    134 H134        1.6851  -15.2332  -50.0787 H         1 UNK         0.0800 
    135 H135        2.7859  -15.7039  -48.8047 H         1 UNK         0.0800 
    136 H136        0.0626  -16.9569  -51.0245 H         1 UNK         0.1150 
    137 H137        1.6183  -20.9477  -51.1826 H         1 UNK         0.1150 
    138 H138        3.4191  -18.0358  -48.5936 H         1 UNK         0.1150 
    139 H139        4.2973  -20.8658  -50.2890 H         1 UNK         0.0800 
    140 H140        4.3670  -20.1988  -48.6787 H         1 UNK         0.0800 
    141 H141        2.1339  -20.5165  -47.2174 H         1 UNK         0.0800 
    142 H142        2.9191  -21.8311  -46.3908 H         1 UNK         0.0800 
    143 H143        0.9949  -23.3406  -46.9557 H         1 UNK         0.0600 
    144 H144        0.9195  -21.2844  -45.0321 H         1 UNK         0.3000 
    145 H145       -2.1800  -22.1956  -43.4633 H         1 UNK         0.0600 
    146 H146       -0.6594  -22.2261  -41.5122 H         1 UNK         0.0600 
    147 H147       -0.3902  -23.6507  -42.5049 H         1 UNK         0.0600 
    148 H148        0.7487  -22.3114  -42.5677 H         1 UNK         0.0600 
    149 H149       -0.3561  -20.0926  -42.9000 H         1 UNK         0.3000 
    150 H150       -1.7732  -17.6485  -45.1306 H         1 UNK         0.0600 
    151 H151       -3.0820  -17.5796  -43.0134 H         1 UNK         0.0600 
    152 H152       -1.7734  -16.4059  -42.9771 H         1 UNK         0.0600 
    153 H153       -1.6293  -17.9154  -42.0802 H         1 UNK         0.0600 
    154 H154        0.4699  -17.4717  -43.4116 H         1 UNK         0.3000 
    155 H155        2.9356  -18.7559  -45.6925 H         1 UNK         0.0600 
    156 H156        2.2992  -15.9604  -44.6298 H         1 UNK         0.0600 
    157 H157        2.7445  -16.4031  -46.2728 H         1 UNK         0.0600 
    158 H158        3.9252  -16.5515  -44.9856 H         1 UNK         0.0600 
    159 H159        2.9353  -17.7902  -42.9602 H         1 UNK         0.3000 
    160 H160        2.7246  -21.0048  -41.4492 H         1 UNK         0.0600 
    161 H161        5.1182  -19.1116  -41.7614 H         1 UNK         0.0600 
    162 H162        5.1174  -20.8287  -42.1463 H         1 UNK         0.0600 
    163 H163        4.8994  -20.3075  -40.4834 H         1 UNK         0.0600 
    164 H164        3.1752  -18.3778  -40.4010 H         1 UNK         0.3000 
    165 H165       -0.2476  -17.4581  -40.0261 H         1 UNK         0.0600 
    166 H166        0.4346  -17.2879  -37.6563 H         1 UNK         0.0600 
    167 H167        0.2386  -18.9758  -38.0985 H         1 UNK         0.0600 
    168 H168        1.8536  -18.2921  -37.9560 H         1 UNK         0.0600 
    169 H169        2.0472  -16.1001  -39.1686 H         1 UNK         0.3000 
    170 H170        2.6228  -14.1790  -40.0991 H         1 UNK         0.0600 
    171 H171        4.4075  -15.4788  -41.2561 H         1 UNK         0.0600 
    172 H172        3.7357  -15.0464  -42.8232 H         1 UNK         0.0600 
    173 H173        4.4251  -13.8024  -41.7854 H         1 UNK         0.0600 
    174 H174        2.1380  -13.1515  -42.7353 H         1 UNK         0.3000 
    175 H175       -0.4770  -12.3290  -43.1409 H         1 UNK         0.0600 
    176 H176       -0.6991  -10.4078  -40.7638 H         1 UNK         0.0600 
    177 H177       -1.5089  -10.2032  -42.3168 H         1 UNK         0.0600 
    178 H178       -1.9099  -11.5688  -41.2888 H         1 UNK         0.0600 
    179 H179        1.0803  -11.0167  -43.9543 H         1 UNK         0.3000 
    180 H180        2.9113   -8.3624  -43.0344 H         1 UNK         0.0600 
    181 H181        4.4482  -11.0177  -43.0723 H         1 UNK         0.0600 
    182 H182        4.6132   -9.7415  -41.8745 H         1 UNK         0.0600 
    183 H183        5.1103   -9.4494  -43.5329 H         1 UNK         0.0600 
    184 H184        3.0528  -10.5266  -45.0489 H         1 UNK         0.3000 
    185 H185        0.6790   -9.0632  -47.1850 H         1 UNK         0.0600 
    186 H186        2.6500   -7.6611  -47.8081 H         1 UNK         0.0600 
    187 H187        3.7150   -9.0495  -47.6244 H         1 UNK         0.0600 
    188 H188        2.4852   -9.0349  -48.8893 H         1 UNK         0.0600 
    189 H189        2.5522  -11.2187  -47.5019 H         1 UNK         0.3000 
    190 H190       -0.4245  -20.0323  -47.2033 H         1 UNK         0.3000 
    191 H191       -1.4596  -20.2829  -49.7971 H         1 UNK         0.0600 
    192 H192       -1.2199  -18.1276  -48.5817 H         1 UNK         0.0600 
    193 H193       -2.8644  -18.3282  -49.1686 H         1 UNK         0.0600 
    194 H194       -2.5005  -18.5913  -47.4660 H         1 UNK         0.0600 
    195 H195       -2.9355  -21.2732  -46.7036 H         1 UNK         0.3000 
    196 H196       -5.4656  -22.0375  -47.8502 H         1 UNK         0.0600 
    197 H197       -5.8205  -23.1104  -45.6295 H         1 UNK         0.0600 
    198 H198       -5.2038  -21.4744  -45.4479 H         1 UNK         0.0600 
    199 H199       -4.1291  -22.8518  -45.2164 H         1 UNK         0.0600 
    200 H200       -2.3722  -23.7246  -47.4010 H         1 UNK         0.3000 
    201 H201       -3.4799  -26.3668  -47.9225 H         1 UNK         0.0600 
    202 H202       -1.6182  -26.0754  -46.3369 H         1 UNK         0.0600 
    203 H203       -0.5993  -25.3848  -47.5972 H         1 UNK         0.0600 
    204 H204       -1.0978  -27.0709  -47.6877 H         1 UNK         0.0600 
    205 H205       -1.3770  -24.0688  -49.7164 H         1 UNK         0.3000 
    206 H206       -0.5735  -25.7843  -51.7491 H         1 UNK         0.0600 
    207 H207        0.5852  -23.6983  -51.1664 H         1 UNK         0.0600 
    208 H208        0.1804  -23.7053  -52.8742 H         1 UNK         0.0600 
    209 H209       -0.7743  -22.7384  -51.7448 H         1 UNK         0.0600 
    210 H210       -2.0280  -26.9313  -52.8413 H         1 UNK         0.3000 
    211 H211       -3.5178  -27.6088  -54.3077 H         1 UNK         0.0600 
    212 H212       -3.5644  -24.7636  -55.4451 H         1 UNK         0.0600 
    213 H213       -4.1872  -26.2038  -56.2352 H         1 UNK         0.0600 
    214 H214       -2.4658  -26.0498  -55.9321 H         1 UNK         0.0600 
    215 H215       -4.2536  -26.4130  -51.6995 H         1 UNK         0.3000 
    216 H216       -5.9374  -26.1177  -50.3433 H         1 UNK         0.0600 
    217 H217       -8.2601  -26.6815  -50.8776 H         1 UNK         0.0600 
    218 H218       -7.2202  -27.8909  -51.6104 H         1 UNK         0.0600 
    219 H219       -7.9488  -26.6282  -52.6031 H         1 UNK         0.0600 
    220 H220       -7.5206  -24.5381  -49.6634 H         1 UNK         0.3000 
    221 H221       -6.7976  -21.9391  -50.2931 H         1 UNK         0.0600 
    222 H222       -9.3299  -22.9229  -48.8681 H         1 UNK         0.0600 
    223 H223       -7.7535  -22.7087  -48.1117 H         1 UNK         0.0600 
    224 H224       -8.6283  -21.3154  -48.7264 H         1 UNK         0.0600 
    225 H225       -9.1806  -23.8462  -51.9257 H         1 UNK         0.3000 
    226 H226      -10.7721  -21.7426  -53.0789 H         1 UNK         0.0600 
    227 H227      -11.5732  -24.0881  -52.9206 H         1 UNK         0.0600 
    228 H228      -11.5335  -23.5743  -54.5996 H         1 UNK         0.0600 
    229 H229      -10.2713  -24.6322  -53.9799 H         1 UNK         0.0600 
    230 H230       -7.6321  -23.1610  -53.8857 H         1 UNK         0.3000 
    231 H231       -7.5119  -21.6479  -56.4674 H         1 UNK         0.0600 
    232 H232       -7.0558  -24.0962  -56.6400 H         1 UNK         0.0600 
    233 H233       -5.7782  -23.9408  -55.4373 H         1 UNK         0.0600 
    234 H234       -5.6190  -23.1451  -56.9969 H         1 UNK         0.0600 
    235 H235       -5.7904  -22.3592  -53.4100 H         1 UNK         0.3000 
    236 H236       -4.1685  -21.4167  -52.2639 H         1 UNK         0.0600 
    237 H237       -4.5298  -18.9971  -51.7197 H         1 UNK         0.0600 
    238 H238       -5.6336  -18.8485  -53.0852 H         1 UNK         0.0600 
    239 H239       -6.0390  -19.8917  -51.7229 H         1 UNK         0.0600 
    240 H240       -2.7947  -22.2563  -54.0502 H         1 UNK         0.3000 
    241 H241       -1.2638  -22.2766  -55.5567 H         1 UNK         0.0600 
    242 H242       -2.9196  -19.6778  -57.8812 H         1 UNK         0.3800 
    243 H243       -3.6021  -20.2158  -56.3689 H         1 UNK         0.3800 
    244 H244        0.1580  -21.5854  -53.7259 H         1 UNK         0.0800 
    245 H245        0.8009  -21.0789  -55.2387 H         1 UNK         0.0800 
    246 H246       -1.2381  -18.7256  -52.0445 H         1 UNK         0.0800 
    247 H247       -0.7115  -20.3804  -52.0058 H         1 UNK         0.0800 
@<TRIPOS>BOND
     1    1    2 1    
     2    1  127 1    
     3    1  128 1    
     4    1  129 1    
     5    2    3 2    
     6    2    4 am   BACKBONE|DICT|INTERRES
     7    4    5 1    
     8    4  130 1    
     9    5    6 1    
    10    5   65 1    
    11    5  131 1    
    12    6    7 1    
    13    6  132 1    
    14    6  133 1    
    15    7    8 1    
    16    8    9 1    
    17    8  134 1    
    18    8  135 1    
    19    9   10 ar   
    20    9   14 ar   
    21   10   11 ar   
    22   10  136 1    
    23   11   12 ar   
    24   11  126 1    
    25   12   13 ar   
    26   12  137 1    
    27   13   14 ar   
    28   13   15 1    
    29   14  138 1    
    30   15   16 1    
    31   15  139 1    
    32   15  140 1    
    33   16   17 1    
    34   17   18 1    
    35   17  141 1    
    36   17  142 1    
    37   18   19 1    
    38   18   67 1    
    39   18  143 1    
    40   19   20 am   BACKBONE|DICT|INTERRES
    41   19  144 1    
    42   20   21 2    
    43   20   22 1    
    44   22   23 1    
    45   22   24 1    
    46   22  145 1    
    47   23  146 1    
    48   23  147 1    
    49   23  148 1    
    50   24   25 am   BACKBONE|DICT|INTERRES
    51   24  149 1    
    52   25   26 2    
    53   25   27 1    
    54   27   28 1    
    55   27   29 1    
    56   27  150 1    
    57   28  151 1    
    58   28  152 1    
    59   28  153 1    
    60   29   30 am   BACKBONE|DICT|INTERRES
    61   29  154 1    
    62   30   31 2    
    63   30   32 1    
    64   32   33 1    
    65   32   34 1    
    66   32  155 1    
    67   33  156 1    
    68   33  157 1    
    69   33  158 1    
    70   34   35 am   BACKBONE|DICT|INTERRES
    71   34  159 1    
    72   35   36 2    
    73   35   37 1    
    74   37   38 1    
    75   37   39 1    
    76   37  160 1    
    77   38  161 1    
    78   38  162 1    
    79   38  163 1    
    80   39   40 am   BACKBONE|DICT|INTERRES
    81   39  164 1    
    82   40   41 2    
    83   40   42 1    
    84   42   43 1    
    85   42   44 1    
    86   42  165 1    
    87   43  166 1    
    88   43  167 1    
    89   43  168 1    
    90   44   45 am   BACKBONE|DICT|INTERRES
    91   44  169 1    
    92   45   46 2    
    93   45   47 1    
    94   47   48 1    
    95   47   49 1    
    96   47  170 1    
    97   48  171 1    
    98   48  172 1    
    99   48  173 1    
   100   49   50 am   BACKBONE|DICT|INTERRES
   101   49  174 1    
   102   50   51 2    
   103   50   52 1    
   104   52   53 1    
   105   52   54 1    
   106   52  175 1    
   107   53  176 1    
   108   53  177 1    
   109   53  178 1    
   110   54   55 am   BACKBONE|DICT|INTERRES
   111   54  179 1    
   112   55   56 2    
   113   55   57 1    
   114   57   58 1    
   115   57   59 1    
   116   57  180 1    
   117   58  181 1    
   118   58  182 1    
   119   58  183 1    
   120   59   60 am   BACKBONE|DICT|INTERRES
   121   59  184 1    
   122   60   61 2    
   123   60   62 1    
   124   62   63 1    
   125   62   64 1    
   126   62  185 1    
   127   63  186 1    
   128   63  187 1    
   129   63  188 1    
   130   64   65 am   BACKBONE|DICT|INTERRES
   131   64  189 1    
   132   65   66 2    
   133   67   68 2    
   134   67   69 am   BACKBONE|DICT|INTERRES
   135   69   70 1    
   136   69  190 1    
   137   70   71 1    
   138   70   72 1    
   139   70  191 1    
   140   71  192 1    
   141   71  193 1    
   142   71  194 1    
   143   72   73 2    
   144   72   74 am   BACKBONE|DICT|INTERRES
   145   74   75 1    
   146   74  195 1    
   147   75   76 1    
   148   75   77 1    
   149   75  196 1    
   150   76  197 1    
   151   76  198 1    
   152   76  199 1    
   153   77   78 2    
   154   77   79 am   BACKBONE|DICT|INTERRES
   155   79   80 1    
   156   79  200 1    
   157   80   81 1    
   158   80   82 1    
   159   80  201 1    
   160   81  202 1    
   161   81  203 1    
   162   81  204 1    
   163   82   83 2    
   164   82   84 am   BACKBONE|DICT|INTERRES
   165   84   85 1    
   166   84  205 1    
   167   85   86 1    
   168   85   87 1    
   169   85  206 1    
   170   86  207 1    
   171   86  208 1    
   172   86  209 1    
   173   87   88 2    
   174   87   89 am   BACKBONE|DICT|INTERRES
   175   89   90 1    
   176   89  210 1    
   177   90   91 1    
   178   90   92 1    
   179   90  211 1    
   180   91  212 1    
   181   91  213 1    
   182   91  214 1    
   183   92   93 2    
   184   92   94 am   BACKBONE|DICT|INTERRES
   185   94   95 1    
   186   94  215 1    
   187   95   96 1    
   188   95   97 1    
   189   95  216 1    
   190   96  217 1    
   191   96  218 1    
   192   96  219 1    
   193   97   98 2    
   194   97   99 am   BACKBONE|DICT|INTERRES
   195   99  100 1    
   196   99  220 1    
   197  100  101 1    
   198  100  102 1    
   199  100  221 1    
   200  101  222 1    
   201  101  223 1    
   202  101  224 1    
   203  102  103 2    
   204  102  104 am   BACKBONE|DICT|INTERRES
   205  104  105 1    
   206  104  225 1    
   207  105  106 1    
   208  105  107 1    
   209  105  226 1    
   210  106  227 1    
   211  106  228 1    
   212  106  229 1    
   213  107  108 2    
   214  107  109 am   BACKBONE|DICT|INTERRES
   215  109  110 1    
   216  109  230 1    
   217  110  111 1    
   218  110  112 1    
   219  110  231 1    
   220  111  232 1    
   221  111  233 1    
   222  111  234 1    
   223  112  113 2    
   224  112  114 am   BACKBONE|DICT|INTERRES
   225  114  115 1    
   226  114  235 1    
   227  115  116 1    
   228  115  117 1    
   229  115  236 1    
   230  116  237 1    
   231  116  238 1    
   232  116  239 1    
   233  117  118 2    
   234  117  119 am   BACKBONE|DICT|INTERRES
   235  119  120 1    
   236  119  240 1    
   237  120  121 1    
   238  120  124 1    
   239  120  241 1    
   240  121  122 am   BACKBONE|DICT|INTERRES
   241  121  123 2    
   242  122  242 1    
   243  122  243 1    
   244  124  125 1    
   245  124  244 1    
   246  124  245 1    
   247  125  126 1    
   248  126  246 1    
   249  126  247 1    
@<TRIPOS>SUBSTRUCTURE
     1 UNK         1 GROUP             0       ****    0 ROOT    
