@<TRIPOS>MOLECULE
3R540
247   249    1
SMALL
USER_CHARGES


@<TRIPOS>ATOM
      1 CA          0.6252  -16.4451  -48.5501 C.3       0 UNK        -0.1800 
      2 C          -0.2403  -16.2106  -49.7857 C.2       0 UNK         0.5000 
      3 O          -0.1050  -16.9416  -50.7651 O.2       0 UNK        -0.5000 
      4 N          -1.1474  -15.2253  -49.7942 N.am      1 UNK        -0.5000 
      5 CA         -1.3805  -14.2020  -48.7733 C.3       1 UNK         0.1400 
      6 C6         -2.6737  -13.4142  -49.0877 C.3       23 UNK        -0.0398 
      7 S7         -3.3439  -12.4770  -47.6677 S.3       23 UNK        -0.2404 
      8 C8         -4.1023  -13.7666  -46.6172 C.3       23 UNK        -0.0205 
      9 C9         -4.9281  -14.7825  -47.3961 C.ar      23 UNK        -0.0193 
     10 C10        -5.9917  -14.3692  -48.2049 C.ar      23 UNK        -0.1150 
     11 C11        -6.7097  -15.2959  -48.9675 C.ar      23 UNK        -0.0193 
     12 C12        -6.3822  -16.6522  -48.8809 C.ar      23 UNK        -0.1150 
     13 C13        -5.3194  -17.0768  -48.0792 C.ar      23 UNK        -0.0193 
     14 C14        -4.6013  -16.1394  -47.3331 C.ar      23 UNK        -0.1150 
     15 C15        -4.9297  -18.5435  -48.0402 C.3       23 UNK        -0.0205 
     16 S16        -3.3762  -18.8333  -48.9469 S.3       23 UNK        -0.2404 
     17 C17        -2.2088  -19.1866  -47.5897 C.3       23 UNK        -0.0398 
     18 CA         -2.0135  -20.7056  -47.3599 C.3       11 UNK         0.1400 
     19 N          -0.8190  -20.9934  -46.5642 N.am      11 UNK        -0.5000 
     20 C          -0.3131  -22.2186  -46.3633 C.2       10 UNK         0.5000 
     21 O          -0.7487  -23.2362  -46.9033 O.2       10 UNK        -0.5000 
     22 CA          0.8375  -22.3350  -45.3464 C.3       10 UNK         0.1400 
     23 CB          2.1876  -22.0190  -46.0059 C.3       10 UNK        -0.1800 
     24 N           0.6426  -21.4784  -44.1732 N.am      10 UNK        -0.5000 
     25 C          -0.3687  -21.6120  -43.3022 C.2       9 UNK         0.5000 
     26 O          -1.2112  -22.5042  -43.3725 O.2       9 UNK        -0.5000 
     27 CA         -0.4968  -20.5525  -42.1945 C.3       9 UNK         0.1400 
     28 CB          0.4564  -20.8633  -41.0315 C.3       9 UNK        -0.1800 
     29 N          -0.2685  -19.1920  -42.6812 N.am      9 UNK        -0.5000 
     30 C          -1.0332  -18.5659  -43.5878 C.2       8 UNK         0.5000 
     31 O          -2.0480  -19.0573  -44.0821 O.2       8 UNK        -0.5000 
     32 CA         -0.5468  -17.1871  -44.0752 C.3       8 UNK         0.1400 
     33 CB         -0.9056  -16.0808  -43.0732 C.3       8 UNK        -0.1800 
     34 N           0.8926  -17.1664  -44.3361 N.am      8 UNK        -0.5000 
     35 C           1.5008  -17.9253  -45.2589 C.2       7 UNK         0.5000 
     36 O           0.9012  -18.6743  -46.0305 O.2       7 UNK        -0.5000 
     37 CA          3.0370  -17.8789  -45.2850 C.3       7 UNK         0.1400 
     38 CB          3.5400  -16.6405  -46.0386 C.3       7 UNK        -0.1800 
     39 N           3.5980  -17.8923  -43.9345 N.am      7 UNK        -0.5000 
     40 C           3.5883  -18.9625  -43.1276 C.2       6 UNK         0.5000 
     41 O           3.1297  -20.0572  -43.4517 O.2       6 UNK        -0.5000 
     42 CA          4.1519  -18.7655  -41.7085 C.3       6 UNK         0.1400 
     43 CB          5.6797  -18.9219  -41.7066 C.3       6 UNK        -0.1800 
     44 N           3.7963  -17.4674  -41.1333 N.am      6 UNK        -0.5000 
     45 C           2.5468  -17.0922  -40.8249 C.2       5 UNK         0.5000 
     46 O           1.5616  -17.8129  -40.9707 O.2       5 UNK        -0.5000 
     47 CA          2.3592  -15.6543  -40.3109 C.3       5 UNK         0.1400 
     48 CB          2.5344  -15.5987  -38.7862 C.3       5 UNK        -0.1800 
     49 N           3.2631  -14.6889  -40.9404 N.am      5 UNK        -0.5000 
     50 C           3.2786  -14.4005  -42.2479 C.2       4 UNK         0.5000 
     51 O           2.5636  -14.9585  -43.0844 O.2       4 UNK        -0.5000 
     52 CA          4.2847  -13.3285  -42.6994 C.3       4 UNK         0.1400 
     53 CB          5.3474  -13.9356  -43.6290 C.3       4 UNK        -0.1800 
     54 N           3.6086  -12.2353  -43.3915 N.am      4 UNK        -0.5000 
     55 C           2.7891  -11.3468  -42.8111 C.2       3 UNK         0.5000 
     56 O           2.5783  -11.3041  -41.5981 O.2       3 UNK        -0.5000 
     57 CA          2.0939  -10.3256  -43.7355 C.3       3 UNK         0.1400 
     58 CB          2.8158   -8.9702  -43.6779 C.3       3 UNK        -0.1800 
     59 N           2.0195  -10.7651  -45.1319 N.am      3 UNK        -0.5000 
     60 C           1.2143  -11.7382  -45.5749 C.2       2 UNK         0.5000 
     61 O           0.4040  -12.3390  -44.8632 O.2       2 UNK        -0.5000 
     62 CA          1.3603  -12.1158  -47.0553 C.3       2 UNK         0.1400 
     63 CB          2.6975  -12.8382  -47.3126 C.3       2 UNK        -0.1800 
     64 N           0.2450  -12.9816  -47.4143 N.am      2 UNK        -0.5000 
     65 C          -0.1655  -13.2598  -48.6532 C.2       1 UNK         0.5000 
     66 O           0.3669  -12.8111  -49.6712 O.2       1 UNK        -0.5000 
     67 C          -3.2679  -21.3656  -46.7471 C.2       11 UNK         0.5000 
     68 O          -3.9954  -22.0570  -47.4591 O.2       11 UNK        -0.5000 
     69 N          -3.4778  -21.1783  -45.4352 N.am      12 UNK        -0.5000 
     70 CA         -4.5953  -21.7509  -44.6776 C.3       12 UNK         0.1400 
     71 CB         -4.5957  -21.1741  -43.2544 C.3       12 UNK        -0.1800 
     72 C          -4.5889  -23.2925  -44.6446 C.2       12 UNK         0.5000 
     73 O          -5.6520  -23.9079  -44.7297 O.2       12 UNK        -0.5000 
     74 N          -3.3909  -23.8859  -44.5632 N.am      13 UNK        -0.5000 
     75 CA         -3.1488  -25.3272  -44.6591 C.3       13 UNK         0.1400 
     76 CB         -1.7494  -25.6300  -44.1000 C.3       13 UNK        -0.1800 
     77 C          -3.2806  -25.8824  -46.0930 C.2       13 UNK         0.5000 
     78 O          -3.3023  -27.1027  -46.2590 O.2       13 UNK        -0.5000 
     79 N          -3.3543  -24.9904  -47.0920 N.am      14 UNK        -0.5000 
     80 CA         -3.4279  -25.2546  -48.5290 C.3       14 UNK         0.1400 
     81 CB         -4.7562  -25.9478  -48.8960 C.3       14 UNK        -0.1800 
     82 C          -2.1829  -25.9920  -49.0584 C.2       14 UNK         0.5000 
     83 O          -2.3072  -26.9421  -49.8348 O.2       14 UNK        -0.5000 
     84 N          -0.9945  -25.5289  -48.6431 N.am      15 UNK        -0.5000 
     85 CA          0.3024  -25.9919  -49.1399 C.3       15 UNK         0.1400 
     86 CB          1.4253  -25.2981  -48.3545 C.3       15 UNK        -0.1800 
     87 C           0.4266  -25.7083  -50.6478 C.2       15 UNK         0.5000 
     88 O           0.2677  -24.5565  -51.0581 O.2       15 UNK        -0.5000 
     89 N           0.6181  -26.7692  -51.4462 N.am      16 UNK        -0.5000 
     90 CA          0.5753  -26.7740  -52.9175 C.3       16 UNK         0.1400 
     91 CB          1.7958  -26.0306  -53.4993 C.3       16 UNK        -0.1800 
     92 C          -0.7679  -26.2475  -53.4771 C.2       16 UNK         0.5000 
     93 O          -0.7894  -25.5500  -54.4936 O.2       16 UNK        -0.5000 
     94 N          -1.8614  -26.5317  -52.7497 N.am      17 UNK        -0.5000 
     95 CA         -3.2294  -26.0385  -52.9539 C.3       17 UNK         0.1400 
     96 CB         -3.8158  -26.5904  -54.2704 C.3       17 UNK        -0.1800 
     97 C          -3.3513  -24.5007  -52.8603 C.2       17 UNK         0.5000 
     98 O          -4.3034  -23.9368  -53.4007 O.2       17 UNK        -0.5000 
     99 N          -2.3595  -23.8402  -52.2373 N.am      18 UNK        -0.5000 
    100 CA        -2.1396  -22.3886  -52.2094 C.3       18 UNK         0.1400 
    101 CB        -3.2208  -21.6929  -51.3595 C.3       18 UNK        -0.1800 
    102 C         -1.9952  -21.7722  -53.6215 C.2       18 UNK         0.5000 
    103 O         -2.3220  -20.6023  -53.8189 O.2       18 UNK        -0.5000 
    104 N         -1.5521  -22.5902  -54.5921 N.am      19 UNK        -0.5000 
    105 CA        -1.5164  -22.3205  -56.0341 C.3       19 UNK         0.1400 
    106 CB        -0.5061  -21.2010  -56.3612 C.3       19 UNK        -0.1800 
    107 C         -2.9136  -22.0667  -56.6500 C.2       19 UNK         0.5000 
    108 O         -3.0062  -21.4361  -57.7045 O.2       19 UNK        -0.5000 
    109 N         -3.9703  -22.5669  -55.9866 N.am      20 UNK        -0.5000 
    110 CA        -5.3915  -22.4140  -56.3161 C.3       20 UNK         0.1400 
    111 CB        -5.7337  -23.1595  -57.6230 C.3       20 UNK        -0.1800 
    112 C         -5.8612  -20.9423  -56.3118 C.2       20 UNK         0.5000 
    113 O         -6.7068  -20.5600  -57.1235 O.2       20 UNK        -0.5000 
    114 N         -5.3035  -20.1397  -55.3983 N.am      21 UNK        -0.5000 
    115 CA        -5.5649  -18.7125  -55.2457 C.3       21 UNK         0.1400 
    116 CB        -4.6852  -17.9306  -56.2423 C.3       21 UNK        -0.1800 
    117 C         -5.2895  -18.2931  -53.7921 C.2       21 UNK         0.5000 
    118 O         -4.9220  -19.1296  -52.9637 O.2       21 UNK        -0.5000 
    119 N         -5.4511  -16.9966  -53.5068 N.am      22 UNK        -0.5000 
    120 CA        -5.0714  -16.3542  -52.2375 C.3       22 UNK         0.1400 
    121 C         -3.5308  -16.1663  -52.1139 C.2       22 UNK         0.5000 
    122 N         -2.7576  -17.2420  -52.1526 N.am      22 UNK        -0.7600 
    123 O         -3.0266  -15.0548  -51.9767 O.2       22 UNK        -0.5000 
    124 C124       -5.8737  -15.0443  -52.0014 C.3       23 UNK        -0.0398 
    125 S125       -7.6290  -15.3975  -51.6304 S.3       23 UNK        -0.2404 
    126 C126       -7.8152  -14.8175  -49.9041 C.3       23 UNK        -0.0205 
    127 H127        0.0446  -16.3797  -47.6307 H         1 UNK         0.0600 
    128 H128        1.4364  -15.7188  -48.5088 H         1 UNK         0.0600 
    129 H129        1.0690  -17.4403  -48.5840 H         1 UNK         0.0600 
    130 H130       -1.7132  -15.1134  -50.6317 H         1 UNK         0.3000 
    131 H131       -1.5263  -14.7228  -47.8256 H         1 UNK         0.0600 
    132 H132       -2.5103  -12.7186  -49.9131 H         1 UNK         0.0800 
    133 H133       -3.4458  -14.0926  -49.4492 H         1 UNK         0.0800 
    134 H134       -4.7426  -13.2847  -45.8773 H         1 UNK         0.0800 
    135 H135       -3.3109  -14.2639  -46.0544 H         1 UNK         0.0800 
    136 H136       -6.2344  -13.3174  -48.2648 H         1 UNK         0.1150 
    137 H137       -6.9340  -17.3725  -49.4686 H         1 UNK         0.1150 
    138 H138       -3.7733  -16.4685  -46.7214 H         1 UNK         0.1150 
    139 H139       -4.8503  -18.8711  -47.0032 H         1 UNK         0.0800 
    140 H140       -5.7099  -19.1588  -48.4909 H         1 UNK         0.0800 
    141 H141       -2.5150  -18.6737  -46.6776 H         1 UNK         0.0800 
    142 H142       -1.2559  -18.7386  -47.8736 H         1 UNK         0.0800 
    143 H143       -1.8488  -21.1692  -48.3353 H         1 UNK         0.0600 
    144 H144       -0.3589  -20.2017  -46.1249 H         1 UNK         0.3000 
    145 H145        0.8666  -23.3700  -45.0000 H         1 UNK         0.0600 
    146 H146        3.0112  -22.1694  -45.3079 H         1 UNK         0.0600 
    147 H147        2.3667  -22.6689  -46.8626 H         1 UNK         0.0600 
    148 H148        2.2338  -20.9896  -46.3606 H         1 UNK         0.0600 
    149 H149        1.3352  -20.7530  -44.0177 H         1 UNK         0.3000 
    150 H150       -1.5181  -20.5974  -41.8115 H         1 UNK         0.0600 
    151 H151        0.2921  -21.8720  -40.6505 H         1 UNK         0.0600 
    152 H152        0.3023  -20.1740  -40.2013 H         1 UNK         0.0600 
    153 H153        1.5007  -20.7930  -41.3358 H         1 UNK         0.0600 
    154 H154        0.5195  -18.6945  -42.2746 H         1 UNK         0.3000 
    155 H155       -1.0570  -16.9695  -45.0159 H         1 UNK         0.0600 
    156 H156       -0.4250  -16.2395  -42.1078 H         1 UNK         0.0600 
    157 H157       -1.9822  -16.0440  -42.9026 H         1 UNK         0.0600 
    158 H158       -0.5991  -15.1011  -43.4415 H         1 UNK         0.0600 
    159 H159        1.4566  -16.5458  -43.7643 H         1 UNK         0.3000 
    160 H160        3.3927  -18.7654  -45.8143 H         1 UNK         0.0600 
    161 H161        4.6292  -16.6027  -46.0563 H         1 UNK         0.0600 
    162 H162        3.1788  -15.7208  -45.5804 H         1 UNK         0.0600 
    163 H163        3.1999  -16.6498  -47.0740 H         1 UNK         0.0600 
    164 H164        3.9368  -17.0130  -43.5733 H         1 UNK         0.3000 
    165 H165        3.7284  -19.5450  -41.0716 H         1 UNK         0.0600 
    166 H166        6.0807  -18.8634  -40.6945 H         1 UNK         0.0600 
    167 H167        5.9729  -19.8898  -42.1154 H         1 UNK         0.0600 
    168 H168        6.1659  -18.1512  -42.3061 H         1 UNK         0.0600 
    169 H169        4.5477  -16.8112  -40.9807 H         1 UNK         0.3000 
    170 H170        1.3368  -15.3522  -40.5470 H         1 UNK         0.0600 
    171 H171        1.8569  -16.2951  -38.2900 H         1 UNK         0.0600 
    172 H172        3.5503  -15.8593  -38.4867 H         1 UNK         0.0600 
    173 H173        2.3145  -14.6033  -38.3998 H         1 UNK         0.0600 
    174 H174        3.8774  -14.1805  -40.3206 H         1 UNK         0.3000 
    175 H175        4.7922  -12.9191  -41.8233 H         1 UNK         0.0600 
    176 H176        4.9096  -14.3104  -44.5545 H         1 UNK         0.0600 
    177 H177        6.1049  -13.1978  -43.8941 H         1 UNK         0.0600 
    178 H178        5.8609  -14.7683  -43.1467 H         1 UNK         0.0600 
    179 H179        3.7010  -12.2116  -44.3950 H         1 UNK         0.3000 
    180 H180        1.0768  -10.1861  -43.3628 H         1 UNK         0.0600 
    181 H181        3.8390   -9.0426  -44.0487 H         1 UNK         0.0600 
    182 H182        2.8635   -8.5959  -42.6544 H         1 UNK         0.0600 
    183 H183        2.2944   -8.2196  -44.2722 H         1 UNK         0.0600 
    184 H184        2.6486  -10.3120  -45.7794 H         1 UNK         0.3000 
    185 H185        1.3104  -11.2015  -47.6503 H         1 UNK         0.0600 
    186 H186        3.5474  -12.2042  -47.0588 H         1 UNK         0.0600 
    187 H187        2.7771  -13.7483  -46.7195 H         1 UNK         0.0600 
    188 H188        2.8087  -13.1142  -48.3612 H         1 UNK         0.0600 
    189 H189       -0.2651  -13.3251  -46.6087 H         1 UNK         0.3000 
    190 H190       -2.8467  -20.5705  -44.9186 H         1 UNK         0.3000 
    191 H191       -5.5183  -21.4374  -45.1697 H         1 UNK         0.0600 
    192 H192       -5.4442  -21.5493  -42.6810 H         1 UNK         0.0600 
    193 H193       -4.6677  -20.0864  -43.2694 H         1 UNK         0.0600 
    194 H194       -3.6889  -21.4418  -42.7121 H         1 UNK         0.0600 
    195 H195       -2.5723  -23.3035  -44.4036 H         1 UNK         0.3000 
    196 H196       -3.8847  -25.8428  -44.0390 H         1 UNK         0.0600 
    197 H197       -1.5429  -26.7008  -44.1133 H         1 UNK         0.0600 
    198 H198       -1.6559  -25.2949  -43.0669 H         1 UNK         0.0600 
    199 H199       -0.9710  -25.1377  -44.6841 H         1 UNK         0.0600 
    200 H200       -3.3251  -24.0084  -46.8453 H         1 UNK         0.3000 
    201 H201       -3.4261  -24.2789  -49.0163 H         1 UNK         0.0600 
    202 H202       -5.6093  -25.3918  -48.5070 H         1 UNK         0.0600 
    203 H203       -4.8086  -26.9629  -48.5017 H         1 UNK         0.0600 
    204 H204       -4.8784  -26.0105  -49.9773 H         1 UNK         0.0600 
    205 H205       -0.9742  -24.7292  -48.0134 H         1 UNK         0.3000 
    206 H206        0.3689  -27.0672  -48.9633 H         1 UNK         0.0600 
    207 H207        1.3345  -25.4857  -47.2844 H         1 UNK         0.0600 
    208 H208        2.4041  -25.6614  -48.6695 H         1 UNK         0.0600 
    209 H209        1.4105  -24.2184  -48.5073 H         1 UNK         0.0600 
    210 H210        0.7120  -27.6790  -51.0156 H         1 UNK         0.3000 
    211 H211        0.6444  -27.8177  -53.2273 H         1 UNK         0.0600 
    212 H212        1.7623  -24.9624  -53.2824 H         1 UNK         0.0600 
    213 H213        1.8413  -26.1418  -54.5833 H         1 UNK         0.0600 
    214 H214        2.7275  -26.4257  -53.0947 H         1 UNK         0.0600 
    215 H215       -1.7336  -27.0543  -51.8896 H         1 UNK         0.3000 
    216 H216       -3.8249  -26.4413  -52.1345 H         1 UNK         0.0600 
    217 H217       -4.8796  -26.3642  -54.3509 H         1 UNK         0.0600 
    218 H218       -3.7123  -27.6741  -54.3245 H         1 UNK         0.0600 
    219 H219       -3.3258  -26.1619  -55.1452 H         1 UNK         0.0600 
    220 H220       -1.5899  -24.3804  -51.8556 H         1 UNK         0.3000 
    221 H221       -1.1804  -22.2328  -51.7140 H         1 UNK         0.0600 
    222 H222       -4.2095  -21.7726  -51.8119 H         1 UNK         0.0600 
    223 H223       -3.2732  -22.1160  -50.3566 H         1 UNK         0.0600 
    224 H224       -3.0025  -20.6307  -51.2515 H         1 UNK         0.0600 
    225 H225       -1.3077  -23.5419  -54.3372 H         1 UNK         0.3000 
    226 H226       -1.1498  -23.2377  -56.4971 H         1 UNK         0.0600 
    227 H227       -0.3511  -21.1162  -57.4373 H         1 UNK         0.0600 
    228 H228       -0.8477  -20.2288  -56.0047 H         1 UNK         0.0600 
    229 H229        0.4655  -21.4023  -55.9102 H         1 UNK         0.0600 
    230 H230       -3.7987  -23.0509  -55.1109 H         1 UNK         0.3000 
    231 H231       -5.9395  -22.9033  -55.5097 H         1 UNK         0.0600 
    232 H232       -5.4013  -24.1968  -57.5831 H         1 UNK         0.0600 
    233 H233       -5.2698  -22.6909  -58.4913 H         1 UNK         0.0600 
    234 H234       -6.8105  -23.1721  -57.7954 H         1 UNK         0.0600 
    235 H235       -4.6411  -20.5157  -54.7289 H         1 UNK         0.3000 
    236 H236       -6.6183  -18.5115  -55.4508 H         1 UNK         0.0600 
    237 H237       -4.8689  -18.2498  -57.2683 H         1 UNK         0.0600 
    238 H238       -4.8853  -16.8598  -56.2018 H         1 UNK         0.0600 
    239 H239       -3.6243  -18.0774  -56.0344 H         1 UNK         0.0600 
    240 H240       -5.7524  -16.3720  -54.2396 H         1 UNK         0.3000 
    241 H241       -5.3298  -17.0358  -51.4256 H         1 UNK         0.0600 
    242 H242       -3.1759  -18.1554  -52.2866 H         1 UNK         0.3800 
    243 H243       -1.7602  -17.1582  -52.0008 H         1 UNK         0.3800 
    244 H244       -5.4474  -14.4635  -51.1826 H         1 UNK         0.0800 
    245 H245       -5.8187  -14.3978  -52.8783 H         1 UNK         0.0800 
    246 H246       -7.8613  -13.7274  -49.9147 H         1 UNK         0.0800 
    247 H247       -8.7761  -15.1605  -49.5189 H         1 UNK         0.0800 
@<TRIPOS>BOND
     1    1    2 1    
     2    1  127 1    
     3    1  128 1    
     4    1  129 1    
     5    2    3 2    
     6    2    4 am   BACKBONE|DICT|INTERRES
     7    4    5 1    
     8    4  130 1    
     9    5    6 1    
    10    5   65 1    
    11    5  131 1    
    12    6    7 1    
    13    6  132 1    
    14    6  133 1    
    15    7    8 1    
    16    8    9 1    
    17    8  134 1    
    18    8  135 1    
    19    9   10 ar   
    20    9   14 ar   
    21   10   11 ar   
    22   10  136 1    
    23   11   12 ar   
    24   11  126 1    
    25   12   13 ar   
    26   12  137 1    
    27   13   14 ar   
    28   13   15 1    
    29   14  138 1    
    30   15   16 1    
    31   15  139 1    
    32   15  140 1    
    33   16   17 1    
    34   17   18 1    
    35   17  141 1    
    36   17  142 1    
    37   18   19 1    
    38   18   67 1    
    39   18  143 1    
    40   19   20 am   BACKBONE|DICT|INTERRES
    41   19  144 1    
    42   20   21 2    
    43   20   22 1    
    44   22   23 1    
    45   22   24 1    
    46   22  145 1    
    47   23  146 1    
    48   23  147 1    
    49   23  148 1    
    50   24   25 am   BACKBONE|DICT|INTERRES
    51   24  149 1    
    52   25   26 2    
    53   25   27 1    
    54   27   28 1    
    55   27   29 1    
    56   27  150 1    
    57   28  151 1    
    58   28  152 1    
    59   28  153 1    
    60   29   30 am   BACKBONE|DICT|INTERRES
    61   29  154 1    
    62   30   31 2    
    63   30   32 1    
    64   32   33 1    
    65   32   34 1    
    66   32  155 1    
    67   33  156 1    
    68   33  157 1    
    69   33  158 1    
    70   34   35 am   BACKBONE|DICT|INTERRES
    71   34  159 1    
    72   35   36 2    
    73   35   37 1    
    74   37   38 1    
    75   37   39 1    
    76   37  160 1    
    77   38  161 1    
    78   38  162 1    
    79   38  163 1    
    80   39   40 am   BACKBONE|DICT|INTERRES
    81   39  164 1    
    82   40   41 2    
    83   40   42 1    
    84   42   43 1    
    85   42   44 1    
    86   42  165 1    
    87   43  166 1    
    88   43  167 1    
    89   43  168 1    
    90   44   45 am   BACKBONE|DICT|INTERRES
    91   44  169 1    
    92   45   46 2    
    93   45   47 1    
    94   47   48 1    
    95   47   49 1    
    96   47  170 1    
    97   48  171 1    
    98   48  172 1    
    99   48  173 1    
   100   49   50 am   BACKBONE|DICT|INTERRES
   101   49  174 1    
   102   50   51 2    
   103   50   52 1    
   104   52   53 1    
   105   52   54 1    
   106   52  175 1    
   107   53  176 1    
   108   53  177 1    
   109   53  178 1    
   110   54   55 am   BACKBONE|DICT|INTERRES
   111   54  179 1    
   112   55   56 2    
   113   55   57 1    
   114   57   58 1    
   115   57   59 1    
   116   57  180 1    
   117   58  181 1    
   118   58  182 1    
   119   58  183 1    
   120   59   60 am   BACKBONE|DICT|INTERRES
   121   59  184 1    
   122   60   61 2    
   123   60   62 1    
   124   62   63 1    
   125   62   64 1    
   126   62  185 1    
   127   63  186 1    
   128   63  187 1    
   129   63  188 1    
   130   64   65 am   BACKBONE|DICT|INTERRES
   131   64  189 1    
   132   65   66 2    
   133   67   68 2    
   134   67   69 am   BACKBONE|DICT|INTERRES
   135   69   70 1    
   136   69  190 1    
   137   70   71 1    
   138   70   72 1    
   139   70  191 1    
   140   71  192 1    
   141   71  193 1    
   142   71  194 1    
   143   72   73 2    
   144   72   74 am   BACKBONE|DICT|INTERRES
   145   74   75 1    
   146   74  195 1    
   147   75   76 1    
   148   75   77 1    
   149   75  196 1    
   150   76  197 1    
   151   76  198 1    
   152   76  199 1    
   153   77   78 2    
   154   77   79 am   BACKBONE|DICT|INTERRES
   155   79   80 1    
   156   79  200 1    
   157   80   81 1    
   158   80   82 1    
   159   80  201 1    
   160   81  202 1    
   161   81  203 1    
   162   81  204 1    
   163   82   83 2    
   164   82   84 am   BACKBONE|DICT|INTERRES
   165   84   85 1    
   166   84  205 1    
   167   85   86 1    
   168   85   87 1    
   169   85  206 1    
   170   86  207 1    
   171   86  208 1    
   172   86  209 1    
   173   87   88 2    
   174   87   89 am   BACKBONE|DICT|INTERRES
   175   89   90 1    
   176   89  210 1    
   177   90   91 1    
   178   90   92 1    
   179   90  211 1    
   180   91  212 1    
   181   91  213 1    
   182   91  214 1    
   183   92   93 2    
   184   92   94 am   BACKBONE|DICT|INTERRES
   185   94   95 1    
   186   94  215 1    
   187   95   96 1    
   188   95   97 1    
   189   95  216 1    
   190   96  217 1    
   191   96  218 1    
   192   96  219 1    
   193   97   98 2    
   194   97   99 am   BACKBONE|DICT|INTERRES
   195   99  100 1    
   196   99  220 1    
   197  100  101 1    
   198  100  102 1    
   199  100  221 1    
   200  101  222 1    
   201  101  223 1    
   202  101  224 1    
   203  102  103 2    
   204  102  104 am   BACKBONE|DICT|INTERRES
   205  104  105 1    
   206  104  225 1    
   207  105  106 1    
   208  105  107 1    
   209  105  226 1    
   210  106  227 1    
   211  106  228 1    
   212  106  229 1    
   213  107  108 2    
   214  107  109 am   BACKBONE|DICT|INTERRES
   215  109  110 1    
   216  109  230 1    
   217  110  111 1    
   218  110  112 1    
   219  110  231 1    
   220  111  232 1    
   221  111  233 1    
   222  111  234 1    
   223  112  113 2    
   224  112  114 am   BACKBONE|DICT|INTERRES
   225  114  115 1    
   226  114  235 1    
   227  115  116 1    
   228  115  117 1    
   229  115  236 1    
   230  116  237 1    
   231  116  238 1    
   232  116  239 1    
   233  117  118 2    
   234  117  119 am   BACKBONE|DICT|INTERRES
   235  119  120 1    
   236  119  240 1    
   237  120  121 1    
   238  120  124 1    
   239  120  241 1    
   240  121  122 am   BACKBONE|DICT|INTERRES
   241  121  123 2    
   242  122  242 1    
   243  122  243 1    
   244  124  125 1    
   245  124  244 1    
   246  124  245 1    
   247  125  126 1    
   248  126  246 1    
   249  126  247 1    
@<TRIPOS>SUBSTRUCTURE
     1 UNK         1 GROUP             0       ****    0 ROOT    
