@<TRIPOS>MOLECULE
3R540
247   249    1
SMALL
USER_CHARGES


@<TRIPOS>ATOM
      1 CA         -3.3941  -15.4009  -51.1178 C.3       0 UNK        -0.1800 
      2 C          -3.5244  -15.6137  -49.6182 C.2       0 UNK         0.5000 
      3 O          -2.5887  -16.1019  -48.9847 O.2       0 UNK        -0.5000 
      4 N          -4.6677  -15.2164  -49.0425 N.am      1 UNK        -0.5000 
      5 CA         -4.9872  -15.3585  -47.6156 C.3       1 UNK         0.1400 
      6 C6         -6.4379  -14.9246  -47.2622 C.3       23 UNK        -0.0398 
      7 S7         -7.7242  -15.4442  -48.4542 S.3       23 UNK        -0.2404 
      8 C8         -8.2925  -17.0299  -47.7646 C.3       23 UNK        -0.0205 
      9 C9         -7.2807  -18.1321  -48.0256 C.ar      23 UNK        -0.0193 
     10 C10        -7.1425  -18.6627  -49.3121 C.ar      23 UNK        -0.1150 
     11 C11        -6.1723  -19.6317  -49.5786 C.ar      23 UNK        -0.0193 
     12 C12        -5.3437  -20.0726  -48.5442 C.ar      23 UNK        -0.1150 
     13 C13        -5.4852  -19.5640  -47.2502 C.ar      23 UNK        -0.0193 
     14 C14        -6.4629  -18.6000  -46.9936 C.ar      23 UNK        -0.1150 
     15 C15        -4.5418  -20.0077  -46.1462 C.3       23 UNK        -0.0205 
     16 S16        -5.1812  -21.4175  -45.1948 S.3       23 UNK        -0.2404 
     17 C17        -3.7676  -21.6678  -44.0667 C.3       23 UNK        -0.0398 
     18 CA         -2.6816  -22.5882  -44.6867 C.3       11 UNK         0.1400 
     19 N          -1.3291  -22.0445  -44.5240 N.am      11 UNK        -0.5000 
     20 C          -0.2280  -22.5495  -45.1006 C.2       10 UNK         0.5000 
     21 O          -0.2459  -23.5103  -45.8676 O.2       10 UNK        -0.5000 
     22 CA          1.1284  -21.9286  -44.7161 C.3       10 UNK         0.1400 
     23 CB          1.6755  -21.0746  -45.8669 C.3       10 UNK        -0.1800 
     24 N           1.1172  -21.1358  -43.4814 N.am      10 UNK        -0.5000 
     25 C           0.8383  -21.6162  -42.2605 C.2       9 UNK         0.5000 
     26 O           0.4351  -22.7636  -42.0562 O.2       9 UNK        -0.5000 
     27 CA          1.0538  -20.6397  -41.0872 C.3       9 UNK         0.1400 
     28 CB          0.8393  -21.2973  -39.7083 C.3       9 UNK        -0.1800 
     29 N           2.3612  -19.9766  -41.1458 N.am      9 UNK        -0.5000 
     30 C           3.5769  -20.5429  -41.1517 C.2       8 UNK         0.5000 
     31 O           3.7683  -21.7597  -41.1149 O.2       8 UNK        -0.5000 
     32 CA          4.7791  -19.5719  -41.2194 C.3       8 UNK         0.1400 
     33 CB          6.1335  -20.2957  -41.1078 C.3       8 UNK        -0.1800 
     34 N           4.7879  -18.7547  -42.4370 N.am      8 UNK        -0.5000 
     35 C           3.9682  -17.7277  -42.6923 C.2       7 UNK         0.5000 
     36 O           3.0781  -17.3721  -41.9158 O.2       7 UNK        -0.5000 
     37 CA          4.1738  -17.0065  -44.0417 C.3       7 UNK         0.1400 
     38 CB          3.7999  -17.9235  -45.2179 C.3       7 UNK        -0.1800 
     39 N           3.3777  -15.7846  -44.1389 N.am      7 UNK        -0.5000 
     40 C           3.5845  -14.6646  -43.4340 C.2       6 UNK         0.5000 
     41 O           4.5785  -14.4675  -42.7328 O.2       6 UNK        -0.5000 
     42 CA          2.4804  -13.5938  -43.5093 C.3       6 UNK         0.1400 
     43 CB          2.7182  -12.6495  -44.6976 C.3       6 UNK        -0.1800 
     44 N           1.1424  -14.1822  -43.6093 N.am      6 UNK        -0.5000 
     45 C           0.5096  -14.8112  -42.6074 C.2       5 UNK         0.5000 
     46 O           0.9449  -14.8711  -41.4572 O.2       5 UNK        -0.5000 
     47 CA         -0.8391  -15.4802  -42.9352 C.3       5 UNK         0.1400 
     48 CB         -1.9952  -14.4864  -42.7477 C.3       5 UNK        -0.1800 
     49 N          -0.8863  -16.0278  -44.2909 N.am      5 UNK        -0.5000 
     50 C          -0.2691  -17.1519  -44.6816 C.2       4 UNK         0.5000 
     51 O           0.3472  -17.9017  -43.9230 O.2       4 UNK        -0.5000 
     52 CA         -0.3442  -17.4977  -46.1809 C.3       4 UNK         0.1400 
     53 CB         -1.5671  -18.3751  -46.4662 C.3       4 UNK        -0.1800 
     54 N          -0.3750  -16.3222  -47.0494 N.am      4 UNK        -0.5000 
     55 C           0.6475  -15.4678  -47.1893 C.2       3 UNK         0.5000 
     56 O           1.7295  -15.5971  -46.6175 O.2       3 UNK        -0.5000 
     57 CA          0.3934  -14.2294  -48.0636 C.3       3 UNK         0.1400 
     58 CB          0.5058  -14.5715  -49.5577 C.3       3 UNK        -0.1800 
     59 N          -0.9114  -13.6284  -47.7834 N.am      3 UNK        -0.5000 
     60 C          -1.2263  -13.0182  -46.6316 C.2       2 UNK         0.5000 
     61 O          -0.4381  -12.8776  -45.6986 O.2       2 UNK        -0.5000 
     62 CA         -2.6686  -12.5062  -46.4792 C.3       2 UNK         0.1400 
     63 CB         -2.7960  -11.0802  -47.0347 C.3       2 UNK        -0.1800 
     64 N          -3.6462  -13.3702  -47.1379 N.am      2 UNK        -0.5000 
     65 C          -3.9799  -14.6017  -46.7245 C.2       1 UNK         0.5000 
     66 O          -3.5055  -15.1438  -45.7259 O.2       1 UNK        -0.5000 
     67 C          -2.8088  -24.0518  -44.2051 C.2       11 UNK         0.5000 
     68 O          -3.5965  -24.8127  -44.7703 O.2       11 UNK        -0.5000 
     69 N          -1.9918  -24.4356  -43.2115 N.am      12 UNK        -0.5000 
     70 CA         -1.8884  -25.8032  -42.7021 C.3       12 UNK         0.1400 
     71 CB         -1.1078  -25.7863  -41.3794 C.3       12 UNK        -0.1800 
     72 C          -1.2356  -26.7816  -43.6998 C.2       12 UNK         0.5000 
     73 O          -1.4874  -27.9836  -43.6124 O.2       12 UNK        -0.5000 
     74 N          -0.4380  -26.2672  -44.6467 N.am      13 UNK        -0.5000 
     75 CA          0.2344  -27.0350  -45.6953 C.3       13 UNK         0.1400 
     76 CB          1.6027  -26.3920  -45.9895 C.3       13 UNK        -0.1800 
     77 C          -0.6577  -27.1511  -46.9482 C.2       13 UNK         0.5000 
     78 O          -0.2108  -26.8510  -48.0563 O.2       13 UNK        -0.5000 
     79 N          -1.9098  -27.5859  -46.7370 N.am      14 UNK        -0.5000 
     80 CA         -2.9697  -27.7755  -47.7331 C.3       14 UNK         0.1400 
     81 CB         -2.6272  -28.9503  -48.6735 C.3       14 UNK        -0.1800 
     82 C          -3.3063  -26.4727  -48.4874 C.2       14 UNK         0.5000 
     83 O          -3.2509  -26.4326  -49.7186 O.2       14 UNK        -0.5000 
     84 N          -3.6229  -25.4212  -47.7183 N.am      15 UNK        -0.5000 
     85 CA         -3.9550  -24.0520  -48.1311 C.3       15 UNK         0.1400 
     86 CB         -5.1493  -24.0127  -49.1049 C.3       15 UNK        -0.1800 
     87 C          -2.7518  -23.2532  -48.6696 C.2       15 UNK         0.5000 
     88 O          -2.5233  -22.1356  -48.2093 O.2       15 UNK        -0.5000 
     89 N          -2.0055  -23.8333  -49.6188 N.am      16 UNK        -0.5000 
     90 CA         -0.8697  -23.2363  -50.3282 C.3       16 UNK         0.1400 
     91 CB          0.3324  -23.0746  -49.3695 C.3       16 UNK        -0.1800 
     92 C          -1.2673  -21.9328  -51.0632 C.2       16 UNK         0.5000 
     93 O          -2.3989  -21.8364  -51.5427 O.2       16 UNK        -0.5000 
     94 N          -0.3308  -20.9739  -51.1611 N.am      17 UNK        -0.5000 
     95 CA         -0.5007  -19.6098  -51.6882 C.3       17 UNK         0.1400 
     96 CB         -1.3512  -18.7717  -50.7142 C.3       17 UNK        -0.1800 
     97 C          -1.0057  -19.5355  -53.1476 C.2       17 UNK         0.5000 
     98 O          -1.6408  -18.5523  -53.5420 O.2       17 UNK        -0.5000 
     99 N          -0.6981  -20.5753  -53.9364 N.am      18 UNK        -0.5000 
    100 CA        -1.1539  -20.7520  -55.3152 C.3       18 UNK         0.1400 
    101 CB        -0.7358  -22.1398  -55.8222 C.3       18 UNK        -0.1800 
    102 C         -0.6607  -19.6457  -56.2612 C.2       18 UNK         0.5000 
    103 O         -1.4510  -19.1038  -57.0350 O.2       18 UNK        -0.5000 
    104 N          0.6286  -19.3056  -56.1391 N.am      19 UNK        -0.5000 
    105 CA         1.2796  -18.2388  -56.8989 C.3       19 UNK         0.1400 
    106 CB         2.8025  -18.4217  -56.8075 C.3       19 UNK        -0.1800 
    107 C          0.8773  -16.8282  -56.4279 C.2       19 UNK         0.5000 
    108 O          0.9951  -15.8809  -57.2062 O.2       19 UNK        -0.5000 
    109 N          0.4241  -16.7070  -55.1713 N.am      20 UNK        -0.5000 
    110 CA        -0.0331  -15.4500  -54.5841 C.3       20 UNK         0.1400 
    111 CB         0.0104  -15.5337  -53.0508 C.3       20 UNK        -0.1800 
    112 C         -1.4350  -15.0704  -55.0873 C.2       20 UNK         0.5000 
    113 O         -1.6241  -13.9315  -55.5174 O.2       20 UNK        -0.5000 
    114 N         -2.3762  -16.0263  -55.0577 N.am      21 UNK        -0.5000 
    115 CA        -3.7387  -15.8390  -55.5679 C.3       21 UNK         0.1400 
    116 CB        -4.5455  -14.8900  -54.6573 C.3       21 UNK        -0.1800 
    117 C         -4.5268  -17.1471  -55.7389 C.2       21 UNK         0.5000 
    118 O         -5.4497  -17.1703  -56.5548 O.2       21 UNK        -0.5000 
    119 N         -4.2157  -18.1853  -54.9506 N.am      22 UNK        -0.5000 
    120 CA        -5.0602  -19.3882  -54.8200 C.3       22 UNK         0.1400 
    121 C         -5.0734  -20.3506  -56.0462 C.2       22 UNK         0.5000 
    122 N         -4.2189  -20.1849  -57.0479 N.am      22 UNK        -0.7600 
    123 O         -5.8917  -21.2648  -56.0958 O.2       22 UNK        -0.5000 
    124 C124       -4.7711  -20.1556  -53.5047 C.3       23 UNK        -0.0398 
    125 S125       -4.9757  -19.1165  -52.0154 S.3       23 UNK        -0.2404 
    126 C126       -6.0115  -20.1951  -50.9816 C.3       23 UNK        -0.0205 
    127 H127       -3.4383  -16.3561  -51.6411 H         1 UNK         0.0600 
    128 H128       -2.4415  -14.9258  -51.3489 H         1 UNK         0.0600 
    129 H129       -4.1899  -14.7600  -51.4958 H         1 UNK         0.0600 
    130 H130       -5.4125  -14.8459  -49.6156 H         1 UNK         0.3000 
    131 H131       -4.8814  -16.4182  -47.3811 H         1 UNK         0.0600 
    132 H132       -6.7040  -15.2869  -46.2678 H         1 UNK         0.0800 
    133 H133       -6.5058  -13.8365  -47.2059 H         1 UNK         0.0800 
    134 H134       -9.2417  -17.2977  -48.2311 H         1 UNK         0.0800 
    135 H135       -8.4957  -16.9228  -46.6980 H         1 UNK         0.0800 
    136 H136       -7.7723  -18.3006  -50.1126 H         1 UNK         0.1150 
    137 H137       -4.5761  -20.8011  -48.7537 H         1 UNK         0.1150 
    138 H138       -6.5628  -18.1906  -45.9981 H         1 UNK         0.1150 
    139 H139       -3.5830  -20.2871  -46.5826 H         1 UNK         0.0800 
    140 H140       -4.3485  -19.1734  -45.4704 H         1 UNK         0.0800 
    141 H141       -4.1422  -22.0591  -43.1188 H         1 UNK         0.0800 
    142 H142       -3.3565  -20.6873  -43.8219 H         1 UNK         0.0800 
    143 H143       -2.8322  -22.6183  -45.7619 H         1 UNK         0.0600 
    144 H144       -1.2172  -21.2691  -43.8887 H         1 UNK         0.3000 
    145 H145        1.8197  -22.7590  -44.5580 H         1 UNK         0.0600 
    146 H146        2.6698  -20.6923  -45.6383 H         1 UNK         0.0600 
    147 H147        1.7591  -21.6609  -46.7828 H         1 UNK         0.0600 
    148 H148        1.0227  -20.2303  -46.0785 H         1 UNK         0.0600 
    149 H149        1.3931  -20.1663  -43.5619 H         1 UNK         0.3000 
    150 H150        0.3047  -19.8546  -41.1999 H         1 UNK         0.0600 
    151 H151       -0.1701  -21.7010  -39.6209 H         1 UNK         0.0600 
    152 H152        0.9701  -20.5749  -38.9027 H         1 UNK         0.0600 
    153 H153        1.5353  -22.1193  -39.5379 H         1 UNK         0.0600 
    154 H154        2.3392  -18.9641  -41.2512 H         1 UNK         0.3000 
    155 H155        4.6949  -18.9044  -40.3591 H         1 UNK         0.0600 
    156 H156        6.2999  -20.9721  -41.9472 H         1 UNK         0.0600 
    157 H157        6.1879  -20.8866  -40.1926 H         1 UNK         0.0600 
    158 H158        6.9597  -19.5848  -41.0809 H         1 UNK         0.0600 
    159 H159        5.4743  -19.0104  -43.1319 H         1 UNK         0.3000 
    160 H160        5.2284  -16.7373  -44.1262 H         1 UNK         0.0600 
    161 H161        2.7564  -18.2329  -45.1662 H         1 UNK         0.0600 
    162 H162        4.4118  -18.8257  -45.2318 H         1 UNK         0.0600 
    163 H163        3.9492  -17.4193  -46.1729 H         1 UNK         0.0600 
    164 H164        2.5554  -15.8306  -44.7294 H         1 UNK         0.3000 
    165 H165        2.5270  -13.0023  -42.5926 H         1 UNK         0.0600 
    166 H166        1.9846  -11.8434  -44.7127 H         1 UNK         0.0600 
    167 H167        3.7054  -12.1896  -44.6397 H         1 UNK         0.0600 
    168 H168        2.6561  -13.1763  -45.6502 H         1 UNK         0.0600 
    169 H169        0.6730  -14.0895  -44.5033 H         1 UNK         0.3000 
    170 H170       -0.9818  -16.3012  -42.2292 H         1 UNK         0.0600 
    171 H171       -1.9133  -13.6404  -43.4303 H         1 UNK         0.0600 
    172 H172       -2.9590  -14.9651  -42.9216 H         1 UNK         0.0600 
    173 H173       -2.0075  -14.0889  -41.7322 H         1 UNK         0.0600 
    174 H174       -1.4323  -15.5138  -44.9711 H         1 UNK         0.3000 
    175 H175        0.5530  -18.0633  -46.4335 H         1 UNK         0.0600 
    176 H176       -2.4947  -17.8276  -46.2959 H         1 UNK         0.0600 
    177 H177       -1.5744  -18.7280  -47.4966 H         1 UNK         0.0600 
    178 H178       -1.5715  -19.2549  -45.8219 H         1 UNK         0.0600 
    179 H179       -1.2236  -16.1671  -47.5881 H         1 UNK         0.3000 
    180 H180        1.1630  -13.4910  -47.8284 H         1 UNK         0.0600 
    181 H181        0.3542  -13.6877  -50.1773 H         1 UNK         0.0600 
    182 H182       -0.2221  -15.3236  -49.8618 H         1 UNK         0.0600 
    183 H183        1.4954  -14.9657  -49.7914 H         1 UNK         0.0600 
    184 H184       -1.6310  -13.7562  -48.4788 H         1 UNK         0.3000 
    185 H185       -2.9018  -12.4783  -45.4128 H         1 UNK         0.0600 
    186 H186       -3.7959  -10.6794  -46.8669 H         1 UNK         0.0600 
    187 H187       -2.0910  -10.4069  -46.5451 H         1 UNK         0.0600 
    188 H188       -2.5944  -11.0441  -48.1061 H         1 UNK         0.0600 
    189 H189       -4.0724  -13.0142  -47.9811 H         1 UNK         0.3000 
    190 H190       -1.3370  -23.7645  -42.8248 H         1 UNK         0.3000 
    191 H191       -2.8977  -26.1665  -42.4977 H         1 UNK         0.0600 
    192 H192       -1.0583  -26.7842  -40.9417 H         1 UNK         0.0600 
    193 H193       -1.5835  -25.1336  -40.6473 H         1 UNK         0.0600 
    194 H194       -0.0835  -25.4396  -41.5219 H         1 UNK         0.0600 
    195 H195       -0.3558  -25.2602  -44.7253 H         1 UNK         0.3000 
    196 H196        0.4229  -28.0504  -45.3409 H         1 UNK         0.0600 
    197 H197        1.5003  -25.3931  -46.4139 H         1 UNK         0.0600 
    198 H198        2.2041  -26.3116  -45.0840 H         1 UNK         0.0600 
    199 H199        2.1693  -26.9922  -46.7024 H         1 UNK         0.0600 
    200 H200       -2.1632  -27.8016  -45.7810 H         1 UNK         0.3000 
    201 H201       -3.8690  -28.0512  -47.1803 H         1 UNK         0.0600 
    202 H202       -3.4535  -29.1576  -49.3543 H         1 UNK         0.0600 
    203 H203       -2.4352  -29.8631  -48.1096 H         1 UNK         0.0600 
    204 H204       -1.7472  -28.7417  -49.2828 H         1 UNK         0.0600 
    205 H205       -3.5896  -25.5463  -46.7115 H         1 UNK         0.3000 
    206 H206       -4.2882  -23.5526  -47.2222 H         1 UNK         0.0600 
    207 H207       -5.9951  -24.5793  -48.7156 H         1 UNK         0.0600 
    208 H208       -5.4897  -22.9888  -49.2556 H         1 UNK         0.0600 
    209 H209       -4.8961  -24.4150  -50.0859 H         1 UNK         0.0600 
    210 H210       -2.2923  -24.7585  -49.9243 H         1 UNK         0.3000 
    211 H211       -0.5870  -23.9515  -51.1014 H         1 UNK         0.0600 
    212 H212        1.2470  -22.8304  -49.9100 H         1 UNK         0.0600 
    213 H213        0.5231  -23.9996  -48.8240 H         1 UNK         0.0600 
    214 H214        0.1588  -22.2911  -48.6307 H         1 UNK         0.0600 
    215 H215        0.5735  -21.1671  -50.7545 H         1 UNK         0.3000 
    216 H216        0.4952  -19.1656  -51.7074 H         1 UNK         0.0600 
    217 H217       -2.3567  -19.1764  -50.5999 H         1 UNK         0.0600 
    218 H218       -1.4497  -17.7404  -51.0489 H         1 UNK         0.0600 
    219 H219       -0.8921  -18.7396  -49.7273 H         1 UNK         0.0600 
    220 H220       -0.1769  -21.3378  -53.5300 H         1 UNK         0.3000 
    221 H221       -2.2414  -20.7167  -55.3013 H         1 UNK         0.0600 
    222 H222        0.3477  -22.2639  -55.8183 H         1 UNK         0.0600 
    223 H223       -1.0823  -22.3018  -56.8438 H         1 UNK         0.0600 
    224 H224       -1.1667  -22.9294  -55.2061 H         1 UNK         0.0600 
    225 H225        1.1983  -19.8020  -55.4696 H         1 UNK         0.3000 
    226 H226        0.9866  -18.3322  -57.9469 H         1 UNK         0.0600 
    227 H227        3.1562  -18.3483  -55.7783 H         1 UNK         0.0600 
    228 H228        3.1078  -19.3918  -57.2002 H         1 UNK         0.0600 
    229 H229        3.3233  -17.6593  -57.3885 H         1 UNK         0.0600 
    230 H230        0.3123  -17.5403  -54.6138 H         1 UNK         0.3000 
    231 H231        0.6567  -14.6588  -54.8866 H         1 UNK         0.0600 
    232 H232       -0.6892  -16.2717  -52.6637 H         1 UNK         0.0600 
    233 H233       -0.2518  -14.5732  -52.6061 H         1 UNK         0.0600 
    234 H234        1.0070  -15.7949  -52.6949 H         1 UNK         0.0600 
    235 H235       -2.1292  -16.9450  -54.7065 H         1 UNK         0.3000 
    236 H236       -3.6623  -15.3871  -56.5592 H         1 UNK         0.0600 
    237 H237       -4.7044  -15.3310  -53.6745 H         1 UNK         0.0600 
    238 H238       -4.0575  -13.9257  -54.5207 H         1 UNK         0.0600 
    239 H239       -5.5298  -14.6895  -55.0823 H         1 UNK         0.0600 
    240 H240       -3.4431  -18.1259  -54.2973 H         1 UNK         0.3000 
    241 H241       -6.0896  -19.0321  -54.7429 H         1 UNK         0.0600 
    242 H242       -4.2617  -20.8086  -57.8377 H         1 UNK         0.3800 
    243 H243       -3.5103  -19.4619  -57.0223 H         1 UNK         0.3800 
    244 H244       -3.7574  -20.5535  -53.5059 H         1 UNK         0.0800 
    245 H245       -5.4297  -21.0218  -53.4217 H         1 UNK         0.0800 
    246 H246       -6.9895  -20.3194  -51.4487 H         1 UNK         0.0800 
    247 H247       -5.5579  -21.1866  -50.9359 H         1 UNK         0.0800 
@<TRIPOS>BOND
     1    1    2 1    
     2    1  127 1    
     3    1  128 1    
     4    1  129 1    
     5    2    3 2    
     6    2    4 am   BACKBONE|DICT|INTERRES
     7    4    5 1    
     8    4  130 1    
     9    5    6 1    
    10    5   65 1    
    11    5  131 1    
    12    6    7 1    
    13    6  132 1    
    14    6  133 1    
    15    7    8 1    
    16    8    9 1    
    17    8  134 1    
    18    8  135 1    
    19    9   10 ar   
    20    9   14 ar   
    21   10   11 ar   
    22   10  136 1    
    23   11   12 ar   
    24   11  126 1    
    25   12   13 ar   
    26   12  137 1    
    27   13   14 ar   
    28   13   15 1    
    29   14  138 1    
    30   15   16 1    
    31   15  139 1    
    32   15  140 1    
    33   16   17 1    
    34   17   18 1    
    35   17  141 1    
    36   17  142 1    
    37   18   19 1    
    38   18   67 1    
    39   18  143 1    
    40   19   20 am   BACKBONE|DICT|INTERRES
    41   19  144 1    
    42   20   21 2    
    43   20   22 1    
    44   22   23 1    
    45   22   24 1    
    46   22  145 1    
    47   23  146 1    
    48   23  147 1    
    49   23  148 1    
    50   24   25 am   BACKBONE|DICT|INTERRES
    51   24  149 1    
    52   25   26 2    
    53   25   27 1    
    54   27   28 1    
    55   27   29 1    
    56   27  150 1    
    57   28  151 1    
    58   28  152 1    
    59   28  153 1    
    60   29   30 am   BACKBONE|DICT|INTERRES
    61   29  154 1    
    62   30   31 2    
    63   30   32 1    
    64   32   33 1    
    65   32   34 1    
    66   32  155 1    
    67   33  156 1    
    68   33  157 1    
    69   33  158 1    
    70   34   35 am   BACKBONE|DICT|INTERRES
    71   34  159 1    
    72   35   36 2    
    73   35   37 1    
    74   37   38 1    
    75   37   39 1    
    76   37  160 1    
    77   38  161 1    
    78   38  162 1    
    79   38  163 1    
    80   39   40 am   BACKBONE|DICT|INTERRES
    81   39  164 1    
    82   40   41 2    
    83   40   42 1    
    84   42   43 1    
    85   42   44 1    
    86   42  165 1    
    87   43  166 1    
    88   43  167 1    
    89   43  168 1    
    90   44   45 am   BACKBONE|DICT|INTERRES
    91   44  169 1    
    92   45   46 2    
    93   45   47 1    
    94   47   48 1    
    95   47   49 1    
    96   47  170 1    
    97   48  171 1    
    98   48  172 1    
    99   48  173 1    
   100   49   50 am   BACKBONE|DICT|INTERRES
   101   49  174 1    
   102   50   51 2    
   103   50   52 1    
   104   52   53 1    
   105   52   54 1    
   106   52  175 1    
   107   53  176 1    
   108   53  177 1    
   109   53  178 1    
   110   54   55 am   BACKBONE|DICT|INTERRES
   111   54  179 1    
   112   55   56 2    
   113   55   57 1    
   114   57   58 1    
   115   57   59 1    
   116   57  180 1    
   117   58  181 1    
   118   58  182 1    
   119   58  183 1    
   120   59   60 am   BACKBONE|DICT|INTERRES
   121   59  184 1    
   122   60   61 2    
   123   60   62 1    
   124   62   63 1    
   125   62   64 1    
   126   62  185 1    
   127   63  186 1    
   128   63  187 1    
   129   63  188 1    
   130   64   65 am   BACKBONE|DICT|INTERRES
   131   64  189 1    
   132   65   66 2    
   133   67   68 2    
   134   67   69 am   BACKBONE|DICT|INTERRES
   135   69   70 1    
   136   69  190 1    
   137   70   71 1    
   138   70   72 1    
   139   70  191 1    
   140   71  192 1    
   141   71  193 1    
   142   71  194 1    
   143   72   73 2    
   144   72   74 am   BACKBONE|DICT|INTERRES
   145   74   75 1    
   146   74  195 1    
   147   75   76 1    
   148   75   77 1    
   149   75  196 1    
   150   76  197 1    
   151   76  198 1    
   152   76  199 1    
   153   77   78 2    
   154   77   79 am   BACKBONE|DICT|INTERRES
   155   79   80 1    
   156   79  200 1    
   157   80   81 1    
   158   80   82 1    
   159   80  201 1    
   160   81  202 1    
   161   81  203 1    
   162   81  204 1    
   163   82   83 2    
   164   82   84 am   BACKBONE|DICT|INTERRES
   165   84   85 1    
   166   84  205 1    
   167   85   86 1    
   168   85   87 1    
   169   85  206 1    
   170   86  207 1    
   171   86  208 1    
   172   86  209 1    
   173   87   88 2    
   174   87   89 am   BACKBONE|DICT|INTERRES
   175   89   90 1    
   176   89  210 1    
   177   90   91 1    
   178   90   92 1    
   179   90  211 1    
   180   91  212 1    
   181   91  213 1    
   182   91  214 1    
   183   92   93 2    
   184   92   94 am   BACKBONE|DICT|INTERRES
   185   94   95 1    
   186   94  215 1    
   187   95   96 1    
   188   95   97 1    
   189   95  216 1    
   190   96  217 1    
   191   96  218 1    
   192   96  219 1    
   193   97   98 2    
   194   97   99 am   BACKBONE|DICT|INTERRES
   195   99  100 1    
   196   99  220 1    
   197  100  101 1    
   198  100  102 1    
   199  100  221 1    
   200  101  222 1    
   201  101  223 1    
   202  101  224 1    
   203  102  103 2    
   204  102  104 am   BACKBONE|DICT|INTERRES
   205  104  105 1    
   206  104  225 1    
   207  105  106 1    
   208  105  107 1    
   209  105  226 1    
   210  106  227 1    
   211  106  228 1    
   212  106  229 1    
   213  107  108 2    
   214  107  109 am   BACKBONE|DICT|INTERRES
   215  109  110 1    
   216  109  230 1    
   217  110  111 1    
   218  110  112 1    
   219  110  231 1    
   220  111  232 1    
   221  111  233 1    
   222  111  234 1    
   223  112  113 2    
   224  112  114 am   BACKBONE|DICT|INTERRES
   225  114  115 1    
   226  114  235 1    
   227  115  116 1    
   228  115  117 1    
   229  115  236 1    
   230  116  237 1    
   231  116  238 1    
   232  116  239 1    
   233  117  118 2    
   234  117  119 am   BACKBONE|DICT|INTERRES
   235  119  120 1    
   236  119  240 1    
   237  120  121 1    
   238  120  124 1    
   239  120  241 1    
   240  121  122 am   BACKBONE|DICT|INTERRES
   241  121  123 2    
   242  122  242 1    
   243  122  243 1    
   244  124  125 1    
   245  124  244 1    
   246  124  245 1    
   247  125  126 1    
   248  126  246 1    
   249  126  247 1    
@<TRIPOS>SUBSTRUCTURE
     1 UNK         1 GROUP             0       ****    0 ROOT    
