@<TRIPOS>MOLECULE
3R540
247   249    1
SMALL
USER_CHARGES


@<TRIPOS>ATOM
      1 CA          3.7095  -10.4246  -48.6385 C.3       0 UNK        -0.1800 
      2 C           2.9770  -11.6077  -48.0242 C.2       0 UNK         0.5000 
      3 O           3.2103  -11.9381  -46.8604 O.2       0 UNK        -0.5000 
      4 N           2.0756  -12.2402  -48.7882 N.am      1 UNK        -0.5000 
      5 CA          1.2910  -13.4060  -48.3608 C.3       1 UNK         0.1400 
      6 C6          0.5261  -14.0848  -49.5232 C.3       23 UNK        -0.0398 
      7 S7         -0.5400  -12.9813  -50.5157 S.3       23 UNK        -0.2404 
      8 C8         -2.1836  -13.1982  -49.7431 C.3       23 UNK        -0.0205 
      9 C9         -2.7176  -14.6305  -49.6938 C.ar      23 UNK        -0.0193 
     10 C10        -2.4258  -15.5747  -50.6867 C.ar      23 UNK        -0.1150 
     11 C11        -2.9582  -16.8662  -50.6196 C.ar      23 UNK        -0.0193 
     12 C12        -3.7968  -17.2139  -49.5568 C.ar      23 UNK        -0.1150 
     13 C13        -4.1156  -16.2769  -48.5713 C.ar      23 UNK        -0.0193 
     14 C14        -3.5674  -14.9930  -48.6443 C.ar      23 UNK        -0.1150 
     15 C15        -5.0893  -16.6224  -47.4535 C.3       23 UNK        -0.0205 
     16 S16        -4.2545  -16.7164  -45.8409 S.3       23 UNK        -0.2404 
     17 C17        -4.2296  -18.5093  -45.4992 C.3       23 UNK        -0.0398 
     18 CA         -3.3757  -19.3565  -46.4758 C.3       11 UNK         0.1400 
     19 N          -2.0659  -18.7580  -46.7455 N.am      11 UNK        -0.5000 
     20 C          -1.1323  -19.2548  -47.5663 C.2       10 UNK         0.5000 
     21 O          -1.2622  -20.3104  -48.1829 O.2       10 UNK        -0.5000 
     22 CA          0.1999  -18.4931  -47.6726 C.3       10 UNK         0.1400 
     23 CB          0.1145  -17.0344  -47.1859 C.3       10 UNK        -0.1800 
     24 N           1.2865  -19.2011  -46.9845 N.am      10 UNK        -0.5000 
     25 C           1.3075  -19.5955  -45.7020 C.2       9 UNK         0.5000 
     26 O           0.3705  -19.4311  -44.9148 O.2       9 UNK        -0.5000 
     27 CA          2.5849  -20.3107  -45.2321 C.3       9 UNK         0.1400 
     28 CB          3.8249  -19.4028  -45.3256 C.3       9 UNK        -0.1800 
     29 N           2.4092  -20.7438  -43.8521 N.am      9 UNK        -0.5000 
     30 C           2.9855  -21.7959  -43.2668 C.2       8 UNK         0.5000 
     31 O           3.7737  -22.5472  -43.8439 O.2       8 UNK        -0.5000 
     32 CA          2.6362  -22.0194  -41.7776 C.3       8 UNK         0.1400 
     33 CB          3.2791  -23.2933  -41.2001 C.3       8 UNK        -0.1800 
     34 N           3.0356  -20.8756  -40.9532 N.am      8 UNK        -0.5000 
     35 C           2.3760  -19.7131  -40.8720 C.2       7 UNK         0.5000 
     36 O           1.2999  -19.5125  -41.4413 O.2       7 UNK        -0.5000 
     37 CA          3.0396  -18.6031  -40.0338 C.3       7 UNK         0.1400 
     38 CB          4.4776  -18.3232  -40.5090 C.3       7 UNK        -0.1800 
     39 N           2.2739  -17.3671  -40.1601 N.am      7 UNK        -0.5000 
     40 C           1.5372  -16.7917  -39.2020 C.2       6 UNK         0.5000 
     41 O           1.4835  -17.2028  -38.0419 O.2       6 UNK        -0.5000 
     42 CA          0.7211  -15.5407  -39.5958 C.3       6 UNK         0.1400 
     43 CB          1.4193  -14.2661  -39.0981 C.3       6 UNK        -0.1800 
     44 N           0.5023  -15.4311  -41.0399 N.am      6 UNK        -0.5000 
     45 C          -0.3340  -16.2142  -41.7383 C.2       5 UNK         0.5000 
     46 O          -1.1189  -17.0009  -41.2075 O.2       5 UNK        -0.5000 
     47 CA         -0.2969  -16.1195  -43.2794 C.3       5 UNK         0.1400 
     48 CB         -1.5547  -15.4061  -43.7975 C.3       5 UNK        -0.1800 
     49 N           0.8802  -15.4470  -43.8366 N.am      5 UNK        -0.5000 
     50 C           2.1586  -15.8151  -43.6739 C.2       4 UNK         0.5000 
     51 O           2.5083  -16.8079  -43.0384 O.2       4 UNK        -0.5000 
     52 CA          3.2341  -14.8809  -44.2625 C.3       4 UNK         0.1400 
     53 CB          3.6397  -15.3438  -45.6680 C.3       4 UNK        -0.1800 
     54 N           2.8293  -13.4713  -44.3075 N.am      4 UNK        -0.5000 
     55 C           2.5312  -12.7257  -43.2317 C.2       3 UNK         0.5000 
     56 O           2.5486  -13.1549  -42.0779 O.2       3 UNK        -0.5000 
     57 CA          2.1093  -11.2703  -43.4909 C.3       3 UNK         0.1400 
     58 CB          3.3352  -10.3755  -43.7308 C.3       3 UNK        -0.1800 
     59 N           1.2038  -11.1848  -44.6352 N.am      3 UNK        -0.5000 
     60 C          -0.1203  -11.3843  -44.5625 C.2       2 UNK         0.5000 
     61 O          -0.7270  -11.5635  -43.5063 O.2       2 UNK        -0.5000 
     62 CA         -0.9017  -11.4067  -45.8922 C.3       2 UNK         0.1400 
     63 CB         -1.4599  -10.0134  -46.2171 C.3       2 UNK        -0.1800 
     64 N          -0.1042  -11.8770  -47.0259 N.am      2 UNK        -0.5000 
     65 C           0.3791  -13.1212  -47.1483 C.2       1 UNK         0.5000 
     66 O           0.1801  -14.0078  -46.3205 O.2       1 UNK        -0.5000 
     67 C          -3.2728  -20.8065  -45.9552 C.2       11 UNK         0.5000 
     68 O          -4.0779  -21.6520  -46.3479 O.2       11 UNK        -0.5000 
     69 N          -2.2623  -21.0724  -45.1140 N.am      12 UNK        -0.5000 
     70 CA         -1.9863  -22.3930  -44.5485 C.3       12 UNK         0.1400 
     71 CB         -1.1019  -22.2305  -43.3038 C.3       12 UNK        -0.1800 
     72 C          -1.3319  -23.3554  -45.5574 C.2       12 UNK         0.5000 
     73 O          -1.4784  -24.5686  -45.4082 O.2       12 UNK        -0.5000 
     74 N          -0.6332  -22.8097  -46.5630 N.am      13 UNK        -0.5000 
     75 CA         -0.0645  -23.5748  -47.6728 C.3       13 UNK         0.1400 
     76 CB          1.1279  -22.8148  -48.2749 C.3       13 UNK        -0.1800 
     77 C          -1.1293  -23.8703  -48.7422 C.2       13 UNK         0.5000 
     78 O          -1.1602  -24.9788  -49.2762 O.2       13 UNK        -0.5000 
     79 N          -1.9891  -22.8785  -49.0162 N.am      14 UNK        -0.5000 
     80 CA         -3.1295  -22.9713  -49.9211 C.3       14 UNK         0.1400 
     81 CB         -3.7662  -21.5836  -50.0972 C.3       14 UNK        -0.1800 
     82 C          -4.1757  -23.9836  -49.4329 C.2       14 UNK         0.5000 
     83 O          -4.5573  -24.8724  -50.1941 O.2       14 UNK        -0.5000 
     84 N          -4.6410  -23.8141  -48.1850 N.am      15 UNK        -0.5000 
     85 CA         -5.6101  -24.6647  -47.4774 C.3       15 UNK         0.1400 
     86 CB         -4.9462  -26.0058  -47.1046 C.3       15 UNK        -0.1800 
     87 C          -6.9539  -24.8633  -48.2212 C.2       15 UNK         0.5000 
     88 O          -7.6366  -25.8639  -47.9972 O.2       15 UNK        -0.5000 
     89 N          -7.2867  -23.9192  -49.1168 N.am      16 UNK        -0.5000 
     90 CA         -8.3983  -23.9364  -50.0763 C.3       16 UNK         0.1400 
     91 CB         -9.7553  -23.8802  -49.3439 C.3       16 UNK        -0.1800 
     92 C          -8.3261  -25.0871  -51.1108 C.2       16 UNK         0.5000 
     93 O          -9.3502  -25.4271  -51.7059 O.2       16 UNK        -0.5000 
     94 N          -7.1306  -25.6574  -51.3201 N.am      17 UNK        -0.5000 
     95 CA         -6.8794  -26.7845  -52.2217 C.3       17 UNK         0.1400 
     96 CB         -6.4854  -28.0145  -51.3881 C.3       17 UNK        -0.1800 
     97 C          -5.7825  -26.4522  -53.2458 C.2       17 UNK         0.5000 
     98 O          -5.9387  -26.7632  -54.4266 O.2       17 UNK        -0.5000 
     99 N          -4.7073  -25.8030  -52.7838 N.am      18 UNK        -0.5000 
    100 CA        -3.5523  -25.3731  -53.5731 C.3       18 UNK         0.1400 
    101 CB        -2.2690  -25.8605  -52.8785 C.3       18 UNK        -0.1800 
    102 C         -3.5517  -23.8452  -53.7734 C.2       18 UNK         0.5000 
    103 O         -2.4967  -23.2524  -54.0059 O.2       18 UNK        -0.5000 
    104 N         -4.7353  -23.2200  -53.6934 N.am      19 UNK        -0.5000 
    105 CA        -4.9486  -21.7804  -53.8667 C.3       19 UNK         0.1400 
    106 CB        -6.4300  -21.4572  -53.6265 C.3       19 UNK        -0.1800 
    107 C         -4.4811  -21.2440  -55.2342 C.2       19 UNK         0.5000 
    108 O         -3.9842  -20.1203  -55.3057 O.2       19 UNK        -0.5000 
    109 N         -4.5957  -22.0758  -56.2787 N.am      20 UNK        -0.5000 
    110 CA        -4.1187  -21.7877  -57.6325 C.3       20 UNK         0.1400 
    111 CB        -4.7087  -22.8249  -58.6002 C.3       20 UNK        -0.1800 
    112 C         -2.5810  -21.7550  -57.7504 C.2       20 UNK         0.5000 
    113 O         -2.0610  -21.0359  -58.6042 O.2       20 UNK        -0.5000 
    114 N         -1.8826  -22.5235  -56.9016 N.am      21 UNK        -0.5000 
    115 CA        -0.4210  -22.5336  -56.8146 C.3       21 UNK         0.1400 
    116 CB         0.0548  -23.8892  -56.2684 C.3       21 UNK        -0.1800 
    117 C          0.0920  -21.3763  -55.9402 C.2       21 UNK         0.5000 
    118 O          1.1065  -20.7636  -56.2751 O.2       21 UNK        -0.5000 
    119 N         -0.6306  -21.0939  -54.8484 N.am      22 UNK        -0.5000 
    120 CA        -0.4219  -19.9429  -53.9590 C.3       22 UNK         0.1400 
    121 C         -0.6404  -18.5804  -54.6814 C.2       22 UNK         0.5000 
    122 N         -1.7496  -18.3907  -55.3856 N.am      22 UNK        -0.7600 
    123 O          0.2092  -17.6961  -54.6165 O.2       22 UNK        -0.5000 
    124 C124       -1.2942  -20.1005  -52.6878 C.3       23 UNK        -0.0398 
    125 S125       -1.1236  -18.7829  -51.4323 S.3       23 UNK        -0.2404 
    126 C126       -2.6735  -17.8732  -51.7209 C.3       23 UNK        -0.0205 
    127 H127        3.3900  -10.2383  -49.6640 H         1 UNK         0.0600 
    128 H128        4.7831  -10.6119  -48.6440 H         1 UNK         0.0600 
    129 H129        3.5224   -9.5241  -48.0536 H         1 UNK         0.0600 
    130 H130        1.9059  -11.9216  -49.7322 H         1 UNK         0.3000 
    131 H131        2.0204  -14.1381  -48.0141 H         1 UNK         0.0600 
    132 H132        1.2528  -14.5189  -50.2110 H         1 UNK         0.0800 
    133 H133       -0.0546  -14.9320  -49.1622 H         1 UNK         0.0800 
    134 H134       -2.9006  -12.5904  -50.2960 H         1 UNK         0.0800 
    135 H135       -2.1491  -12.7804  -48.7367 H         1 UNK         0.0800 
    136 H136       -1.7918  -15.3076  -51.5201 H         1 UNK         0.1150 
    137 H137       -4.2211  -18.2069  -49.5142 H         1 UNK         0.1150 
    138 H138       -3.8192  -14.2681  -47.8826 H         1 UNK         0.1150 
    139 H139       -5.8554  -15.8474  -47.4028 H         1 UNK         0.0800 
    140 H140       -5.6175  -17.5531  -47.6649 H         1 UNK         0.0800 
    141 H141       -5.2593  -18.8714  -45.4861 H         1 UNK         0.0800 
    142 H142       -3.8601  -18.6215  -44.4779 H         1 UNK         0.0800 
    143 H143       -3.9001  -19.3998  -47.4310 H         1 UNK         0.0600 
    144 H144       -1.8718  -17.8919  -46.2647 H         1 UNK         0.3000 
    145 H145        0.4529  -18.4732  -48.7336 H         1 UNK         0.0600 
    146 H146       -0.7320  -16.5142  -47.6361 H         1 UNK         0.0600 
    147 H147        0.0051  -16.9647  -46.1050 H         1 UNK         0.0600 
    148 H148        1.0147  -16.4872  -47.4598 H         1 UNK         0.0600 
    149 H149        2.0875  -19.4143  -47.5615 H         1 UNK         0.3000 
    150 H150        2.7264  -21.1846  -45.8697 H         1 UNK         0.0600 
    151 H151        3.9840  -19.0387  -46.3409 H         1 UNK         0.0600 
    152 H152        4.7272  -19.9396  -45.0326 H         1 UNK         0.0600 
    153 H153        3.7311  -18.5354  -44.6730 H         1 UNK         0.0600 
    154 H154        1.7565  -20.1795  -43.3121 H         1 UNK         0.3000 
    155 H155        1.5531  -22.1408  -41.7122 H         1 UNK         0.0600 
    156 H156        4.3684  -23.2417  -41.2216 H         1 UNK         0.0600 
    157 H157        2.9794  -24.1746  -41.7686 H         1 UNK         0.0600 
    158 H158        2.9714  -23.4560  -40.1670 H         1 UNK         0.0600 
    159 H159        3.9228  -20.9628  -40.4794 H         1 UNK         0.3000 
    160 H160        3.0678  -18.9373  -38.9950 H         1 UNK         0.0600 
    161 H161        4.5104  -18.0868  -41.5736 H         1 UNK         0.0600 
    162 H162        5.1296  -19.1807  -40.3412 H         1 UNK         0.0600 
    163 H163        4.9125  -17.4821  -39.9687 H         1 UNK         0.0600 
    164 H164        2.1981  -17.0167  -41.1109 H         1 UNK         0.3000 
    165 H165       -0.2508  -15.6105  -39.1030 H         1 UNK         0.0600 
    166 H166        0.8462  -13.3746  -39.3536 H         1 UNK         0.0600 
    167 H167        1.5322  -14.2812  -38.0133 H         1 UNK         0.0600 
    168 H168        2.4155  -14.1601  -39.5293 H         1 UNK         0.0600 
    169 H169        1.1088  -14.7933  -41.5414 H         1 UNK         0.3000 
    170 H170       -0.2999  -17.1432  -43.6570 H         1 UNK         0.0600 
    171 H171       -2.4609  -15.8788  -43.4169 H         1 UNK         0.0600 
    172 H172       -1.5758  -14.3594  -43.4918 H         1 UNK         0.0600 
    173 H173       -1.6079  -15.4369  -44.8855 H         1 UNK         0.0600 
    174 H174        0.6917  -14.6566  -44.4439 H         1 UNK         0.3000 
    175 H175        4.1130  -14.9447  -43.6179 H         1 UNK         0.0600 
    176 H176        2.7760  -15.4146  -46.3257 H         1 UNK         0.0600 
    177 H177        4.3587  -14.6620  -46.1227 H         1 UNK         0.0600 
    178 H178        4.1029  -16.3298  -45.6337 H         1 UNK         0.0600 
    179 H179        2.8244  -13.0271  -45.2200 H         1 UNK         0.3000 
    180 H180        1.5998  -10.9030  -42.5973 H         1 UNK         0.0600 
    181 H181        3.0402   -9.3373  -43.8833 H         1 UNK         0.0600 
    182 H182        3.9084  -10.6919  -44.6024 H         1 UNK         0.0600 
    183 H183        4.0069  -10.3998  -42.8719 H         1 UNK         0.0600 
    184 H184        1.6357  -11.0966  -45.5457 H         1 UNK         0.3000 
    185 H185       -1.7427  -12.0923  -45.7669 H         1 UNK         0.0600 
    186 H186       -2.0794  -10.0360  -47.1139 H         1 UNK         0.0600 
    187 H187       -2.0831   -9.6429  -45.4020 H         1 UNK         0.0600 
    188 H188       -0.6619   -9.2872  -46.3768 H         1 UNK         0.0600 
    189 H189        0.1187  -11.2017  -47.7425 H         1 UNK         0.3000 
    190 H190       -1.6034  -20.3349  -44.8872 H         1 UNK         0.3000 
    191 H191       -2.9322  -22.8398  -44.2347 H         1 UNK         0.0600 
    192 H192       -0.8947  -23.1955  -42.8396 H         1 UNK         0.0600 
    193 H193       -1.5853  -21.6046  -42.5535 H         1 UNK         0.0600 
    194 H194       -0.1461  -21.7730  -43.5530 H         1 UNK         0.0600 
    195 H195       -0.6245  -21.8033  -46.6557 H         1 UNK         0.3000 
    196 H196        0.3068  -24.5305  -47.2965 H         1 UNK         0.0600 
    197 H197        0.8415  -21.8335  -48.6528 H         1 UNK         0.0600 
    198 H198        1.9169  -22.6762  -47.5369 H         1 UNK         0.0600 
    199 H199        1.5604  -23.3705  -49.1079 H         1 UNK         0.0600 
    200 H200       -1.8274  -21.9695  -48.5873 H         1 UNK         0.3000 
    201 H201       -2.7604  -23.3028  -50.8927 H         1 UNK         0.0600 
    202 H202       -3.0578  -20.8790  -50.5282 H         1 UNK         0.0600 
    203 H203       -4.1036  -21.1677  -49.1481 H         1 UNK         0.0600 
    204 H204       -4.6307  -21.6284  -50.7597 H         1 UNK         0.0600 
    205 H205       -4.2927  -23.0279  -47.6408 H         1 UNK         0.3000 
    206 H206       -5.8514  -24.1433  -46.5501 H         1 UNK         0.0600 
    207 H207       -4.0096  -25.8451  -46.5698 H         1 UNK         0.0600 
    208 H208       -5.5908  -26.5992  -46.4553 H         1 UNK         0.0600 
    209 H209       -4.7277  -26.6059  -47.9887 H         1 UNK         0.0600 
    210 H210       -6.6537  -23.1376  -49.2045 H         1 UNK         0.3000 
    211 H211       -8.3044  -23.0167  -50.6553 H         1 UNK         0.0600 
    212 H212      -10.5743  -23.7220  -50.0464 H         1 UNK         0.0600 
    213 H213       -9.7832  -23.0592  -48.6275 H         1 UNK         0.0600 
    214 H214       -9.9638  -24.8042  -48.8041 H         1 UNK         0.0600 
    215 H215       -6.3322  -25.3187  -50.7920 H         1 UNK         0.3000 
    216 H216       -7.7798  -27.0338  -52.7869 H         1 UNK         0.0600 
    217 H217       -5.5943  -27.8262  -50.7875 H         1 UNK         0.0600 
    218 H218       -6.2779  -28.8728  -52.0285 H         1 UNK         0.0600 
    219 H219       -7.2891  -28.3006  -50.7093 H         1 UNK         0.0600 
    220 H220       -4.6628  -25.5657  -51.7936 H         1 UNK         0.3000 
    221 H221       -3.5844  -25.8196  -54.5686 H         1 UNK         0.0600 
    222 H222       -2.2732  -26.9445  -52.7649 H         1 UNK         0.0600 
    223 H223       -2.1561  -25.4238  -51.8861 H         1 UNK         0.0600 
    224 H224       -1.3812  -25.6010  -53.4562 H         1 UNK         0.0600 
    225 H225       -5.5525  -23.7818  -53.5068 H         1 UNK         0.3000 
    226 H226       -4.3652  -21.2680  -53.1018 H         1 UNK         0.0600 
    227 H227       -7.0753  -21.9708  -54.3402 H         1 UNK         0.0600 
    228 H228       -6.7398  -21.7486  -52.6227 H         1 UNK         0.0600 
    229 H229       -6.6170  -20.3869  -53.7248 H         1 UNK         0.0600 
    230 H230       -5.0166  -22.9807  -56.1279 H         1 UNK         0.3000 
    231 H231       -4.4912  -20.8022  -57.9203 H         1 UNK         0.0600 
    232 H232       -4.3880  -23.8371  -58.3505 H         1 UNK         0.0600 
    233 H233       -4.3952  -22.6249  -59.6258 H         1 UNK         0.0600 
    234 H234       -5.7985  -22.8036  -58.5854 H         1 UNK         0.0600 
    235 H235       -2.3790  -23.0455  -56.1926 H         1 UNK         0.3000 
    236 H236       -0.0014  -22.4119  -57.8157 H         1 UNK         0.0600 
    237 H237       -0.3007  -24.0685  -55.2538 H         1 UNK         0.0600 
    238 H238       -0.2921  -24.7106  -56.8954 H         1 UNK         0.0600 
    239 H239        1.1442  -23.9362  -56.2445 H         1 UNK         0.0600 
    240 H240       -1.4149  -21.6981  -54.6288 H         1 UNK         0.3000 
    241 H241        0.6223  -19.9704  -53.6418 H         1 UNK         0.0600 
    242 H242       -1.8836  -17.5150  -55.8642 H         1 UNK         0.3800 
    243 H243       -2.4878  -19.0914  -55.4139 H         1 UNK         0.3800 
    244 H244       -1.0456  -21.0427  -52.1967 H         1 UNK         0.0800 
    245 H245       -2.3411  -20.1910  -52.9728 H         1 UNK         0.0800 
    246 H246       -2.6208  -17.3637  -52.6841 H         1 UNK         0.0800 
    247 H247       -3.5053  -18.5757  -51.7927 H         1 UNK         0.0800 
@<TRIPOS>BOND
     1    1    2 1    
     2    1  127 1    
     3    1  128 1    
     4    1  129 1    
     5    2    3 2    
     6    2    4 am   BACKBONE|DICT|INTERRES
     7    4    5 1    
     8    4  130 1    
     9    5    6 1    
    10    5   65 1    
    11    5  131 1    
    12    6    7 1    
    13    6  132 1    
    14    6  133 1    
    15    7    8 1    
    16    8    9 1    
    17    8  134 1    
    18    8  135 1    
    19    9   10 ar   
    20    9   14 ar   
    21   10   11 ar   
    22   10  136 1    
    23   11   12 ar   
    24   11  126 1    
    25   12   13 ar   
    26   12  137 1    
    27   13   14 ar   
    28   13   15 1    
    29   14  138 1    
    30   15   16 1    
    31   15  139 1    
    32   15  140 1    
    33   16   17 1    
    34   17   18 1    
    35   17  141 1    
    36   17  142 1    
    37   18   19 1    
    38   18   67 1    
    39   18  143 1    
    40   19   20 am   BACKBONE|DICT|INTERRES
    41   19  144 1    
    42   20   21 2    
    43   20   22 1    
    44   22   23 1    
    45   22   24 1    
    46   22  145 1    
    47   23  146 1    
    48   23  147 1    
    49   23  148 1    
    50   24   25 am   BACKBONE|DICT|INTERRES
    51   24  149 1    
    52   25   26 2    
    53   25   27 1    
    54   27   28 1    
    55   27   29 1    
    56   27  150 1    
    57   28  151 1    
    58   28  152 1    
    59   28  153 1    
    60   29   30 am   BACKBONE|DICT|INTERRES
    61   29  154 1    
    62   30   31 2    
    63   30   32 1    
    64   32   33 1    
    65   32   34 1    
    66   32  155 1    
    67   33  156 1    
    68   33  157 1    
    69   33  158 1    
    70   34   35 am   BACKBONE|DICT|INTERRES
    71   34  159 1    
    72   35   36 2    
    73   35   37 1    
    74   37   38 1    
    75   37   39 1    
    76   37  160 1    
    77   38  161 1    
    78   38  162 1    
    79   38  163 1    
    80   39   40 am   BACKBONE|DICT|INTERRES
    81   39  164 1    
    82   40   41 2    
    83   40   42 1    
    84   42   43 1    
    85   42   44 1    
    86   42  165 1    
    87   43  166 1    
    88   43  167 1    
    89   43  168 1    
    90   44   45 am   BACKBONE|DICT|INTERRES
    91   44  169 1    
    92   45   46 2    
    93   45   47 1    
    94   47   48 1    
    95   47   49 1    
    96   47  170 1    
    97   48  171 1    
    98   48  172 1    
    99   48  173 1    
   100   49   50 am   BACKBONE|DICT|INTERRES
   101   49  174 1    
   102   50   51 2    
   103   50   52 1    
   104   52   53 1    
   105   52   54 1    
   106   52  175 1    
   107   53  176 1    
   108   53  177 1    
   109   53  178 1    
   110   54   55 am   BACKBONE|DICT|INTERRES
   111   54  179 1    
   112   55   56 2    
   113   55   57 1    
   114   57   58 1    
   115   57   59 1    
   116   57  180 1    
   117   58  181 1    
   118   58  182 1    
   119   58  183 1    
   120   59   60 am   BACKBONE|DICT|INTERRES
   121   59  184 1    
   122   60   61 2    
   123   60   62 1    
   124   62   63 1    
   125   62   64 1    
   126   62  185 1    
   127   63  186 1    
   128   63  187 1    
   129   63  188 1    
   130   64   65 am   BACKBONE|DICT|INTERRES
   131   64  189 1    
   132   65   66 2    
   133   67   68 2    
   134   67   69 am   BACKBONE|DICT|INTERRES
   135   69   70 1    
   136   69  190 1    
   137   70   71 1    
   138   70   72 1    
   139   70  191 1    
   140   71  192 1    
   141   71  193 1    
   142   71  194 1    
   143   72   73 2    
   144   72   74 am   BACKBONE|DICT|INTERRES
   145   74   75 1    
   146   74  195 1    
   147   75   76 1    
   148   75   77 1    
   149   75  196 1    
   150   76  197 1    
   151   76  198 1    
   152   76  199 1    
   153   77   78 2    
   154   77   79 am   BACKBONE|DICT|INTERRES
   155   79   80 1    
   156   79  200 1    
   157   80   81 1    
   158   80   82 1    
   159   80  201 1    
   160   81  202 1    
   161   81  203 1    
   162   81  204 1    
   163   82   83 2    
   164   82   84 am   BACKBONE|DICT|INTERRES
   165   84   85 1    
   166   84  205 1    
   167   85   86 1    
   168   85   87 1    
   169   85  206 1    
   170   86  207 1    
   171   86  208 1    
   172   86  209 1    
   173   87   88 2    
   174   87   89 am   BACKBONE|DICT|INTERRES
   175   89   90 1    
   176   89  210 1    
   177   90   91 1    
   178   90   92 1    
   179   90  211 1    
   180   91  212 1    
   181   91  213 1    
   182   91  214 1    
   183   92   93 2    
   184   92   94 am   BACKBONE|DICT|INTERRES
   185   94   95 1    
   186   94  215 1    
   187   95   96 1    
   188   95   97 1    
   189   95  216 1    
   190   96  217 1    
   191   96  218 1    
   192   96  219 1    
   193   97   98 2    
   194   97   99 am   BACKBONE|DICT|INTERRES
   195   99  100 1    
   196   99  220 1    
   197  100  101 1    
   198  100  102 1    
   199  100  221 1    
   200  101  222 1    
   201  101  223 1    
   202  101  224 1    
   203  102  103 2    
   204  102  104 am   BACKBONE|DICT|INTERRES
   205  104  105 1    
   206  104  225 1    
   207  105  106 1    
   208  105  107 1    
   209  105  226 1    
   210  106  227 1    
   211  106  228 1    
   212  106  229 1    
   213  107  108 2    
   214  107  109 am   BACKBONE|DICT|INTERRES
   215  109  110 1    
   216  109  230 1    
   217  110  111 1    
   218  110  112 1    
   219  110  231 1    
   220  111  232 1    
   221  111  233 1    
   222  111  234 1    
   223  112  113 2    
   224  112  114 am   BACKBONE|DICT|INTERRES
   225  114  115 1    
   226  114  235 1    
   227  115  116 1    
   228  115  117 1    
   229  115  236 1    
   230  116  237 1    
   231  116  238 1    
   232  116  239 1    
   233  117  118 2    
   234  117  119 am   BACKBONE|DICT|INTERRES
   235  119  120 1    
   236  119  240 1    
   237  120  121 1    
   238  120  124 1    
   239  120  241 1    
   240  121  122 am   BACKBONE|DICT|INTERRES
   241  121  123 2    
   242  122  242 1    
   243  122  243 1    
   244  124  125 1    
   245  124  244 1    
   246  124  245 1    
   247  125  126 1    
   248  126  246 1    
   249  126  247 1    
@<TRIPOS>SUBSTRUCTURE
     1 UNK         1 GROUP             0       ****    0 ROOT    
