@<TRIPOS>MOLECULE
3R540
247   249    1
SMALL
USER_CHARGES


@<TRIPOS>ATOM
      1 CA         -1.3741  -12.9416  -51.7243 C.3       0 UNK        -0.1800 
      2 C          -2.8818  -12.7673  -51.9040 C.2       0 UNK         0.5000 
      3 O          -3.2906  -11.8846  -52.6555 O.2       0 UNK        -0.5000 
      4 N          -3.7510  -13.5631  -51.2634 N.am      1 UNK        -0.5000 
      5 CA         -3.4858  -14.6243  -50.2812 C.3       1 UNK         0.1400 
      6 C6         -4.8003  -15.3175  -49.8489 C.3       23 UNK        -0.0398 
      7 S7         -5.5699  -16.2131  -51.2435 S.3       23 UNK        -0.2404 
      8 C8         -5.3228  -17.9533  -50.7648 C.3       23 UNK        -0.0205 
      9 C9         -3.8586  -18.2941  -50.5286 C.ar      23 UNK        -0.0193 
     10 C10        -2.9754  -18.3994  -51.6046 C.ar      23 UNK        -0.1150 
     11 C11        -1.6403  -18.7467  -51.3933 C.ar      23 UNK        -0.0193 
     12 C12        -1.1878  -18.9815  -50.0921 C.ar      23 UNK        -0.1150 
     13 C13        -2.0629  -18.8915  -48.9997 C.ar      23 UNK        -0.0193 
     14 C14        -3.3949  -18.5404  -49.2334 C.ar      23 UNK        -0.1150 
     15 C15        -1.6449  -19.1733  -47.5544 C.3       23 UNK        -0.0205 
     16 S16         0.1025  -19.6256  -47.2885 S.3       23 UNK        -0.2404 
     17 C17         0.1769  -21.3216  -47.9520 C.3       23 UNK        -0.0398 
     18 CA          0.1254  -22.4531  -46.8957 C.3       11 UNK         0.1400 
     19 N           1.0196  -22.2581  -45.7490 N.am      11 UNK        -0.5000 
     20 C           1.5345  -23.2740  -45.0401 C.2       10 UNK         0.5000 
     21 O           1.3428  -24.4589  -45.3151 O.2       10 UNK        -0.5000 
     22 CA          2.3801  -22.9207  -43.8020 C.3       10 UNK         0.1400 
     23 CB          3.7906  -22.4691  -44.2091 C.3       10 UNK        -0.1800 
     24 N           1.7650  -21.9031  -42.9512 N.am      10 UNK        -0.5000 
     25 C           0.5838  -22.0346  -42.3302 C.2       9 UNK         0.5000 
     26 O          -0.1196  -23.0423  -42.3991 O.2       9 UNK        -0.5000 
     27 CA          0.0818  -20.8155  -41.5332 C.3       9 UNK         0.1400 
     28 CB          0.6598  -20.8195  -40.1110 C.3       9 UNK        -0.1800 
     29 N           0.3878  -19.5426  -42.1876 N.am      9 UNK        -0.5000 
     30 C          -0.0445  -19.1906  -43.4068 C.2       8 UNK         0.5000 
     31 O          -0.7805  -19.8924  -44.0972 O.2       8 UNK        -0.5000 
     32 CA          0.4671  -17.8545  -43.9639 C.3       8 UNK         0.1400 
     33 CB         -0.3735  -16.6855  -43.4437 C.3       8 UNK        -0.1800 
     34 N           1.8768  -17.6379  -43.6448 N.am      8 UNK        -0.5000 
     35 C           2.8878  -18.2924  -44.2348 C.2       7 UNK         0.5000 
     36 O           2.7425  -19.0893  -45.1603 O.2       7 UNK        -0.5000 
     37 CA          4.2957  -18.0505  -43.6641 C.3       7 UNK         0.1400 
     38 CB          4.9689  -16.8552  -44.3531 C.3       7 UNK        -0.1800 
     39 N           4.2718  -17.8416  -42.2155 N.am      7 UNK        -0.5000 
     40 C           4.0294  -18.8219  -41.3327 C.2       6 UNK         0.5000 
     41 O           3.8406  -19.9949  -41.6565 O.2       6 UNK        -0.5000 
     42 CA          3.9457  -18.4293  -39.8450 C.3       6 UNK         0.1400 
     43 CB          5.3262  -18.5441  -39.1821 C.3       6 UNK        -0.1800 
     44 N           3.4118  -17.0861  -39.6118 N.am      6 UNK        -0.5000 
     45 C           2.1901  -16.6632  -39.9648 C.2       5 UNK         0.5000 
     46 O           1.3733  -17.3714  -40.5534 O.2       5 UNK        -0.5000 
     47 CA          1.8187  -15.2022  -39.6304 C.3       5 UNK         0.1400 
     48 CB          2.7711  -14.5371  -38.6120 C.3       5 UNK        -0.1800 
     49 N           1.7004  -14.3509  -40.8199 N.am      5 UNK        -0.5000 
     50 C           2.5953  -14.1875  -41.8040 C.2       4 UNK         0.5000 
     51 O           3.6256  -14.8563  -41.9089 O.2       4 UNK        -0.5000 
     52 CA          2.2818  -13.0794  -42.8340 C.3       4 UNK         0.1400 
     53 CB          3.3764  -12.9369  -43.9072 C.3       4 UNK        -0.1800 
     54 N           0.9966  -13.2634  -43.5108 N.am      4 UNK        -0.5000 
     55 C          -0.2154  -12.9805  -43.0105 C.2       3 UNK         0.5000 
     56 O          -0.3894  -12.5881  -41.8558 O.2       3 UNK        -0.5000 
     57 CA         -1.4290  -13.1667  -43.9475 C.3       3 UNK         0.1400 
     58 CB         -2.3631  -11.9443  -43.9190 C.3       3 UNK        -0.1800 
     59 N          -1.0121  -13.4188  -45.3310 N.am      3 UNK        -0.5000 
     60 C          -1.5113  -14.3659  -46.1338 C.2       2 UNK         0.5000 
     61 O          -2.4219  -15.1357  -45.8207 O.2       2 UNK        -0.5000 
     62 CA         -0.8239  -14.5064  -47.5043 C.3       2 UNK         0.1400 
     63 CB          0.2978  -15.5550  -47.4306 C.3       2 UNK        -0.1800 
     64 N          -1.7466  -14.8772  -48.5768 N.am      2 UNK        -0.5000 
     65 C          -2.7221  -14.0913  -49.0500 C.2       1 UNK         0.5000 
     66 O          -3.0003  -12.9823  -48.5874 O.2       1 UNK        -0.5000 
     67 C          -1.3114  -22.7997  -46.4612 C.2       11 UNK         0.5000 
     68 O          -1.9566  -23.5910  -47.1470 O.2       11 UNK        -0.5000 
     69 N          -1.7875  -22.2704  -45.3231 N.am      12 UNK        -0.5000 
     70 CA         -3.0874  -22.6172  -44.7342 C.3       12 UNK         0.1400 
     71 CB         -3.3795  -21.7255  -43.5208 C.3       12 UNK        -0.1800 
     72 C          -3.1938  -24.1064  -44.3541 C.2       12 UNK         0.5000 
     73 O          -4.2380  -24.7167  -44.5843 O.2       12 UNK        -0.5000 
     74 N          -2.0913  -24.6812  -43.8515 N.am      13 UNK        -0.5000 
     75 CA         -1.9352  -26.1146  -43.5869 C.3       13 UNK         0.1400 
     76 CB         -0.6341  -26.3443  -42.8037 C.3       13 UNK        -0.1800 
     77 C          -1.9627  -26.9850  -44.8620 C.2       13 UNK         0.5000 
     78 O          -2.2967  -28.1667  -44.7781 O.2       13 UNK        -0.5000 
     79 N          -1.6592  -26.3826  -46.0194 N.am      14 UNK        -0.5000 
     80 CA         -1.7667  -26.9723  -47.3543 C.3       14 UNK         0.1400 
     81 CB         -0.5363  -26.5574  -48.1819 C.3       14 UNK        -0.1800 
     82 C          -3.0955  -26.5680  -48.0310 C.2       14 UNK         0.5000 
     83 O          -3.1300  -26.3512  -49.2435 O.2       14 UNK        -0.5000 
     84 N          -4.1640  -26.4477  -47.2275 N.am      15 UNK        -0.5000 
     85 CA         -5.5445  -26.1182  -47.6041 C.3       15 UNK         0.1400 
     86 CB         -6.1555  -27.2502  -48.4565 C.3       15 UNK        -0.1800 
     87 C          -5.7061  -24.7269  -48.2549 C.2       15 UNK         0.5000 
     88 O          -6.6187  -24.5303  -49.0587 O.2       15 UNK        -0.5000 
     89 N          -4.8151  -23.7916  -47.8942 N.am      16 UNK        -0.5000 
     90 CA         -4.6881  -22.4301  -48.4267 C.3       16 UNK         0.1400 
     91 CB         -5.9469  -21.5853  -48.1380 C.3       16 UNK        -0.1800 
     92 C          -4.2527  -22.3990  -49.9055 C.2       16 UNK         0.5000 
     93 O          -4.5671  -21.4373  -50.6057 O.2       16 UNK        -0.5000 
     94 N          -3.5243  -23.4416  -50.3422 N.am      17 UNK        -0.5000 
     95 CA         -2.9457  -23.6275  -51.6757 C.3       17 UNK         0.1400 
     96 CB         -1.7054  -22.7172  -51.8304 C.3       17 UNK        -0.1800 
     97 C          -4.0023  -23.4559  -52.7902 C.2       17 UNK         0.5000 
     98 O          -4.9378  -24.2547  -52.8666 O.2       17 UNK        -0.5000 
     99 N          -3.8544  -22.4074  -53.6032 N.am      18 UNK        -0.5000 
    100 CA        -4.8480  -21.8964  -54.5332 C.3       18 UNK         0.1400 
    101 CB        -4.6830  -22.5668  -55.9070 C.3       18 UNK        -0.1800 
    102 C         -4.6157  -20.3858  -54.6270 C.2       18 UNK         0.5000 
    103 O         -3.4588  -19.9589  -54.6399 O.2       18 UNK        -0.5000 
    104 N         -5.6949  -19.5992  -54.7267 N.am      19 UNK        -0.5000 
    105 CA        -5.6387  -18.1356  -54.8301 C.3       19 UNK         0.1400 
    106 CB        -7.0635  -17.5644  -54.8217 C.3       19 UNK        -0.1800 
    107 C         -4.8580  -17.6453  -56.0639 C.2       19 UNK         0.5000 
    108 O         -4.1147  -16.6686  -55.9723 O.2       19 UNK        -0.5000 
    109 N         -4.9859  -18.3801  -57.1764 N.am      20 UNK        -0.5000 
    110 CA        -4.2835  -18.1366  -58.4368 C.3       20 UNK         0.1400 
    111 CB        -4.8784  -19.0550  -59.5156 C.3       20 UNK        -0.1800 
    112 C         -2.7535  -18.3221  -58.3585 C.2       20 UNK         0.5000 
    113 O         -2.0465  -17.7904  -59.2154 O.2       20 UNK        -0.5000 
    114 N         -2.2628  -19.0625  -57.3527 N.am      21 UNK        -0.5000 
    115 CA        -0.8344  -19.2992  -57.1387 C.3       21 UNK         0.1400 
    116 CB        -0.6429  -20.6022  -56.3455 C.3       21 UNK        -0.1800 
    117 C         -0.1271  -18.1211  -56.4408 C.2       21 UNK         0.5000 
    118 O          1.0932  -18.0084  -56.5680 O.2       21 UNK        -0.5000 
    119 N         -0.8849  -17.2748  -55.7285 N.am      22 UNK        -0.5000 
    120 CA        -0.3706  -16.1015  -55.0002 C.3       22 UNK         0.1400 
    121 C         -0.9537  -14.7530  -55.5056 C.2       22 UNK         0.5000 
    122 N         -2.1318  -14.7057  -56.1136 N.am      22 UNK        -0.7600 
    123 O         -0.3083  -13.7191  -55.3583 O.2       22 UNK        -0.5000 
    124 C124       -0.5636  -16.2372  -53.4686 C.3       23 UNK        -0.0398 
    125 S125        0.4775  -17.5435  -52.7353 S.3       23 UNK        -0.2404 
    126 C126       -0.6967  -18.9213  -52.5730 C.3       23 UNK        -0.0205 
    127 H127       -0.8630  -12.7706  -52.6719 H         1 UNK         0.0600 
    128 H128       -1.0990  -13.9356  -51.3792 H         1 UNK         0.0600 
    129 H129       -0.9992  -12.2144  -51.0042 H         1 UNK         0.0600 
    130 H130       -4.7331  -13.4030  -51.4326 H         1 UNK         0.3000 
    131 H131       -2.8569  -15.3698  -50.7727 H         1 UNK         0.0600 
    132 H132       -4.6294  -16.0097  -49.0234 H         1 UNK         0.0800 
    133 H133       -5.5148  -14.5828  -49.4734 H         1 UNK         0.0800 
    134 H134       -5.9170  -18.1670  -49.8752 H         1 UNK         0.0800 
    135 H135       -5.7154  -18.5994  -51.5516 H         1 UNK         0.0800 
    136 H136       -3.3312  -18.2271  -52.6089 H         1 UNK         0.1150 
    137 H137       -0.1515  -19.2489  -49.9517 H         1 UNK         0.1150 
    138 H138       -4.0805  -18.4739  -48.4003 H         1 UNK         0.1150 
    139 H139       -1.8496  -18.2828  -46.9582 H         1 UNK         0.0800 
    140 H140       -2.2776  -19.9615  -47.1451 H         1 UNK         0.0800 
    141 H141        1.1205  -21.3970  -48.4936 H         1 UNK         0.0800 
    142 H142       -0.5966  -21.4619  -48.7095 H         1 UNK         0.0800 
    143 H143        0.4776  -23.3419  -47.4244 H         1 UNK         0.0600 
    144 H144        1.2020  -21.3023  -45.4708 H         1 UNK         0.3000 
    145 H145        2.4783  -23.8284  -43.2028 H         1 UNK         0.0600 
    146 H146        4.4160  -22.2922  -43.3338 H         1 UNK         0.0600 
    147 H147        4.2847  -23.2306  -44.8136 H         1 UNK         0.0600 
    148 H148        3.7678  -21.5498  -44.7943 H         1 UNK         0.0600 
    149 H149        2.2968  -21.0544  -42.7995 H         1 UNK         0.3000 
    150 H150       -1.0035  -20.8875  -41.4531 H         1 UNK         0.0600 
    151 H151        0.3515  -21.7153  -39.5705 H         1 UNK         0.0600 
    152 H152        0.3143  -19.9581  -39.5391 H         1 UNK         0.0600 
    153 H153        1.7489  -20.8041  -40.1193 H         1 UNK         0.0600 
    154 H154        0.9330  -18.8705  -41.6552 H         1 UNK         0.3000 
    155 H155        0.3603  -17.8760  -45.0485 H         1 UNK         0.0600 
    156 H156       -0.0415  -15.7589  -43.9020 H         1 UNK         0.0600 
    157 H157       -0.3086  -16.5722  -42.3621 H         1 UNK         0.0600 
    158 H158       -1.4256  -16.8172  -43.6997 H         1 UNK         0.0600 
    159 H159        2.0810  -17.0515  -42.8480 H         1 UNK         0.3000 
    160 H160        4.8958  -18.9390  -43.8728 H         1 UNK         0.0600 
    161 H161        4.4046  -15.9356  -44.2066 H         1 UNK         0.0600 
    162 H162        5.0494  -17.0212  -45.4281 H         1 UNK         0.0600 
    163 H163        5.9772  -16.6951  -43.9713 H         1 UNK         0.0600 
    164 H164        4.3564  -16.8856  -41.8876 H         1 UNK         0.3000 
    165 H165        3.2753  -19.1373  -39.3552 H         1 UNK         0.0600 
    166 H166        5.2658  -18.3602  -38.1092 H         1 UNK         0.0600 
    167 H167        5.7419  -19.5438  -39.3160 H         1 UNK         0.0600 
    168 H168        6.0365  -17.8333  -39.6063 H         1 UNK         0.0600 
    169 H169        4.0302  -16.4284  -39.1599 H         1 UNK         0.3000 
    170 H170        0.8269  -15.2408  -39.1777 H         1 UNK         0.0600 
    171 H171        2.8499  -15.1278  -37.6982 H         1 UNK         0.0600 
    172 H172        3.7760  -14.4021  -39.0140 H         1 UNK         0.0600 
    173 H173        2.4011  -13.5534  -38.3226 H         1 UNK         0.0600 
    174 H174        0.8636  -13.7777  -40.8703 H         1 UNK         0.3000 
    175 H175        2.2483  -12.1399  -42.2783 H         1 UNK         0.0600 
    176 H176        3.4314  -13.8176  -44.5470 H         1 UNK         0.0600 
    177 H177        3.1896  -12.0732  -44.5455 H         1 UNK         0.0600 
    178 H178        4.3585  -12.7944  -43.4543 H         1 UNK         0.0600 
    179 H179        1.0467  -13.6438  -44.4428 H         1 UNK         0.3000 
    180 H180       -1.9794  -14.0269  -43.5612 H         1 UNK         0.0600 
    181 H181       -3.2339  -12.1009  -44.5560 H         1 UNK         0.0600 
    182 H182       -1.8544  -11.0430  -44.2627 H         1 UNK         0.0600 
    183 H183       -2.7318  -11.7516  -42.9107 H         1 UNK         0.0600 
    184 H184       -0.2936  -12.8046  -45.6889 H         1 UNK         0.3000 
    185 H185       -0.3781  -13.5457  -47.7712 H         1 UNK         0.0600 
    186 H186        0.8336  -15.6299  -48.3771 H         1 UNK         0.0600 
    187 H187        1.0297  -15.2989  -46.6635 H         1 UNK         0.0600 
    188 H188       -0.0932  -16.5433  -47.1898 H         1 UNK         0.0600 
    189 H189       -1.6057  -15.7905  -48.9838 H         1 UNK         0.3000 
    190 H190       -1.2395  -21.5675  -44.8321 H         1 UNK         0.3000 
    191 H191       -3.8543  -22.4133  -45.4828 H         1 UNK         0.0600 
    192 H192       -4.3652  -21.9416  -43.1071 H         1 UNK         0.0600 
    193 H193       -3.3665  -20.6700  -43.7924 H         1 UNK         0.0600 
    194 H194       -2.6512  -21.8807  -42.7266 H         1 UNK         0.0600 
    195 H195       -1.2943  -24.0922  -43.6278 H         1 UNK         0.3000 
    196 H196       -2.7706  -26.4307  -42.9590 H         1 UNK         0.0600 
    197 H197        0.2386  -26.0184  -43.3701 H         1 UNK         0.0600 
    198 H198       -0.6416  -25.8000  -41.8592 H         1 UNK         0.0600 
    199 H199       -0.4986  -27.4007  -42.5688 H         1 UNK         0.0600 
    200 H200       -1.4426  -25.3945  -46.0011 H         1 UNK         0.3000 
    201 H201       -1.7651  -28.0614  -47.2801 H         1 UNK         0.0600 
    202 H202       -0.5204  -25.4847  -48.3745 H         1 UNK         0.0600 
    203 H203       -0.5259  -27.0632  -49.1480 H         1 UNK         0.0600 
    204 H204        0.3898  -26.8184  -47.6695 H         1 UNK         0.0600 
    205 H205       -4.0155  -26.5852  -46.2371 H         1 UNK         0.3000 
    206 H206       -6.1051  -26.0732  -46.6694 H         1 UNK         0.0600 
    207 H207       -6.0410  -28.2179  -47.9680 H         1 UNK         0.0600 
    208 H208       -7.2234  -27.0925  -48.6117 H         1 UNK         0.0600 
    209 H209       -5.6883  -27.3127  -49.4398 H         1 UNK         0.0600 
    210 H210       -4.0631  -24.0768  -47.2782 H         1 UNK         0.3000 
    211 H211       -3.8704  -21.9620  -47.8802 H         1 UNK         0.0600 
    212 H212       -5.7753  -20.5364  -48.3825 H         1 UNK         0.0600 
    213 H213       -6.2197  -21.6309  -47.0838 H         1 UNK         0.0600 
    214 H214       -6.8040  -21.9171  -48.7240 H         1 UNK         0.0600 
    215 H215       -3.3772  -24.2140  -49.7031 H         1 UNK         0.3000 
    216 H216       -2.6083  -24.6636  -51.7271 H         1 UNK         0.0600 
    217 H217       -1.2263  -22.8595  -52.7999 H         1 UNK         0.0600 
    218 H218       -1.9585  -21.6611  -51.7317 H         1 UNK         0.0600 
    219 H219       -0.9599  -22.9457  -51.0686 H         1 UNK         0.0600 
    220 H220       -3.0838  -21.7695  -53.4477 H         1 UNK         0.3000 
    221 H221       -5.8513  -22.0820  -54.1436 H         1 UNK         0.0600 
    222 H222       -4.8308  -23.6447  -55.8398 H         1 UNK         0.0600 
    223 H223       -3.6901  -22.3907  -56.3234 H         1 UNK         0.0600 
    224 H224       -5.4127  -22.1817  -56.6201 H         1 UNK         0.0600 
    225 H225       -6.6142  -20.0170  -54.7171 H         1 UNK         0.3000 
    226 H226       -5.1211  -17.7563  -53.9483 H         1 UNK         0.0600 
    227 H227       -7.6521  -17.9322  -55.6630 H         1 UNK         0.0600 
    228 H228       -7.5869  -17.8274  -53.9022 H         1 UNK         0.0600 
    229 H229       -7.0465  -16.4753  -54.8821 H         1 UNK         0.0600 
    230 H230       -5.6035  -19.1780  -57.1511 H         1 UNK         0.3000 
    231 H231       -4.4694  -17.1007  -58.7278 H         1 UNK         0.0600 
    232 H232       -4.7417  -20.1082  -59.2664 H         1 UNK         0.0600 
    233 H233       -4.4040  -18.8823  -60.4826 H         1 UNK         0.0600 
    234 H234       -5.9460  -18.8748  -59.6434 H         1 UNK         0.0600 
    235 H235       -2.8921  -19.4393  -56.6543 H         1 UNK         0.3000 
    236 H236       -0.3553  -19.4360  -58.1106 H         1 UNK         0.0600 
    237 H237        0.4155  -20.8507  -56.2591 H         1 UNK         0.0600 
    238 H238       -1.0395  -20.5281  -55.3342 H         1 UNK         0.0600 
    239 H239       -1.1342  -21.4415  -56.8378 H         1 UNK         0.0600 
    240 H240       -1.8843  -17.4201  -55.7030 H         1 UNK         0.3000 
    241 H241        0.7035  -16.0133  -55.1739 H         1 UNK         0.0600 
    242 H242       -2.4694  -13.8145  -56.4394 H         1 UNK         0.3800 
    243 H243       -2.7513  -15.5113  -56.1625 H         1 UNK         0.3800 
    244 H244       -1.6133  -16.3963  -53.2185 H         1 UNK         0.0800 
    245 H245       -0.2677  -15.3122  -52.9755 H         1 UNK         0.0800 
    246 H246       -0.1350  -19.8478  -52.4474 H         1 UNK         0.0800 
    247 H247       -1.2569  -19.0310  -53.5009 H         1 UNK         0.0800 
@<TRIPOS>BOND
     1    1    2 1    
     2    1  127 1    
     3    1  128 1    
     4    1  129 1    
     5    2    3 2    
     6    2    4 am   BACKBONE|DICT|INTERRES
     7    4    5 1    
     8    4  130 1    
     9    5    6 1    
    10    5   65 1    
    11    5  131 1    
    12    6    7 1    
    13    6  132 1    
    14    6  133 1    
    15    7    8 1    
    16    8    9 1    
    17    8  134 1    
    18    8  135 1    
    19    9   10 ar   
    20    9   14 ar   
    21   10   11 ar   
    22   10  136 1    
    23   11   12 ar   
    24   11  126 1    
    25   12   13 ar   
    26   12  137 1    
    27   13   14 ar   
    28   13   15 1    
    29   14  138 1    
    30   15   16 1    
    31   15  139 1    
    32   15  140 1    
    33   16   17 1    
    34   17   18 1    
    35   17  141 1    
    36   17  142 1    
    37   18   19 1    
    38   18   67 1    
    39   18  143 1    
    40   19   20 am   BACKBONE|DICT|INTERRES
    41   19  144 1    
    42   20   21 2    
    43   20   22 1    
    44   22   23 1    
    45   22   24 1    
    46   22  145 1    
    47   23  146 1    
    48   23  147 1    
    49   23  148 1    
    50   24   25 am   BACKBONE|DICT|INTERRES
    51   24  149 1    
    52   25   26 2    
    53   25   27 1    
    54   27   28 1    
    55   27   29 1    
    56   27  150 1    
    57   28  151 1    
    58   28  152 1    
    59   28  153 1    
    60   29   30 am   BACKBONE|DICT|INTERRES
    61   29  154 1    
    62   30   31 2    
    63   30   32 1    
    64   32   33 1    
    65   32   34 1    
    66   32  155 1    
    67   33  156 1    
    68   33  157 1    
    69   33  158 1    
    70   34   35 am   BACKBONE|DICT|INTERRES
    71   34  159 1    
    72   35   36 2    
    73   35   37 1    
    74   37   38 1    
    75   37   39 1    
    76   37  160 1    
    77   38  161 1    
    78   38  162 1    
    79   38  163 1    
    80   39   40 am   BACKBONE|DICT|INTERRES
    81   39  164 1    
    82   40   41 2    
    83   40   42 1    
    84   42   43 1    
    85   42   44 1    
    86   42  165 1    
    87   43  166 1    
    88   43  167 1    
    89   43  168 1    
    90   44   45 am   BACKBONE|DICT|INTERRES
    91   44  169 1    
    92   45   46 2    
    93   45   47 1    
    94   47   48 1    
    95   47   49 1    
    96   47  170 1    
    97   48  171 1    
    98   48  172 1    
    99   48  173 1    
   100   49   50 am   BACKBONE|DICT|INTERRES
   101   49  174 1    
   102   50   51 2    
   103   50   52 1    
   104   52   53 1    
   105   52   54 1    
   106   52  175 1    
   107   53  176 1    
   108   53  177 1    
   109   53  178 1    
   110   54   55 am   BACKBONE|DICT|INTERRES
   111   54  179 1    
   112   55   56 2    
   113   55   57 1    
   114   57   58 1    
   115   57   59 1    
   116   57  180 1    
   117   58  181 1    
   118   58  182 1    
   119   58  183 1    
   120   59   60 am   BACKBONE|DICT|INTERRES
   121   59  184 1    
   122   60   61 2    
   123   60   62 1    
   124   62   63 1    
   125   62   64 1    
   126   62  185 1    
   127   63  186 1    
   128   63  187 1    
   129   63  188 1    
   130   64   65 am   BACKBONE|DICT|INTERRES
   131   64  189 1    
   132   65   66 2    
   133   67   68 2    
   134   67   69 am   BACKBONE|DICT|INTERRES
   135   69   70 1    
   136   69  190 1    
   137   70   71 1    
   138   70   72 1    
   139   70  191 1    
   140   71  192 1    
   141   71  193 1    
   142   71  194 1    
   143   72   73 2    
   144   72   74 am   BACKBONE|DICT|INTERRES
   145   74   75 1    
   146   74  195 1    
   147   75   76 1    
   148   75   77 1    
   149   75  196 1    
   150   76  197 1    
   151   76  198 1    
   152   76  199 1    
   153   77   78 2    
   154   77   79 am   BACKBONE|DICT|INTERRES
   155   79   80 1    
   156   79  200 1    
   157   80   81 1    
   158   80   82 1    
   159   80  201 1    
   160   81  202 1    
   161   81  203 1    
   162   81  204 1    
   163   82   83 2    
   164   82   84 am   BACKBONE|DICT|INTERRES
   165   84   85 1    
   166   84  205 1    
   167   85   86 1    
   168   85   87 1    
   169   85  206 1    
   170   86  207 1    
   171   86  208 1    
   172   86  209 1    
   173   87   88 2    
   174   87   89 am   BACKBONE|DICT|INTERRES
   175   89   90 1    
   176   89  210 1    
   177   90   91 1    
   178   90   92 1    
   179   90  211 1    
   180   91  212 1    
   181   91  213 1    
   182   91  214 1    
   183   92   93 2    
   184   92   94 am   BACKBONE|DICT|INTERRES
   185   94   95 1    
   186   94  215 1    
   187   95   96 1    
   188   95   97 1    
   189   95  216 1    
   190   96  217 1    
   191   96  218 1    
   192   96  219 1    
   193   97   98 2    
   194   97   99 am   BACKBONE|DICT|INTERRES
   195   99  100 1    
   196   99  220 1    
   197  100  101 1    
   198  100  102 1    
   199  100  221 1    
   200  101  222 1    
   201  101  223 1    
   202  101  224 1    
   203  102  103 2    
   204  102  104 am   BACKBONE|DICT|INTERRES
   205  104  105 1    
   206  104  225 1    
   207  105  106 1    
   208  105  107 1    
   209  105  226 1    
   210  106  227 1    
   211  106  228 1    
   212  106  229 1    
   213  107  108 2    
   214  107  109 am   BACKBONE|DICT|INTERRES
   215  109  110 1    
   216  109  230 1    
   217  110  111 1    
   218  110  112 1    
   219  110  231 1    
   220  111  232 1    
   221  111  233 1    
   222  111  234 1    
   223  112  113 2    
   224  112  114 am   BACKBONE|DICT|INTERRES
   225  114  115 1    
   226  114  235 1    
   227  115  116 1    
   228  115  117 1    
   229  115  236 1    
   230  116  237 1    
   231  116  238 1    
   232  116  239 1    
   233  117  118 2    
   234  117  119 am   BACKBONE|DICT|INTERRES
   235  119  120 1    
   236  119  240 1    
   237  120  121 1    
   238  120  124 1    
   239  120  241 1    
   240  121  122 am   BACKBONE|DICT|INTERRES
   241  121  123 2    
   242  122  242 1    
   243  122  243 1    
   244  124  125 1    
   245  124  244 1    
   246  124  245 1    
   247  125  126 1    
   248  126  246 1    
   249  126  247 1    
@<TRIPOS>SUBSTRUCTURE
     1 UNK         1 GROUP             0       ****    0 ROOT    
