@<TRIPOS>MOLECULE
3R540
247   249    1
SMALL
USER_CHARGES


@<TRIPOS>ATOM
      1 CA          2.1490  -10.3245  -51.0046 C.3       0 UNK        -0.1800 
      2 C           2.2030  -11.7292  -50.4209 C.2       0 UNK         0.5000 
      3 O           2.6329  -12.6572  -51.1054 O.2       0 UNK        -0.5000 
      4 N           1.7626  -11.8801  -49.1653 N.am      1 UNK        -0.5000 
      5 CA          1.7505  -13.1302  -48.3960 C.3       1 UNK         0.1400 
      6 C6          1.0712  -12.9801  -47.0140 C.3       23 UNK        -0.0398 
      7 S7         -0.6778  -12.4796  -47.1149 S.3       23 UNK        -0.2404 
      8 C8         -1.5207  -14.0253  -46.6497 C.3       23 UNK        -0.0205 
      9 C9         -1.7805  -14.9190  -47.8528 C.ar      23 UNK        -0.0193 
     10 C10        -3.0111  -14.8506  -48.5110 C.ar      23 UNK        -0.1150 
     11 C11        -3.2746  -15.6627  -49.6170 C.ar      23 UNK        -0.0193 
     12 C12        -2.2947  -16.5528  -50.0637 C.ar      23 UNK        -0.1150 
     13 C13        -1.0575  -16.6317  -49.4162 C.ar      23 UNK        -0.0193 
     14 C14        -0.8077  -15.8154  -48.3069 C.ar      23 UNK        -0.1150 
     15 C15         0.0146  -17.5785  -49.9414 C.3       23 UNK        -0.0205 
     16 S16         0.5191  -18.8345  -48.7241 S.3       23 UNK        -0.2404 
     17 C17        -1.0712  -19.6411  -48.3396 C.3       23 UNK        -0.0398 
     18 CA         -0.8828  -21.0712  -47.7854 C.3       11 UNK         0.1400 
     19 N          -0.1898  -21.0858  -46.4946 N.am      11 UNK        -0.5000 
     20 C           0.2899  -22.1816  -45.8938 C.2       10 UNK         0.5000 
     21 O           0.2172  -23.3099  -46.3780 O.2       10 UNK        -0.5000 
     22 CA          0.9111  -21.9976  -44.4970 C.3       10 UNK         0.1400 
     23 CB          2.3436  -21.4525  -44.5945 C.3       10 UNK        -0.1800 
     24 N           0.1051  -21.1326  -43.6341 N.am      10 UNK        -0.5000 
     25 C          -1.1304  -21.4351  -43.2101 C.2       9 UNK         0.5000 
     26 O          -1.7015  -22.4935  -43.4730 O.2       9 UNK        -0.5000 
     27 CA         -1.8695  -20.3641  -42.3877 C.3       9 UNK         0.1400 
     28 CB         -1.4050  -20.3827  -40.9239 C.3       9 UNK        -0.1800 
     29 N          -1.7090  -19.0176  -42.9347 N.am      9 UNK        -0.5000 
     30 C          -2.1436  -18.6272  -44.1417 C.2       8 UNK         0.5000 
     31 O          -2.7686  -19.3523  -44.9145 O.2       8 UNK        -0.5000 
     32 CA         -1.7647  -17.2011  -44.5819 C.3       8 UNK         0.1400 
     33 CB         -2.6870  -16.1735  -43.9070 C.3       8 UNK        -0.1800 
     34 N          -0.3583  -16.8794  -44.3135 N.am      8 UNK        -0.5000 
     35 C           0.6777  -17.5848  -44.7934 C.2       7 UNK         0.5000 
     36 O           0.5524  -18.5697  -45.5137 O.2       7 UNK        -0.5000 
     37 CA          2.0905  -17.1692  -44.3574 C.3       7 UNK         0.1400 
     38 CB          2.5991  -15.9903  -45.1931 C.3       7 UNK        -0.1800 
     39 N           2.1583  -16.8574  -42.9320 N.am      7 UNK        -0.5000 
     40 C           1.9770  -17.7662  -41.9633 C.2       6 UNK         0.5000 
     41 O           1.8332  -18.9722  -42.1696 O.2       6 UNK        -0.5000 
     42 CA          1.8680  -17.2202  -40.5304 C.3       6 UNK         0.1400 
     43 CB          3.2549  -16.9308  -39.9368 C.3       6 UNK        -0.1800 
     44 N           1.0366  -16.0158  -40.4777 N.am      6 UNK        -0.5000 
     45 C          -0.2873  -16.0168  -40.6928 C.2       5 UNK         0.5000 
     46 O          -0.9387  -17.0377  -40.9132 O.2       5 UNK        -0.5000 
     47 CA         -1.0094  -14.6572  -40.6844 C.3       5 UNK         0.1400 
     48 CB         -1.5454  -14.3455  -39.2794 C.3       5 UNK        -0.1800 
     49 N          -0.1816  -13.5407  -41.1391 N.am      5 UNK        -0.5000 
     50 C           0.3130  -13.3868  -42.3751 C.2       4 UNK         0.5000 
     51 O           0.1448  -14.2041  -43.2825 O.2       4 UNK        -0.5000 
     52 CA          1.1352  -12.1049  -42.6451 C.3       4 UNK         0.1400 
     53 CB          1.3200  -11.2055  -41.4026 C.3       4 UNK        -0.1800 
     54 N           2.4473  -12.3504  -43.2518 N.am      4 UNK        -0.5000 
     55 C           3.3754  -13.2481  -42.8929 C.2       3 UNK         0.5000 
     56 O           3.1940  -14.1197  -42.0404 O.2       3 UNK        -0.5000 
     57 CA          4.7369  -13.1480  -43.6191 C.3       3 UNK         0.1400 
     58 CB          5.6643  -14.3395  -43.3143 C.3       3 UNK        -0.1800 
     59 N           4.6153  -12.9834  -45.0747 N.am      3 UNK        -0.5000 
     60 C           4.3515  -11.8270  -45.7015 C.2       2 UNK         0.5000 
     61 O           4.0948  -10.7838  -45.1009 O.2       2 UNK        -0.5000 
     62 CA          4.3292  -11.8200  -47.2418 C.3       2 UNK         0.1400 
     63 CB          5.6079  -11.1651  -47.7852 C.3       2 UNK        -0.1800 
     64 N           4.2190  -13.1657  -47.8150 N.am      2 UNK        -0.5000 
     65 C           3.1355  -13.8197  -48.2690 C.2       1 UNK         0.5000 
     66 O           3.2265  -14.9947  -48.6180 O.2       1 UNK        -0.5000 
     67 C          -2.2262  -21.8261  -47.7260 C.2       11 UNK         0.5000 
     68 O          -2.5494  -22.5569  -48.6629 O.2       11 UNK        -0.5000 
     69 N          -2.9676  -21.6846  -46.6178 N.am      12 UNK        -0.5000 
     70 CA         -4.2008  -22.4277  -46.3548 C.3       12 UNK         0.1400 
     71 CB         -4.9057  -21.8472  -45.1200 C.3       12 UNK        -0.1800 
     72 C          -3.9600  -23.9401  -46.1889 C.2       12 UNK         0.5000 
     73 O          -4.7492  -24.7342  -46.7008 O.2       12 UNK        -0.5000 
     74 N          -2.8677  -24.3107  -45.5047 N.am      13 UNK        -0.5000 
     75 CA         -2.4290  -25.6966  -45.3297 C.3       13 UNK         0.1400 
     76 CB         -1.3399  -25.7612  -44.2481 C.3       13 UNK        -0.1800 
     77 C          -1.9391  -26.3354  -46.6433 C.2       13 UNK         0.5000 
     78 O          -2.2529  -27.4973  -46.9053 O.2       13 UNK        -0.5000 
     79 N          -1.1989  -25.5630  -47.4514 N.am      14 UNK        -0.5000 
     80 CA         -0.7410  -25.9443  -48.7899 C.3       14 UNK         0.1400 
     81 CB          0.2889  -24.9156  -49.2796 C.3       14 UNK        -0.1800 
     82 C          -1.8938  -26.0731  -49.8038 C.2       14 UNK         0.5000 
     83 O          -1.8126  -26.9002  -50.7135 O.2       14 UNK        -0.5000 
     84 N          -2.9422  -25.2587  -49.6187 N.am      15 UNK        -0.5000 
     85 CA         -4.1602  -25.1767  -50.4217 C.3       15 UNK         0.1400 
     86 CB         -5.0148  -26.4514  -50.2412 C.3       15 UNK        -0.1800 
     87 C          -3.8298  -24.8228  -51.8840 C.2       15 UNK         0.5000 
     88 O          -3.1552  -23.8185  -52.1161 O.2       15 UNK        -0.5000 
     89 N          -4.2642  -25.6615  -52.8351 N.am      16 UNK        -0.5000 
     90 CA         -4.0889  -25.4915  -54.2801 C.3       16 UNK         0.1400 
     91 CB         -4.7810  -26.6542  -55.0067 C.3       16 UNK        -0.1800 
     92 C          -2.6280  -25.3483  -54.7531 C.2       16 UNK         0.5000 
     93 O          -2.3996  -24.7781  -55.8205 O.2       16 UNK        -0.5000 
     94 N          -1.6684  -25.8381  -53.9542 N.am      17 UNK        -0.5000 
     95 CA         -0.2346  -25.6575  -54.1833 C.3       17 UNK         0.1400 
     96 CB          0.5495  -26.6322  -53.2925 C.3       17 UNK        -0.1800 
     97 C           0.2388  -24.2059  -53.9593 C.2       17 UNK         0.5000 
     98 O           1.2420  -23.8107  -54.5549 O.2       17 UNK        -0.5000 
     99 N          -0.4823  -23.4372  -53.1298 N.am      18 UNK        -0.5000 
    100 CA        -0.2718  -22.0032  -52.9467 C.3       18 UNK         0.1400 
    101 CB        -0.5811  -21.6044  -51.4962 C.3       18 UNK        -0.1800 
    102 C         -1.1313  -21.2175  -53.9483 C.2       18 UNK         0.5000 
    103 O         -0.5836  -20.4570  -54.7478 O.2       18 UNK        -0.5000 
    104 N         -2.4496  -21.4466  -53.9203 N.am      19 UNK        -0.5000 
    105 CA        -3.4271  -20.8730  -54.8407 C.3       19 UNK         0.1400 
    106 CB        -3.6494  -19.3777  -54.5495 C.3       19 UNK        -0.1800 
    107 C         -4.7418  -21.6468  -54.7045 C.2       19 UNK         0.5000 
    108 O         -5.0793  -22.0820  -53.6031 O.2       19 UNK        -0.5000 
    109 N         -5.4812  -21.7744  -55.8139 N.am      20 UNK        -0.5000 
    110 CA        -6.6922  -22.5952  -55.9597 C.3       20 UNK         0.1400 
    111 CB        -7.2161  -22.4477  -57.3966 C.3       20 UNK        -0.1800 
    112 C         -7.8262  -22.3225  -54.9483 C.2       20 UNK         0.5000 
    113 O         -8.6379  -23.2167  -54.7054 O.2       20 UNK        -0.5000 
    114 N         -7.8599  -21.1132  -54.3773 N.am      21 UNK        -0.5000 
    115 CA        -8.8066  -20.6995  -53.3435 C.3       21 UNK         0.1400 
    116 CB        -9.9387  -19.8841  -53.9968 C.3       21 UNK        -0.1800 
    117 C         -8.1061  -19.9321  -52.2043 C.2       21 UNK         0.5000 
    118 O         -8.7663  -19.1578  -51.5095 O.2       21 UNK        -0.5000 
    119 N         -6.7925  -20.1335  -52.0232 N.am      22 UNK        -0.5000 
    120 CA        -5.9886  -19.4467  -51.0014 C.3       22 UNK         0.1400 
    121 C         -4.7075  -20.2530  -50.6626 C.2       22 UNK         0.5000 
    122 N         -4.8488  -21.4675  -50.1507 N.am      22 UNK        -0.7600 
    123 O         -3.5882  -19.7965  -50.8671 O.2       22 UNK        -0.5000 
    124 C124       -5.7369  -17.9452  -51.3374 C.3       23 UNK        -0.0398 
    125 S125       -5.7501  -16.8862  -49.8507 S.3       23 UNK        -0.2404 
    126 C126       -4.6091  -15.5546  -50.3384 C.3       23 UNK        -0.0205 
    127 H127        1.5260  -10.3132  -51.8990 H         1 UNK         0.0600 
    128 H128        3.1506   -9.9951  -51.2811 H         1 UNK         0.0600 
    129 H129        1.7386   -9.6051  -50.2955 H         1 UNK         0.0600 
    130 H130        1.3834  -11.0768  -48.6849 H         1 UNK         0.3000 
    131 H131        1.1321  -13.8168  -48.9778 H         1 UNK         0.0600 
    132 H132        1.1303  -13.9151  -46.4621 H         1 UNK         0.0800 
    133 H133        1.5840  -12.2399  -46.4018 H         1 UNK         0.0800 
    134 H134       -2.4670  -13.7682  -46.1717 H         1 UNK         0.0800 
    135 H135       -0.9439  -14.5609  -45.8961 H         1 UNK         0.0800 
    136 H136       -3.7649  -14.1578  -48.1640 H         1 UNK         0.1150 
    137 H137       -2.4972  -17.1822  -50.9193 H         1 UNK         0.1150 
    138 H138        0.1461  -15.8791  -47.8025 H         1 UNK         0.1150 
    139 H139       -0.3240  -18.0829  -50.8477 H         1 UNK         0.0800 
    140 H140        0.8912  -16.9943  -50.2244 H         1 UNK         0.0800 
    141 H141       -1.6217  -19.0186  -47.6319 H         1 UNK         0.0800 
    142 H142       -1.6604  -19.6653  -49.2553 H         1 UNK         0.0800 
    143 H143       -0.2516  -21.6170  -48.4881 H         1 UNK         0.0600 
    144 H144       -0.0353  -20.1779  -46.0573 H         1 UNK         0.3000 
    145 H145        0.9594  -22.9814  -44.0256 H         1 UNK         0.0600 
    146 H146        2.8014  -21.3680  -43.6087 H         1 UNK         0.0600 
    147 H147        2.9718  -22.1156  -45.1905 H         1 UNK         0.0600 
    148 H148        2.3726  -20.4683  -45.0615 H         1 UNK         0.0600 
    149 H149        0.5135  -20.2447  -43.3663 H         1 UNK         0.3000 
    150 H150       -2.9339  -20.6062  -42.4092 H         1 UNK         0.0600 
    151 H151       -1.5237  -21.3755  -40.4881 H         1 UNK         0.0600 
    152 H152       -1.9878  -19.6889  -40.3177 H         1 UNK         0.0600 
    153 H153       -0.3546  -20.1047  -40.8308 H         1 UNK         0.0600 
    154 H154       -1.2364  -18.3403  -42.3429 H         1 UNK         0.3000 
    155 H155       -1.9090  -17.1329  -45.6621 H         1 UNK         0.0600 
    156 H156       -2.3702  -15.1496  -44.0983 H         1 UNK         0.0600 
    157 H157       -2.7238  -16.3127  -42.8274 H         1 UNK         0.0600 
    158 H158       -3.7074  -16.2739  -44.2783 H         1 UNK         0.0600 
    159 H159       -0.1701  -16.0485  -43.7597 H         1 UNK         0.3000 
    160 H160        2.7500  -18.0182  -44.5497 H         1 UNK         0.0600 
    161 H161        2.1607  -15.0510  -44.8628 H         1 UNK         0.0600 
    162 H162        2.3566  -16.1248  -46.2479 H         1 UNK         0.0600 
    163 H163        3.6811  -15.9028  -45.1272 H         1 UNK         0.0600 
    164 H164        2.2691  -15.8837  -42.6702 H         1 UNK         0.3000 
    165 H165        1.3932  -17.9887  -39.9164 H         1 UNK         0.0600 
    166 H166        3.7937  -16.1742  -40.5070 H         1 UNK         0.0600 
    167 H167        3.1777  -16.5826  -38.9068 H         1 UNK         0.0600 
    168 H168        3.8689  -17.8322  -39.9300 H         1 UNK         0.0600 
    169 H169        1.5144  -15.1328  -40.3625 H         1 UNK         0.3000 
    170 H170       -1.8618  -14.7301  -41.3610 H         1 UNK         0.0600 
    171 H171       -2.1914  -15.1483  -38.9211 H         1 UNK         0.0600 
    172 H172       -0.7369  -14.2276  -38.5568 H         1 UNK         0.0600 
    173 H173       -2.1365  -13.4295  -39.2761 H         1 UNK         0.0600 
    174 H174        0.0178  -12.8251  -40.4555 H         1 UNK         0.3000 
    175 H175        0.5626  -11.5385  -43.3809 H         1 UNK         0.0600 
    176 H176        1.8580  -10.2933  -41.6616 H         1 UNK         0.0600 
    177 H177        0.3615  -10.8953  -40.9844 H         1 UNK         0.0600 
    178 H178        1.8880  -11.7076  -40.6181 H         1 UNK         0.0600 
    179 H179        2.7292  -11.6834  -43.9619 H         1 UNK         0.3000 
    180 H180        5.2277  -12.2587  -43.2177 H         1 UNK         0.0600 
    181 H181        6.6251  -14.2312  -43.8177 H         1 UNK         0.0600 
    182 H182        5.8692  -14.4083  -42.2451 H         1 UNK         0.0600 
    183 H183        5.2297  -15.2899  -43.6200 H         1 UNK         0.0600 
    184 H184        4.7733  -13.8086  -45.6330 H         1 UNK         0.3000 
    185 H185        3.4964  -11.1855  -47.5328 H         1 UNK         0.0600 
    186 H186        5.5782  -11.0904  -48.8726 H         1 UNK         0.0600 
    187 H187        5.7276  -10.1532  -47.3954 H         1 UNK         0.0600 
    188 H188        6.4999  -11.7301  -47.5118 H         1 UNK         0.0600 
    189 H189        5.0894  -13.6761  -47.8352 H         1 UNK         0.3000 
    190 H190       -2.6785  -21.0162  -45.9089 H         1 UNK         0.3000 
    191 H191       -4.8612  -22.2905  -47.2135 H         1 UNK         0.0600 
    192 H192       -5.8350  -22.3797  -44.9140 H         1 UNK         0.0600 
    193 H193       -5.1589  -20.7975  -45.2693 H         1 UNK         0.0600 
    194 H194       -4.2818  -21.9172  -44.2289 H         1 UNK         0.0600 
    195 H195       -2.3014  -23.5945  -45.0612 H         1 UNK         0.3000 
    196 H196       -3.2849  -26.2771  -44.9789 H         1 UNK         0.0600 
    197 H197       -1.0138  -26.7888  -44.0831 H         1 UNK         0.0600 
    198 H198       -1.7083  -25.3796  -43.2957 H         1 UNK         0.0600 
    199 H199       -0.4612  -25.1778  -44.5233 H         1 UNK         0.0600 
    200 H200       -0.9148  -24.6447  -47.1200 H         1 UNK         0.3000 
    201 H201       -0.2496  -26.9167  -48.7184 H         1 UNK         0.0600 
    202 H202        1.1480  -24.8677  -48.6103 H         1 UNK         0.0600 
    203 H203       -0.1459  -23.9184  -49.3365 H         1 UNK         0.0600 
    204 H204        0.6626  -25.1677  -50.2717 H         1 UNK         0.0600 
    205 H205       -2.8464  -24.5327  -48.9170 H         1 UNK         0.3000 
    206 H206       -4.7321  -24.3378  -50.0251 H         1 UNK         0.0600 
    207 H207       -5.2337  -26.6199  -49.1864 H         1 UNK         0.0600 
    208 H208       -5.9731  -26.3609  -50.7541 H         1 UNK         0.0600 
    209 H209       -4.5136  -27.3439  -50.6174 H         1 UNK         0.0600 
    210 H210       -4.7773  -26.4801  -52.5430 H         1 UNK         0.3000 
    211 H211       -4.6011  -24.5711  -54.5567 H         1 UNK         0.0600 
    212 H212       -4.3386  -27.6145  -54.7390 H         1 UNK         0.0600 
    213 H213       -4.6987  -26.5445  -56.0889 H         1 UNK         0.0600 
    214 H214       -5.8438  -26.6934  -54.7669 H         1 UNK         0.0600 
    215 H215       -1.9387  -26.2795  -53.0847 H         1 UNK         0.3000 
    216 H216       -0.0239  -25.9119  -55.2242 H         1 UNK         0.0600 
    217 H217        1.6222  -26.5480  -53.4709 H         1 UNK         0.0600 
    218 H218        0.2666  -27.6656  -53.4934 H         1 UNK         0.0600 
    219 H219        0.3774  -26.4381  -52.2347 H         1 UNK         0.0600 
    220 H220       -1.3361  -23.8112  -52.7251 H         1 UNK         0.3000 
    221 H221        0.7746  -21.7535  -53.1349 H         1 UNK         0.0600 
    222 H222       -1.5927  -21.8802  -51.1979 H         1 UNK         0.0600 
    223 H223        0.1154  -22.0808  -50.8084 H         1 UNK         0.0600 
    224 H224       -0.4851  -20.5271  -51.3609 H         1 UNK         0.0600 
    225 H225       -2.8374  -22.0954  -53.2382 H         1 UNK         0.3000 
    226 H226       -3.0560  -20.9946  -55.8604 H         1 UNK         0.0600 
    227 H227       -2.7427  -18.7961  -54.7141 H         1 UNK         0.0600 
    228 H228       -4.4216  -18.9598  -55.1963 H         1 UNK         0.0600 
    229 H229       -3.9620  -19.2204  -53.5189 H         1 UNK         0.0600 
    230 H230       -5.1422  -21.3488  -56.6648 H         1 UNK         0.3000 
    231 H231       -6.3929  -23.6351  -55.8190 H         1 UNK         0.0600 
    232 H232       -8.0998  -23.0667  -57.5583 H         1 UNK         0.0600 
    233 H233       -6.4674  -22.7597  -58.1250 H         1 UNK         0.0600 
    234 H234       -7.4932  -21.4163  -57.6182 H         1 UNK         0.0600 
    235 H235       -7.1527  -20.4395  -54.6338 H         1 UNK         0.3000 
    236 H236       -9.2503  -21.5787  -52.8721 H         1 UNK         0.0600 
    237 H237       -9.5616  -18.9636  -54.4438 H         1 UNK         0.0600 
    238 H238      -10.4354  -20.4576  -54.7797 H         1 UNK         0.0600 
    239 H239      -10.7017  -19.6096  -53.2674 H         1 UNK         0.0600 
    240 H240       -6.3009  -20.8376  -52.5675 H         1 UNK         0.3000 
    241 H241       -6.5789  -19.4800  -50.0831 H         1 UNK         0.0600 
    242 H242       -4.0106  -21.9811  -49.9033 H         1 UNK         0.3800 
    243 H243       -5.7588  -21.8702  -50.0010 H         1 UNK         0.3800 
    244 H244       -6.5184  -17.5590  -51.9923 H         1 UNK         0.0800 
    245 H245       -4.8083  -17.8085  -51.8913 H         1 UNK         0.0800 
    246 H246       -4.4501  -15.5531  -51.4176 H         1 UNK         0.0800 
    247 H247       -5.0808  -14.5979  -50.1091 H         1 UNK         0.0800 
@<TRIPOS>BOND
     1    1    2 1    
     2    1  127 1    
     3    1  128 1    
     4    1  129 1    
     5    2    3 2    
     6    2    4 am   BACKBONE|DICT|INTERRES
     7    4    5 1    
     8    4  130 1    
     9    5    6 1    
    10    5   65 1    
    11    5  131 1    
    12    6    7 1    
    13    6  132 1    
    14    6  133 1    
    15    7    8 1    
    16    8    9 1    
    17    8  134 1    
    18    8  135 1    
    19    9   10 ar   
    20    9   14 ar   
    21   10   11 ar   
    22   10  136 1    
    23   11   12 ar   
    24   11  126 1    
    25   12   13 ar   
    26   12  137 1    
    27   13   14 ar   
    28   13   15 1    
    29   14  138 1    
    30   15   16 1    
    31   15  139 1    
    32   15  140 1    
    33   16   17 1    
    34   17   18 1    
    35   17  141 1    
    36   17  142 1    
    37   18   19 1    
    38   18   67 1    
    39   18  143 1    
    40   19   20 am   BACKBONE|DICT|INTERRES
    41   19  144 1    
    42   20   21 2    
    43   20   22 1    
    44   22   23 1    
    45   22   24 1    
    46   22  145 1    
    47   23  146 1    
    48   23  147 1    
    49   23  148 1    
    50   24   25 am   BACKBONE|DICT|INTERRES
    51   24  149 1    
    52   25   26 2    
    53   25   27 1    
    54   27   28 1    
    55   27   29 1    
    56   27  150 1    
    57   28  151 1    
    58   28  152 1    
    59   28  153 1    
    60   29   30 am   BACKBONE|DICT|INTERRES
    61   29  154 1    
    62   30   31 2    
    63   30   32 1    
    64   32   33 1    
    65   32   34 1    
    66   32  155 1    
    67   33  156 1    
    68   33  157 1    
    69   33  158 1    
    70   34   35 am   BACKBONE|DICT|INTERRES
    71   34  159 1    
    72   35   36 2    
    73   35   37 1    
    74   37   38 1    
    75   37   39 1    
    76   37  160 1    
    77   38  161 1    
    78   38  162 1    
    79   38  163 1    
    80   39   40 am   BACKBONE|DICT|INTERRES
    81   39  164 1    
    82   40   41 2    
    83   40   42 1    
    84   42   43 1    
    85   42   44 1    
    86   42  165 1    
    87   43  166 1    
    88   43  167 1    
    89   43  168 1    
    90   44   45 am   BACKBONE|DICT|INTERRES
    91   44  169 1    
    92   45   46 2    
    93   45   47 1    
    94   47   48 1    
    95   47   49 1    
    96   47  170 1    
    97   48  171 1    
    98   48  172 1    
    99   48  173 1    
   100   49   50 am   BACKBONE|DICT|INTERRES
   101   49  174 1    
   102   50   51 2    
   103   50   52 1    
   104   52   53 1    
   105   52   54 1    
   106   52  175 1    
   107   53  176 1    
   108   53  177 1    
   109   53  178 1    
   110   54   55 am   BACKBONE|DICT|INTERRES
   111   54  179 1    
   112   55   56 2    
   113   55   57 1    
   114   57   58 1    
   115   57   59 1    
   116   57  180 1    
   117   58  181 1    
   118   58  182 1    
   119   58  183 1    
   120   59   60 am   BACKBONE|DICT|INTERRES
   121   59  184 1    
   122   60   61 2    
   123   60   62 1    
   124   62   63 1    
   125   62   64 1    
   126   62  185 1    
   127   63  186 1    
   128   63  187 1    
   129   63  188 1    
   130   64   65 am   BACKBONE|DICT|INTERRES
   131   64  189 1    
   132   65   66 2    
   133   67   68 2    
   134   67   69 am   BACKBONE|DICT|INTERRES
   135   69   70 1    
   136   69  190 1    
   137   70   71 1    
   138   70   72 1    
   139   70  191 1    
   140   71  192 1    
   141   71  193 1    
   142   71  194 1    
   143   72   73 2    
   144   72   74 am   BACKBONE|DICT|INTERRES
   145   74   75 1    
   146   74  195 1    
   147   75   76 1    
   148   75   77 1    
   149   75  196 1    
   150   76  197 1    
   151   76  198 1    
   152   76  199 1    
   153   77   78 2    
   154   77   79 am   BACKBONE|DICT|INTERRES
   155   79   80 1    
   156   79  200 1    
   157   80   81 1    
   158   80   82 1    
   159   80  201 1    
   160   81  202 1    
   161   81  203 1    
   162   81  204 1    
   163   82   83 2    
   164   82   84 am   BACKBONE|DICT|INTERRES
   165   84   85 1    
   166   84  205 1    
   167   85   86 1    
   168   85   87 1    
   169   85  206 1    
   170   86  207 1    
   171   86  208 1    
   172   86  209 1    
   173   87   88 2    
   174   87   89 am   BACKBONE|DICT|INTERRES
   175   89   90 1    
   176   89  210 1    
   177   90   91 1    
   178   90   92 1    
   179   90  211 1    
   180   91  212 1    
   181   91  213 1    
   182   91  214 1    
   183   92   93 2    
   184   92   94 am   BACKBONE|DICT|INTERRES
   185   94   95 1    
   186   94  215 1    
   187   95   96 1    
   188   95   97 1    
   189   95  216 1    
   190   96  217 1    
   191   96  218 1    
   192   96  219 1    
   193   97   98 2    
   194   97   99 am   BACKBONE|DICT|INTERRES
   195   99  100 1    
   196   99  220 1    
   197  100  101 1    
   198  100  102 1    
   199  100  221 1    
   200  101  222 1    
   201  101  223 1    
   202  101  224 1    
   203  102  103 2    
   204  102  104 am   BACKBONE|DICT|INTERRES
   205  104  105 1    
   206  104  225 1    
   207  105  106 1    
   208  105  107 1    
   209  105  226 1    
   210  106  227 1    
   211  106  228 1    
   212  106  229 1    
   213  107  108 2    
   214  107  109 am   BACKBONE|DICT|INTERRES
   215  109  110 1    
   216  109  230 1    
   217  110  111 1    
   218  110  112 1    
   219  110  231 1    
   220  111  232 1    
   221  111  233 1    
   222  111  234 1    
   223  112  113 2    
   224  112  114 am   BACKBONE|DICT|INTERRES
   225  114  115 1    
   226  114  235 1    
   227  115  116 1    
   228  115  117 1    
   229  115  236 1    
   230  116  237 1    
   231  116  238 1    
   232  116  239 1    
   233  117  118 2    
   234  117  119 am   BACKBONE|DICT|INTERRES
   235  119  120 1    
   236  119  240 1    
   237  120  121 1    
   238  120  124 1    
   239  120  241 1    
   240  121  122 am   BACKBONE|DICT|INTERRES
   241  121  123 2    
   242  122  242 1    
   243  122  243 1    
   244  124  125 1    
   245  124  244 1    
   246  124  245 1    
   247  125  126 1    
   248  126  246 1    
   249  126  247 1    
@<TRIPOS>SUBSTRUCTURE
     1 UNK         1 GROUP             0       ****    0 ROOT    
