@<TRIPOS>MOLECULE
3R540
247   249    1
SMALL
USER_CHARGES


@<TRIPOS>ATOM
      1 CA         -0.7738   -9.2046  -48.8031 C.3       0 UNK        -0.1800 
      2 C          -0.0234  -10.3939  -48.2209 C.2       0 UNK         0.5000 
      3 O           1.1277  -10.2512  -47.8142 O.2       0 UNK        -0.5000 
      4 N          -0.6731  -11.5629  -48.1820 N.am      1 UNK        -0.5000 
      5 CA         -0.1421  -12.8195  -47.6364 C.3       1 UNK         0.1400 
      6 C6         -0.7852  -14.0488  -48.3259 C.3       23 UNK        -0.0398 
      7 S7         -2.6130  -14.0400  -48.3641 S.3       23 UNK        -0.2404 
      8 C8         -2.9332  -14.7867  -49.9943 C.3       23 UNK        -0.0205 
      9 C9         -2.5027  -16.2451  -50.0349 C.ar      23 UNK        -0.0193 
     10 C10        -1.2684  -16.6073  -50.5832 C.ar      23 UNK        -0.1150 
     11 C11        -0.8661  -17.9460  -50.6045 C.ar      23 UNK        -0.0193 
     12 C12        -1.7093  -18.9238  -50.0702 C.ar      23 UNK        -0.1150 
     13 C13        -2.9469  -18.5756  -49.5218 C.ar      23 UNK        -0.0193 
     14 C14        -3.3393  -17.2340  -49.5118 C.ar      23 UNK        -0.1150 
     15 C15        -3.8586  -19.6413  -48.9346 C.3       23 UNK        -0.0205 
     16 S16        -3.9055  -19.4927  -47.1269 S.3       23 UNK        -0.2404 
     17 C17        -4.7078  -21.0485  -46.6169 C.3       23 UNK        -0.0398 
     18 CA         -3.7283  -22.2458  -46.5440 C.3       11 UNK         0.1400 
     19 N          -2.4593  -21.9036  -45.8880 N.am      11 UNK        -0.5000 
     20 C          -1.3799  -22.6932  -45.8074 C.2       10 UNK         0.5000 
     21 O          -1.3671  -23.8600  -46.1958 O.2       10 UNK        -0.5000 
     22 CA         -0.1056  -22.0940  -45.1885 C.3       10 UNK         0.1400 
     23 CB          0.9234  -21.7882  -46.2880 C.3       10 UNK        -0.1800 
     24 N          -0.3584  -20.8828  -44.4031 N.am      10 UNK        -0.5000 
     25 C          -0.8952  -20.8806  -43.1728 C.2       9 UNK         0.5000 
     26 O          -1.2667  -21.9043  -42.5975 O.2       9 UNK        -0.5000 
     27 CA         -1.0472  -19.5232  -42.4586 C.3       9 UNK         0.1400 
     28 CB          0.0634  -19.3418  -41.4126 C.3       9 UNK        -0.1800 
     29 N          -1.0283  -18.3913  -43.3870 N.am      9 UNK        -0.5000 
     30 C          -2.0928  -17.9933  -44.0997 C.2       8 UNK         0.5000 
     31 O          -3.2087  -18.4973  -43.9719 O.2       8 UNK        -0.5000 
     32 CA         -1.8951  -16.8532  -45.1247 C.3       8 UNK         0.1400 
     33 CB         -2.4425  -15.5362  -44.5578 C.3       8 UNK        -0.1800 
     34 N          -0.5058  -16.6567  -45.5504 N.am      8 UNK        -0.5000 
     35 C           0.2249  -17.5719  -46.2027 C.2       7 UNK         0.5000 
     36 O          -0.2174  -18.6642  -46.5542 O.2       7 UNK        -0.5000 
     37 CA          1.7179  -17.2634  -46.4331 C.3       7 UNK         0.1400 
     38 CB          1.9649  -16.6843  -47.8341 C.3       7 UNK        -0.1800 
     39 N           2.3361  -16.3859  -45.4357 N.am      7 UNK        -0.5000 
     40 C           2.3722  -16.5866  -44.1133 C.2       6 UNK         0.5000 
     41 O           1.7931  -17.5231  -43.5627 O.2       6 UNK        -0.5000 
     42 CA          3.1717  -15.5975  -43.2379 C.3       6 UNK         0.1400 
     43 CB          4.4866  -16.2416  -42.7606 C.3       6 UNK        -0.1800 
     44 N           3.4338  -14.2631  -43.7968 N.am      6 UNK        -0.5000 
     45 C           4.1523  -13.9123  -44.8754 C.2       5 UNK         0.5000 
     46 O           4.6233  -14.7178  -45.6779 O.2       5 UNK        -0.5000 
     47 CA          4.3986  -12.4067  -45.1013 C.3       5 UNK         0.1400 
     48 CB          3.4510  -11.8539  -46.1718 C.3       5 UNK        -0.1800 
     49 N           4.2633  -11.6101  -43.8804 N.am      5 UNK        -0.5000 
     50 C           5.1488  -11.6233  -42.8735 C.2       4 UNK         0.5000 
     51 O           6.2140  -12.2405  -42.9148 O.2       4 UNK        -0.5000 
     52 CA          4.7914  -10.8341  -41.5978 C.3       4 UNK         0.1400 
     53 CB          5.5581   -9.5029  -41.5594 C.3       4 UNK        -0.1800 
     54 N           3.3629  -10.5592  -41.4156 N.am      4 UNK        -0.5000 
     55 C           2.3918  -11.4737  -41.2859 C.2       3 UNK         0.5000 
     56 O           2.5808  -12.6878  -41.3808 O.2       3 UNK        -0.5000 
     57 CA          0.9648  -10.9582  -41.0043 C.3       3 UNK         0.1400 
     58 CB          0.8485   -9.4195  -40.9012 C.3       3 UNK        -0.1800 
     59 N          -0.0097  -11.4793  -41.9667 N.am      3 UNK        -0.5000 
     60 C           0.0013  -11.3144  -43.2968 C.2       2 UNK         0.5000 
     61 O           0.8810  -10.7049  -43.9109 O.2       2 UNK        -0.5000 
     62 CA         -1.2169  -11.8943  -44.0410 C.3       2 UNK         0.1400 
     63 CB         -2.4635  -11.0279  -43.7977 C.3       2 UNK        -0.1800 
     64 N          -1.0064  -11.9932  -45.4827 N.am      2 UNK        -0.5000 
     65 C          -0.2499  -12.9108  -46.0969 C.2       1 UNK         0.5000 
     66 O           0.3375  -13.8174  -45.5027 O.2       1 UNK        -0.5000 
     67 C          -4.4242  -23.4826  -45.9344 C.2       11 UNK         0.5000 
     68 O          -5.1672  -24.1677  -46.6372 O.2       11 UNK        -0.5000 
     69 N          -4.1385  -23.7733  -44.6572 N.am      12 UNK        -0.5000 
     70 CA         -4.5887  -24.9693  -43.9453 C.3       12 UNK         0.1400 
     71 CB         -4.2277  -24.8270  -42.4592 C.3       12 UNK        -0.1800 
     72 C          -4.0124  -26.2814  -44.5163 C.2       12 UNK         0.5000 
     73 O          -4.6563  -27.3244  -44.3926 O.2       12 UNK        -0.5000 
     74 N          -2.8341  -26.2186  -45.1542 N.am      13 UNK        -0.5000 
     75 CA         -2.1732  -27.3482  -45.8060 C.3       13 UNK         0.1400 
     76 CB         -0.6502  -27.1219  -45.7926 C.3       13 UNK        -0.1800 
     77 C          -2.7315  -27.5518  -47.2269 C.2       13 UNK         0.5000 
     78 O          -2.0114  -27.3615  -48.2082 O.2       13 UNK        -0.5000 
     79 N          -4.0219  -27.9074  -47.3047 N.am      14 UNK        -0.5000 
     80 CA         -4.7867  -28.2214  -48.5172 C.3       14 UNK         0.1400 
     81 CB         -4.3137  -29.5665  -49.1077 C.3       14 UNK        -0.1800 
     82 C          -4.7640  -27.0782  -49.5523 C.2       14 UNK         0.5000 
     83 O          -4.3496  -27.2853  -50.6940 O.2       14 UNK        -0.5000 
     84 N          -5.1687  -25.8762  -49.1151 N.am      15 UNK        -0.5000 
     85 CA         -5.1861  -24.6287  -49.8907 C.3       15 UNK         0.1400 
     86 CB         -6.1845  -24.7213  -51.0629 C.3       15 UNK        -0.1800 
     87 C          -3.7738  -24.1868  -50.3278 C.2       15 UNK         0.5000 
     88 O          -3.6031  -23.6769  -51.4378 O.2       15 UNK        -0.5000 
     89 N          -2.7971  -24.4155  -49.4352 N.am      16 UNK        -0.5000 
     90 CA         -1.3569  -24.2013  -49.5998 C.3       16 UNK         0.1400 
     91 CB         -1.0302  -22.6991  -49.7168 C.3       16 UNK        -0.1800 
     92 C          -0.7901  -25.0497  -50.7530 C.2       16 UNK         0.5000 
     93 O          -0.2125  -24.5125  -51.6980 O.2       16 UNK        -0.5000 
     94 N          -1.0077  -26.3690  -50.6537 N.am      17 UNK        -0.5000 
     95 CA         -0.6643  -27.4033  -51.6338 C.3       17 UNK         0.1400 
     96 CB          0.8658  -27.5702  -51.7405 C.3       17 UNK        -0.1800 
     97 C          -1.3518  -27.1682  -52.9950 C.2       17 UNK         0.5000 
     98 O          -0.7020  -27.2213  -54.0411 O.2       17 UNK        -0.5000 
     99 N          -2.6644  -26.9017  -52.9377 N.am      18 UNK        -0.5000 
    100 CA        -3.5711  -26.6276  -54.0547 C.3       18 UNK         0.1400 
    101 CB        -3.7375  -27.8787  -54.9426 C.3       18 UNK        -0.1800 
    102 C         -3.2157  -25.3577  -54.8584 C.2       18 UNK         0.5000 
    103 O         -3.5002  -25.2950  -56.0562 O.2       18 UNK        -0.5000 
    104 N         -2.6252  -24.3546  -54.1922 N.am      19 UNK        -0.5000 
    105 CA        -2.3610  -23.0347  -54.7686 C.3       19 UNK         0.1400 
    106 CB        -1.3548  -22.2705  -53.8967 C.3       19 UNK        -0.1800 
    107 C         -3.6524  -22.2162  -54.9380 C.2       19 UNK         0.5000 
    108 O         -3.7856  -21.5070  -55.9354 O.2       19 UNK        -0.5000 
    109 N         -4.5775  -22.3554  -53.9726 N.am      20 UNK        -0.5000 
    110 CA        -5.9053  -21.7286  -53.9285 C.3       20 UNK         0.1400 
    111 CB        -6.8167  -22.3110  -55.0289 C.3       20 UNK        -0.1800 
    112 C         -5.8342  -20.1870  -53.9393 C.2       20 UNK         0.5000 
    113 O         -6.5477  -19.5362  -54.7046 O.2       20 UNK        -0.5000 
    114 N         -4.9607  -19.6620  -53.0682 N.am      21 UNK        -0.5000 
    115 CA        -4.5363  -18.2690  -52.9118 C.3       21 UNK         0.1400 
    116 CB        -5.7137  -17.2899  -52.7396 C.3       21 UNK        -0.1800 
    117 C         -3.5687  -17.8417  -54.0281 C.2       21 UNK         0.5000 
    118 O         -3.9294  -17.8403  -55.2059 O.2       21 UNK        -0.5000 
    119 N         -2.3427  -17.4940  -53.6235 N.am      22 UNK        -0.5000 
    120 CA        -1.2185  -17.1592  -54.5134 C.3       22 UNK         0.1400 
    121 C         -1.3300  -15.7836  -55.2366 C.2       22 UNK         0.5000 
    122 N         -2.2675  -14.9140  -54.8803 N.am      22 UNK        -0.7600 
    123 O         -0.5496  -15.5013  -56.1417 O.2       22 UNK        -0.5000 
    124 C124        0.1474  -17.2784  -53.7867 C.3       23 UNK        -0.0398 
    125 S125        0.3805  -18.8703  -52.9170 S.3       23 UNK        -0.2404 
    126 C126        0.4885  -18.3394  -51.1771 C.3       23 UNK        -0.0205 
    127 H127       -0.2362   -8.8071  -49.6640 H         1 UNK         0.0600 
    128 H128       -0.8586   -8.4136  -48.0579 H         1 UNK         0.0600 
    129 H129       -1.7789   -9.4770  -49.1261 H         1 UNK         0.0600 
    130 H130       -1.6175  -11.6210  -48.5384 H         1 UNK         0.3000 
    131 H131        0.9268  -12.8572  -47.8571 H         1 UNK         0.0600 
    132 H132       -0.4683  -14.9810  -47.8600 H         1 UNK         0.0800 
    133 H133       -0.4141  -14.0921  -49.3498 H         1 UNK         0.0800 
    134 H134       -2.4268  -14.2111  -50.7708 H         1 UNK         0.0800 
    135 H135       -4.0001  -14.7159  -50.2112 H         1 UNK         0.0800 
    136 H136       -0.6157  -15.8447  -50.9828 H         1 UNK         0.1150 
    137 H137       -1.3932  -19.9555  -50.0751 H         1 UNK         0.1150 
    138 H138       -4.2912  -16.9582  -49.0796 H         1 UNK         0.1150 
    139 H139       -4.8659  -19.5321  -49.3388 H         1 UNK         0.0800 
    140 H140       -3.5117  -20.6372  -49.2138 H         1 UNK         0.0800 
    141 H141       -5.5332  -21.2651  -47.2974 H         1 UNK         0.0800 
    142 H142       -5.1577  -20.8667  -45.6390 H         1 UNK         0.0800 
    143 H143       -3.4739  -22.5134  -47.5694 H         1 UNK         0.0600 
    144 H144       -2.3767  -20.9494  -45.5652 H         1 UNK         0.3000 
    145 H145        0.3236  -22.8496  -44.5272 H         1 UNK         0.0600 
    146 H146        0.5217  -21.1106  -47.0417 H         1 UNK         0.0600 
    147 H147        1.8260  -21.3378  -45.8749 H         1 UNK         0.0600 
    148 H148        1.2217  -22.7019  -46.8037 H         1 UNK         0.0600 
    149 H149       -0.1350  -20.0008  -44.8485 H         1 UNK         0.3000 
    150 H150       -2.0028  -19.5329  -41.9300 H         1 UNK         0.0600 
    151 H151        0.0038  -20.1147  -40.6453 H         1 UNK         0.0600 
    152 H152       -0.0180  -18.3777  -40.9104 H         1 UNK         0.0600 
    153 H153        1.0552  -19.4055  -41.8609 H         1 UNK         0.0600 
    154 H154       -0.1277  -17.9450  -43.5369 H         1 UNK         0.3000 
    155 H155       -2.4769  -17.1066  -46.0127 H         1 UNK         0.0600 
    156 H156       -3.4772  -15.6488  -44.2315 H         1 UNK         0.0600 
    157 H157       -2.4294  -14.7474  -45.3086 H         1 UNK         0.0600 
    158 H158       -1.8604  -15.2028  -43.6985 H         1 UNK         0.0600 
    159 H159       -0.0718  -15.7697  -45.3130 H         1 UNK         0.3000 
    160 H160        2.2369  -18.2223  -46.3760 H         1 UNK         0.0600 
    161 H161        3.0167  -16.7680  -48.1080 H         1 UNK         0.0600 
    162 H162        1.6970  -15.6303  -47.8900 H         1 UNK         0.0600 
    163 H163        1.3893  -17.2176  -48.5909 H         1 UNK         0.0600 
    164 H164        2.8984  -15.6208  -45.7906 H         1 UNK         0.3000 
    165 H165        2.5561  -15.4208  -42.3547 H         1 UNK         0.0600 
    166 H166        5.1580  -16.4561  -43.5926 H         1 UNK         0.0600 
    167 H167        5.0133  -15.5897  -42.0633 H         1 UNK         0.0600 
    168 H168        4.2965  -17.1833  -42.2439 H         1 UNK         0.0600 
    169 H169        3.0870  -13.5088  -43.2139 H         1 UNK         0.3000 
    170 H170        5.4204  -12.2989  -45.4715 H         1 UNK         0.0600 
    171 H171        2.4170  -11.8694  -45.8320 H         1 UNK         0.0600 
    172 H172        3.7003  -10.8237  -46.4260 H         1 UNK         0.0600 
    173 H173        3.5058  -12.4381  -47.0913 H         1 UNK         0.0600 
    174 H174        3.4051  -11.0860  -43.7692 H         1 UNK         0.3000 
    175 H175        5.1167  -11.4387  -40.7487 H         1 UNK         0.0600 
    176 H176        5.2510   -8.8396  -42.3691 H         1 UNK         0.0600 
    177 H177        5.3970   -8.9804  -40.6162 H         1 UNK         0.0600 
    178 H178        6.6322   -9.6657  -41.6582 H         1 UNK         0.0600 
    179 H179        3.1046   -9.5854  -41.3490 H         1 UNK         0.3000 
    180 H180        0.6867  -11.3712  -40.0336 H         1 UNK         0.0600 
    181 H181        1.1244   -8.9207  -41.8311 H         1 UNK         0.0600 
    182 H182        1.4839   -9.0258  -40.1069 H         1 UNK         0.0600 
    183 H183       -0.1735   -9.1240  -40.6631 H         1 UNK         0.0600 
    184 H184       -0.7618  -12.0176  -41.5604 H         1 UNK         0.3000 
    185 H185       -1.4060  -12.8943  -43.6489 H         1 UNK         0.0600 
    186 H186       -3.3383  -11.4486  -44.2944 H         1 UNK         0.0600 
    187 H187       -2.6995  -10.9604  -42.7351 H         1 UNK         0.0600 
    188 H188       -2.3241  -10.0111  -44.1674 H         1 UNK         0.0600 
    189 H189       -1.4149  -11.2651  -46.0485 H         1 UNK         0.3000 
    190 H190       -3.5044  -23.1638  -44.1600 H         1 UNK         0.3000 
    191 H191       -5.6759  -25.0234  -44.0316 H         1 UNK         0.0600 
    192 H192       -3.1502  -24.7366  -42.3143 H         1 UNK         0.0600 
    193 H193       -4.6998  -23.9475  -42.0208 H         1 UNK         0.0600 
    194 H194       -4.5650  -25.6938  -41.8893 H         1 UNK         0.0600 
    195 H195       -2.3910  -25.3152  -45.2881 H         1 UNK         0.3000 
    196 H196       -2.3720  -28.2608  -45.2400 H         1 UNK         0.0600 
    197 H197       -0.2817  -26.9761  -44.7772 H         1 UNK         0.0600 
    198 H198       -0.3601  -26.2523  -46.3822 H         1 UNK         0.0600 
    199 H199       -0.1272  -27.9842  -46.2078 H         1 UNK         0.0600 
    200 H200       -4.5299  -27.9804  -46.4300 H         1 UNK         0.3000 
    201 H201       -5.8268  -28.3414  -48.2111 H         1 UNK         0.0600 
    202 H202       -4.9283  -29.8562  -49.9609 H         1 UNK         0.0600 
    203 H203       -4.3845  -30.3667  -48.3711 H         1 UNK         0.0600 
    204 H204       -3.2797  -29.5182  -49.4512 H         1 UNK         0.0600 
    205 H205       -5.4356  -25.7750  -48.1426 H         1 UNK         0.3000 
    206 H206       -5.5511  -23.8502  -49.2205 H         1 UNK         0.0600 
    207 H207       -7.1604  -25.0677  -50.7231 H         1 UNK         0.0600 
    208 H208       -5.8410  -25.4001  -51.8428 H         1 UNK         0.0600 
    209 H209       -6.3330  -23.7455  -51.5212 H         1 UNK         0.0600 
    210 H210       -3.0585  -24.8906  -48.5833 H         1 UNK         0.3000 
    211 H211       -0.8793  -24.5707  -48.6916 H         1 UNK         0.0600 
    212 H212       -1.3818  -22.1498  -48.8444 H         1 UNK         0.0600 
    213 H213        0.0459  -22.5377  -49.7869 H         1 UNK         0.0600 
    214 H214       -1.4858  -22.2532  -50.5992 H         1 UNK         0.0600 
    215 H215       -1.4823  -26.7092  -49.8180 H         1 UNK         0.3000 
    216 H216       -1.0707  -28.3376  -51.2435 H         1 UNK         0.0600 
    217 H217        1.1217  -28.4154  -52.3804 H         1 UNK         0.0600 
    218 H218        1.3433  -26.6852  -52.1621 H         1 UNK         0.0600 
    219 H219        1.3100  -27.7575  -50.7630 H         1 UNK         0.0600 
    220 H220       -3.1160  -26.9186  -52.0247 H         1 UNK         0.3000 
    221 H221       -4.5416  -26.4245  -53.6012 H         1 UNK         0.0600 
    222 H222       -2.8230  -28.1136  -55.4878 H         1 UNK         0.0600 
    223 H223       -4.0074  -28.7508  -54.3470 H         1 UNK         0.0600 
    224 H224       -4.5288  -27.7346  -55.6791 H         1 UNK         0.0600 
    225 H225       -2.4450  -24.4610  -53.2013 H         1 UNK         0.3000 
    226 H226       -1.9155  -23.1709  -55.7563 H         1 UNK         0.0600 
    227 H227       -0.4089  -22.8066  -53.8223 H         1 UNK         0.0600 
    228 H228       -1.1389  -21.2885  -54.3195 H         1 UNK         0.0600 
    229 H229       -1.7344  -22.1150  -52.8876 H         1 UNK         0.0600 
    230 H230       -4.3311  -22.9340  -53.1745 H         1 UNK         0.3000 
    231 H231       -6.3454  -21.9961  -52.9686 H         1 UNK         0.0600 
    232 H232       -7.8361  -21.9362  -54.9305 H         1 UNK         0.0600 
    233 H233       -6.8635  -23.3982  -54.9655 H         1 UNK         0.0600 
    234 H234       -6.4668  -22.0484  -56.0276 H         1 UNK         0.0600 
    235 H235       -4.4265  -20.3234  -52.5230 H         1 UNK         0.3000 
    236 H236       -3.9834  -18.2557  -51.9767 H         1 UNK         0.0600 
    237 H237       -6.3964  -17.6263  -51.9594 H         1 UNK         0.0600 
    238 H238       -5.3513  -16.3027  -52.4510 H         1 UNK         0.0600 
    239 H239       -6.2847  -17.1666  -53.6599 H         1 UNK         0.0600 
    240 H240       -2.1184  -17.5275  -52.6386 H         1 UNK         0.3000 
    241 H241       -1.2200  -17.9069  -55.3091 H         1 UNK         0.0600 
    242 H242       -2.9239  -15.1388  -54.1510 H         1 UNK         0.3800 
    243 H243       -2.3316  -14.0294  -55.3593 H         1 UNK         0.3800 
    244 H244        0.9613  -17.1837  -54.5076 H         1 UNK         0.0800 
    245 H245        0.2793  -16.4535  -53.0862 H         1 UNK         0.0800 
    246 H246        0.9039  -19.1591  -50.5888 H         1 UNK         0.0800 
    247 H247        1.1992  -17.5165  -51.0871 H         1 UNK         0.0800 
@<TRIPOS>BOND
     1    1    2 1    
     2    1  127 1    
     3    1  128 1    
     4    1  129 1    
     5    2    3 2    
     6    2    4 am   BACKBONE|DICT|INTERRES
     7    4    5 1    
     8    4  130 1    
     9    5    6 1    
    10    5   65 1    
    11    5  131 1    
    12    6    7 1    
    13    6  132 1    
    14    6  133 1    
    15    7    8 1    
    16    8    9 1    
    17    8  134 1    
    18    8  135 1    
    19    9   10 ar   
    20    9   14 ar   
    21   10   11 ar   
    22   10  136 1    
    23   11   12 ar   
    24   11  126 1    
    25   12   13 ar   
    26   12  137 1    
    27   13   14 ar   
    28   13   15 1    
    29   14  138 1    
    30   15   16 1    
    31   15  139 1    
    32   15  140 1    
    33   16   17 1    
    34   17   18 1    
    35   17  141 1    
    36   17  142 1    
    37   18   19 1    
    38   18   67 1    
    39   18  143 1    
    40   19   20 am   BACKBONE|DICT|INTERRES
    41   19  144 1    
    42   20   21 2    
    43   20   22 1    
    44   22   23 1    
    45   22   24 1    
    46   22  145 1    
    47   23  146 1    
    48   23  147 1    
    49   23  148 1    
    50   24   25 am   BACKBONE|DICT|INTERRES
    51   24  149 1    
    52   25   26 2    
    53   25   27 1    
    54   27   28 1    
    55   27   29 1    
    56   27  150 1    
    57   28  151 1    
    58   28  152 1    
    59   28  153 1    
    60   29   30 am   BACKBONE|DICT|INTERRES
    61   29  154 1    
    62   30   31 2    
    63   30   32 1    
    64   32   33 1    
    65   32   34 1    
    66   32  155 1    
    67   33  156 1    
    68   33  157 1    
    69   33  158 1    
    70   34   35 am   BACKBONE|DICT|INTERRES
    71   34  159 1    
    72   35   36 2    
    73   35   37 1    
    74   37   38 1    
    75   37   39 1    
    76   37  160 1    
    77   38  161 1    
    78   38  162 1    
    79   38  163 1    
    80   39   40 am   BACKBONE|DICT|INTERRES
    81   39  164 1    
    82   40   41 2    
    83   40   42 1    
    84   42   43 1    
    85   42   44 1    
    86   42  165 1    
    87   43  166 1    
    88   43  167 1    
    89   43  168 1    
    90   44   45 am   BACKBONE|DICT|INTERRES
    91   44  169 1    
    92   45   46 2    
    93   45   47 1    
    94   47   48 1    
    95   47   49 1    
    96   47  170 1    
    97   48  171 1    
    98   48  172 1    
    99   48  173 1    
   100   49   50 am   BACKBONE|DICT|INTERRES
   101   49  174 1    
   102   50   51 2    
   103   50   52 1    
   104   52   53 1    
   105   52   54 1    
   106   52  175 1    
   107   53  176 1    
   108   53  177 1    
   109   53  178 1    
   110   54   55 am   BACKBONE|DICT|INTERRES
   111   54  179 1    
   112   55   56 2    
   113   55   57 1    
   114   57   58 1    
   115   57   59 1    
   116   57  180 1    
   117   58  181 1    
   118   58  182 1    
   119   58  183 1    
   120   59   60 am   BACKBONE|DICT|INTERRES
   121   59  184 1    
   122   60   61 2    
   123   60   62 1    
   124   62   63 1    
   125   62   64 1    
   126   62  185 1    
   127   63  186 1    
   128   63  187 1    
   129   63  188 1    
   130   64   65 am   BACKBONE|DICT|INTERRES
   131   64  189 1    
   132   65   66 2    
   133   67   68 2    
   134   67   69 am   BACKBONE|DICT|INTERRES
   135   69   70 1    
   136   69  190 1    
   137   70   71 1    
   138   70   72 1    
   139   70  191 1    
   140   71  192 1    
   141   71  193 1    
   142   71  194 1    
   143   72   73 2    
   144   72   74 am   BACKBONE|DICT|INTERRES
   145   74   75 1    
   146   74  195 1    
   147   75   76 1    
   148   75   77 1    
   149   75  196 1    
   150   76  197 1    
   151   76  198 1    
   152   76  199 1    
   153   77   78 2    
   154   77   79 am   BACKBONE|DICT|INTERRES
   155   79   80 1    
   156   79  200 1    
   157   80   81 1    
   158   80   82 1    
   159   80  201 1    
   160   81  202 1    
   161   81  203 1    
   162   81  204 1    
   163   82   83 2    
   164   82   84 am   BACKBONE|DICT|INTERRES
   165   84   85 1    
   166   84  205 1    
   167   85   86 1    
   168   85   87 1    
   169   85  206 1    
   170   86  207 1    
   171   86  208 1    
   172   86  209 1    
   173   87   88 2    
   174   87   89 am   BACKBONE|DICT|INTERRES
   175   89   90 1    
   176   89  210 1    
   177   90   91 1    
   178   90   92 1    
   179   90  211 1    
   180   91  212 1    
   181   91  213 1    
   182   91  214 1    
   183   92   93 2    
   184   92   94 am   BACKBONE|DICT|INTERRES
   185   94   95 1    
   186   94  215 1    
   187   95   96 1    
   188   95   97 1    
   189   95  216 1    
   190   96  217 1    
   191   96  218 1    
   192   96  219 1    
   193   97   98 2    
   194   97   99 am   BACKBONE|DICT|INTERRES
   195   99  100 1    
   196   99  220 1    
   197  100  101 1    
   198  100  102 1    
   199  100  221 1    
   200  101  222 1    
   201  101  223 1    
   202  101  224 1    
   203  102  103 2    
   204  102  104 am   BACKBONE|DICT|INTERRES
   205  104  105 1    
   206  104  225 1    
   207  105  106 1    
   208  105  107 1    
   209  105  226 1    
   210  106  227 1    
   211  106  228 1    
   212  106  229 1    
   213  107  108 2    
   214  107  109 am   BACKBONE|DICT|INTERRES
   215  109  110 1    
   216  109  230 1    
   217  110  111 1    
   218  110  112 1    
   219  110  231 1    
   220  111  232 1    
   221  111  233 1    
   222  111  234 1    
   223  112  113 2    
   224  112  114 am   BACKBONE|DICT|INTERRES
   225  114  115 1    
   226  114  235 1    
   227  115  116 1    
   228  115  117 1    
   229  115  236 1    
   230  116  237 1    
   231  116  238 1    
   232  116  239 1    
   233  117  118 2    
   234  117  119 am   BACKBONE|DICT|INTERRES
   235  119  120 1    
   236  119  240 1    
   237  120  121 1    
   238  120  124 1    
   239  120  241 1    
   240  121  122 am   BACKBONE|DICT|INTERRES
   241  121  123 2    
   242  122  242 1    
   243  122  243 1    
   244  124  125 1    
   245  124  244 1    
   246  124  245 1    
   247  125  126 1    
   248  126  246 1    
   249  126  247 1    
@<TRIPOS>SUBSTRUCTURE
     1 UNK         1 GROUP             0       ****    0 ROOT    
