@<TRIPOS>MOLECULE
3R540
247   249    1
SMALL
USER_CHARGES


@<TRIPOS>ATOM
      1 CA          0.9019  -15.3109  -47.1457 C.3       0 UNK        -0.1800 
      2 C           0.2213  -14.1957  -46.3738 C.2       0 UNK         0.5000 
      3 O           0.8388  -13.6016  -45.4913 O.2       0 UNK        -0.5000 
      4 N          -1.0345  -13.8805  -46.7229 N.am      1 UNK        -0.5000 
      5 CA         -1.8617  -12.8295  -46.1016 C.3       1 UNK         0.1400 
      6 C6         -3.3358  -12.8797  -46.5726 C.3       23 UNK        -0.0398 
      7 S7         -4.1502  -14.4547  -46.1388 S.3       23 UNK        -0.2404 
      8 C8         -4.5681  -15.1541  -47.7673 C.3       23 UNK        -0.0205 
      9 C9         -3.3298  -15.5371  -48.5615 C.ar      23 UNK        -0.0193 
     10 C10        -2.8820  -14.7223  -49.6048 C.ar      23 UNK        -0.1150 
     11 C11        -1.7392  -15.0639  -50.3318 C.ar      23 UNK        -0.0193 
     12 C12        -1.0494  -16.2378  -50.0142 C.ar      23 UNK        -0.1150 
     13 C13        -1.4797  -17.0540  -48.9634 C.ar      23 UNK        -0.0193 
     14 C14        -2.6247  -16.7019  -48.2474 C.ar      23 UNK        -0.1150 
     15 C15        -0.6746  -18.2816  -48.5676 C.3       23 UNK        -0.0205 
     16 S16        -1.0349  -19.7113  -49.6282 S.3       23 UNK        -0.2404 
     17 C17        -2.3959  -20.5510  -48.7466 C.3       23 UNK        -0.0398 
     18 CA         -1.8444  -21.7076  -47.8808 C.3       11 UNK         0.1400 
     19 N          -1.1895  -21.2234  -46.6623 N.am      11 UNK        -0.5000 
     20 C          -0.1440  -21.8266  -46.0828 C.2       10 UNK         0.5000 
     21 O           0.3728  -22.8600  -46.5070 O.2       10 UNK        -0.5000 
     22 CA          0.3963  -21.1788  -44.7934 C.3       10 UNK         0.1400 
     23 CB          1.3025  -19.9847  -45.1293 C.3       10 UNK        -0.1800 
     24 N          -0.6613  -20.7415  -43.8807 N.am      10 UNK        -0.5000 
     25 C          -1.5666  -21.5539  -43.3172 C.2       9 UNK         0.5000 
     26 O          -1.5933  -22.7718  -43.4872 O.2       9 UNK        -0.5000 
     27 CA         -2.6657  -20.8940  -42.4664 C.3       9 UNK         0.1400 
     28 CB         -2.2455  -20.8111  -40.9917 C.3       9 UNK        -0.1800 
     29 N          -3.0609  -19.5703  -42.9491 N.am      9 UNK        -0.5000 
     30 C          -3.5954  -19.3166  -44.1537 C.2       8 UNK         0.5000 
     31 O          -3.7631  -20.1711  -45.0243 O.2       8 UNK        -0.5000 
     32 CA         -3.9848  -17.8577  -44.4454 C.3       8 UNK         0.1400 
     33 CB         -5.4443  -17.5997  -44.0447 C.3       8 UNK        -0.1800 
     34 N          -3.1197  -16.8928  -43.7685 N.am      8 UNK        -0.5000 
     35 C          -1.8225  -16.7031  -44.0447 C.2       7 UNK         0.5000 
     36 O          -1.2274  -17.2949  -44.9479 O.2       7 UNK        -0.5000 
     37 CA         -1.0615  -15.6910  -43.1578 C.3       7 UNK         0.1400 
     38 CB         -1.8256  -15.2778  -41.8800 C.3       7 UNK        -0.1800 
     39 N           0.2867  -16.1391  -42.8001 N.am      7 UNK        -0.5000 
     40 C           0.6393  -17.2964  -42.2247 C.2       6 UNK         0.5000 
     41 O          -0.1557  -18.2039  -41.9751 O.2       6 UNK        -0.5000 
     42 CA          2.1352  -17.4575  -41.8666 C.3       6 UNK         0.1400 
     43 CB          2.4352  -18.8046  -41.1824 C.3       6 UNK        -0.1800 
     44 N           3.0248  -17.3117  -43.0224 N.am      6 UNK        -0.5000 
     45 C           3.3253  -16.1647  -43.6432 C.2       5 UNK         0.5000 
     46 O           2.8827  -15.0668  -43.2913 O.2       5 UNK        -0.5000 
     47 CA          4.2612  -16.2595  -44.8604 C.3       5 UNK         0.1400 
     48 CB          3.8669  -17.4014  -45.8219 C.3       5 UNK        -0.1800 
     49 N           4.2280  -14.9788  -45.5560 N.am      5 UNK        -0.5000 
     50 C           5.1485  -14.4994  -46.3990 C.2       4 UNK         0.5000 
     51 O           6.1749  -15.1064  -46.7066 O.2       4 UNK        -0.5000 
     52 CA          4.8755  -13.1114  -47.0131 C.3       4 UNK         0.1400 
     53 CB          4.4193  -13.2512  -48.4744 C.3       4 UNK        -0.1800 
     54 N           3.8544  -12.3614  -46.2809 N.am      4 UNK        -0.5000 
     55 C           4.0631  -11.6543  -45.1624 C.2       3 UNK         0.5000 
     56 O           5.1711  -11.5138  -44.6424 O.2       3 UNK        -0.5000 
     57 CA          2.8128  -11.0256  -44.5131 C.3       3 UNK         0.1400 
     58 CB          3.1186   -9.7565  -43.6900 C.3       3 UNK        -0.1800 
     59 N           1.7231  -10.8179  -45.4756 N.am      3 UNK        -0.5000 
     60 C           1.6327   -9.9021  -46.4540 C.2       2 UNK         0.5000 
     61 O           2.4591   -9.0058  -46.6265 O.2       2 UNK        -0.5000 
     62 CA          0.4408  -10.0215  -47.4360 C.3       2 UNK         0.1400 
     63 CB          0.9289  -10.0181  -48.8952 C.3       2 UNK        -0.1800 
     64 N          -0.3671  -11.2268  -47.2316 N.am      2 UNK        -0.5000 
     65 C          -1.2856  -11.4039  -46.2721 C.2       1 UNK         0.5000 
     66 O          -1.6459  -10.5095  -45.5070 O.2       1 UNK        -0.5000 
     67 C          -2.9109  -22.7737  -47.5585 C.2       11 UNK         0.5000 
     68 O          -3.1227  -23.6705  -48.3747 O.2       11 UNK        -0.5000 
     69 N          -3.5201  -22.7210  -46.3639 N.am      12 UNK        -0.5000 
     70 CA         -4.4167  -23.7646  -45.8573 C.3       12 UNK         0.1400 
     71 CB         -5.1188  -23.2846  -44.5803 C.3       12 UNK        -0.1800 
     72 C          -3.6812  -25.0955  -45.6080 C.2       12 UNK         0.5000 
     73 O          -4.2061  -26.1514  -45.9600 O.2       12 UNK        -0.5000 
     74 N          -2.4533  -25.0245  -45.0713 N.am      13 UNK        -0.5000 
     75 CA         -1.5432  -26.1638  -44.9057 C.3       13 UNK         0.1400 
     76 CB         -0.3369  -25.7315  -44.0591 C.3       13 UNK        -0.1800 
     77 C          -1.0729  -26.7631  -46.2469 C.2       13 UNK         0.5000 
     78 O          -0.7818  -27.9572  -46.3133 O.2       13 UNK        -0.5000 
     79 N          -1.0515  -25.9320  -47.2966 N.am      14 UNK        -0.5000 
     80 CA         -0.7901  -26.3085  -48.6864 C.3       14 UNK         0.1400 
     81 CB         -0.1497  -25.1035  -49.3926 C.3       14 UNK        -0.1800 
     82 C          -2.0652  -26.7786  -49.4252 C.2       14 UNK         0.5000 
     83 O          -2.0248  -26.9637  -50.6453 O.2       14 UNK        -0.5000 
     84 N          -3.1805  -26.9250  -48.6892 N.am      15 UNK        -0.5000 
     85 CA         -4.5141  -27.3639  -49.1185 C.3       15 UNK         0.1400 
     86 CB         -4.4646  -28.8334  -49.5856 C.3       15 UNK        -0.1800 
     87 C          -5.1751  -26.4421  -50.1642 C.2       15 UNK         0.5000 
     88 O          -6.0902  -26.8786  -50.8639 O.2       15 UNK        -0.5000 
     89 N          -4.6725  -25.2027  -50.2848 N.am      16 UNK        -0.5000 
     90 CA         -4.9401  -24.2303  -51.3496 C.3       16 UNK         0.1400 
     91 CB         -6.3894  -23.7103  -51.2658 C.3       16 UNK        -0.1800 
     92 C          -4.5710  -24.7463  -52.7632 C.2       16 UNK         0.5000 
     93 O          -5.0665  -24.2049  -53.7528 O.2       16 UNK        -0.5000 
     94 N          -3.7306  -25.7892  -52.8353 N.am      17 UNK        -0.5000 
     95 CA         -3.4262  -26.5450  -54.0477 C.3       17 UNK         0.1400 
     96 CB         -3.8592  -28.0068  -53.8486 C.3       17 UNK        -0.1800 
     97 C          -1.9342  -26.4602  -54.3864 C.2       17 UNK         0.5000 
     98 O          -1.5925  -26.1275  -55.5219 O.2       17 UNK        -0.5000 
     99 N          -1.0679  -26.7335  -53.3990 N.am      18 UNK        -0.5000 
    100 CA         0.3862  -26.5979  -53.5374 C.3       18 UNK         0.1400 
    101 CB         1.0876  -27.4698  -52.4840 C.3       18 UNK        -0.1800 
    102 C          0.8420  -25.1261  -53.4650 C.2       18 UNK         0.5000 
    103 O          1.8945  -24.7840  -54.0051 O.2       18 UNK        -0.5000 
    104 N          0.0167  -24.2823  -52.8382 N.am      19 UNK        -0.5000 
    105 CA         0.1048  -22.8315  -52.8232 C.3       19 UNK         0.1400 
    106 CB         1.0394  -22.3528  -51.6980 C.3       19 UNK        -0.1800 
    107 C         -1.3295  -22.3325  -52.6287 C.2       19 UNK         0.5000 
    108 O         -1.9324  -22.6320  -51.5975 O.2       19 UNK        -0.5000 
    109 N         -1.8735  -21.6409  -53.6350 N.am      20 UNK        -0.5000 
    110 CA        -3.2063  -21.0432  -53.5840 C.3       20 UNK         0.1400 
    111 CB        -3.7099  -20.8107  -55.0163 C.3       20 UNK        -0.1800 
    112 C         -3.1689  -19.7221  -52.8010 C.2       20 UNK         0.5000 
    113 O         -2.2050  -18.9653  -52.9336 O.2       20 UNK        -0.5000 
    114 N         -4.2360  -19.4407  -52.0431 N.am      21 UNK        -0.5000 
    115 CA        -4.3746  -18.2765  -51.1598 C.3       21 UNK         0.1400 
    116 CB        -5.4183  -18.6057  -50.0763 C.3       21 UNK        -0.1800 
    117 C         -4.6824  -16.9508  -51.8963 C.2       21 UNK         0.5000 
    118 O         -5.4602  -16.1369  -51.3962 O.2       21 UNK        -0.5000 
    119 N         -4.0747  -16.7626  -53.0739 N.am      22 UNK        -0.5000 
    120 CA        -4.1244  -15.5581  -53.9216 C.3       22 UNK         0.1400 
    121 C         -5.5404  -15.1576  -54.4437 C.2       22 UNK         0.5000 
    122 N         -6.5141  -16.0595  -54.4670 N.am      22 UNK        -0.7600 
    123 O         -5.7567  -14.0267  -54.8716 O.2       22 UNK        -0.5000 
    124 C124       -3.3426  -14.3681  -53.2982 C.3       23 UNK        -0.0398 
    125 S125       -1.5679  -14.7561  -53.0954 S.3       23 UNK        -0.2404 
    126 C126       -1.2168  -14.1387  -51.4208 C.3       23 UNK        -0.0205 
    127 H127        1.9823  -15.2479  -47.0394 H         1 UNK         0.0600 
    128 H128        0.6774  -15.2387  -48.2074 H         1 UNK         0.0600 
    129 H129        0.5755  -16.2813  -46.7735 H         1 UNK         0.0600 
    130 H130       -1.4967  -14.4270  -47.4381 H         1 UNK         0.3000 
    131 H131       -1.8579  -13.0201  -45.0269 H         1 UNK         0.0600 
    132 H132       -3.4065  -12.6981  -47.6454 H         1 UNK         0.0800 
    133 H133       -3.9140  -12.0851  -46.0972 H         1 UNK         0.0800 
    134 H134       -5.1877  -16.0390  -47.6177 H         1 UNK         0.0800 
    135 H135       -5.1826  -14.4450  -48.3243 H         1 UNK         0.0800 
    136 H136       -3.4207  -13.8173  -49.8476 H         1 UNK         0.1150 
    137 H137       -0.1599  -16.5029  -50.5685 H         1 UNK         0.1150 
    138 H138       -2.9546  -17.3282  -47.4344 H         1 UNK         0.1150 
    139 H139        0.3888  -18.0534  -48.6506 H         1 UNK         0.0800 
    140 H140       -0.8442  -18.5330  -47.5201 H         1 UNK         0.0800 
    141 H141       -3.0715  -20.9344  -49.5137 H         1 UNK         0.0800 
    142 H142       -2.9715  -19.8400  -48.1521 H         1 UNK         0.0800 
    143 H143       -1.0987  -22.2267  -48.4871 H         1 UNK         0.0600 
    144 H144       -1.5899  -20.4094  -46.2180 H         1 UNK         0.3000 
    145 H145        0.9958  -21.9286  -44.2731 H         1 UNK         0.0600 
    146 H146        1.7775  -19.5915  -44.2326 H         1 UNK         0.0600 
    147 H147        2.0973  -20.2762  -45.8171 H         1 UNK         0.0600 
    148 H148        0.7456  -19.1711  -45.5955 H         1 UNK         0.0600 
    149 H149       -0.7072  -19.7530  -43.6654 H         1 UNK         0.3000 
    150 H150       -3.5500  -21.5289  -42.5178 H         1 UNK         0.0600 
    151 H151       -2.0169  -21.8024  -40.5981 H         1 UNK         0.0600 
    152 H152       -3.0424  -20.3941  -40.3758 H         1 UNK         0.0600 
    153 H153       -1.3573  -20.1954  -40.8544 H         1 UNK         0.0600 
    154 H154       -2.8990  -18.7959  -42.3220 H         1 UNK         0.3000 
    155 H155       -3.9009  -17.7004  -45.5195 H         1 UNK         0.0600 
    156 H156       -5.5963  -17.7209  -42.9714 H         1 UNK         0.0600 
    157 H157       -6.1162  -18.2931  -44.5525 H         1 UNK         0.0600 
    158 H158       -5.7550  -16.5909  -44.3171 H         1 UNK         0.0600 
    159 H159       -3.5375  -16.3600  -43.0202 H         1 UNK         0.3000 
    160 H160       -0.9317  -14.7954  -43.7619 H         1 UNK         0.0600 
    161 H161       -2.0434  -16.1348  -41.2412 H         1 UNK         0.0600 
    162 H162       -2.7683  -14.7840  -42.1186 H         1 UNK         0.0600 
    163 H163       -1.2421  -14.5698  -41.2911 H         1 UNK         0.0600 
    164 H164        1.0396  -15.4922  -43.0195 H         1 UNK         0.3000 
    165 H165        2.3734  -16.6679  -41.1509 H         1 UNK         0.0600 
    166 H166        1.8350  -18.9264  -40.2797 H         1 UNK         0.0600 
    167 H167        2.2169  -19.6496  -41.8361 H         1 UNK         0.0600 
    168 H168        3.4815  -18.8718  -40.8839 H         1 UNK         0.0600 
    169 H169        3.4192  -18.1678  -43.3823 H         1 UNK         0.3000 
    170 H170        5.2727  -16.4312  -44.4872 H         1 UNK         0.0600 
    171 H171        4.0333  -18.3776  -45.3663 H         1 UNK         0.0600 
    172 H172        2.8159  -17.3463  -46.1057 H         1 UNK         0.0600 
    173 H173        4.4592  -17.3778  -46.7366 H         1 UNK         0.0600 
    174 H174        3.4507  -14.3875  -45.2869 H         1 UNK         0.3000 
    175 H175        5.8121  -12.5501  -46.9973 H         1 UNK         0.0600 
    176 H176        3.4848  -13.8077  -48.5550 H         1 UNK         0.0600 
    177 H177        4.2692  -12.2748  -48.9355 H         1 UNK         0.0600 
    178 H178        5.1671  -13.7782  -49.0685 H         1 UNK         0.0600 
    179 H179        2.9063  -12.4349  -46.6183 H         1 UNK         0.3000 
    180 H180        2.4410  -11.7771  -43.8147 H         1 UNK         0.0600 
    181 H181        2.2077   -9.3261  -43.2741 H         1 UNK         0.0600 
    182 H182        3.6126   -8.9903  -44.2874 H         1 UNK         0.0600 
    183 H183        3.7788   -9.9874  -42.8533 H         1 UNK         0.0600 
    184 H184        1.0167  -11.5447  -45.4529 H         1 UNK         0.3000 
    185 H185       -0.1912   -9.1441  -47.2851 H         1 UNK         0.0600 
    186 H186        0.0921  -10.0764  -49.5916 H         1 UNK         0.0600 
    187 H187        1.4751   -9.1028  -49.1268 H         1 UNK         0.0600 
    188 H188        1.5947  -10.8579  -49.0985 H         1 UNK         0.0600 
    189 H189       -0.1391  -12.0206  -47.8118 H         1 UNK         0.3000 
    190 H190       -3.3662  -21.9170  -45.7630 H         1 UNK         0.3000 
    191 H191       -5.1818  -23.9413  -46.6165 H         1 UNK         0.0600 
    192 H192       -5.8892  -23.9930  -44.2739 H         1 UNK         0.0600 
    193 H193       -5.6032  -22.3194  -44.7289 H         1 UNK         0.0600 
    194 H194       -4.4189  -23.1907  -43.7518 H         1 UNK         0.0600 
    195 H195       -2.1133  -24.1264  -44.7368 H         1 UNK         0.3000 
    196 H196       -2.0784  -26.9468  -44.3647 H         1 UNK         0.0600 
    197 H197        0.2147  -24.9183  -44.5325 H         1 UNK         0.0600 
    198 H198       -0.6504  -25.3924  -43.0717 H         1 UNK         0.0600 
    199 H199        0.3573  -26.5599  -43.9125 H         1 UNK         0.0600 
    200 H200       -1.3039  -24.9662  -47.1408 H         1 UNK         0.3000 
    201 H201       -0.0758  -27.1338  -48.7050 H         1 UNK         0.0600 
    202 H202        0.6630  -24.6785  -48.8030 H         1 UNK         0.0600 
    203 H203       -0.8747  -24.3135  -49.5835 H         1 UNK         0.0600 
    204 H204        0.2719  -25.3889  -50.3524 H         1 UNK         0.0600 
    205 H205       -3.1227  -26.6910  -47.7056 H         1 UNK         0.3000 
    206 H206       -5.1507  -27.3192  -48.2343 H         1 UNK         0.0600 
    207 H207       -4.0016  -29.4706  -48.8321 H         1 UNK         0.0600 
    208 H208       -5.4669  -29.2237  -49.7652 H         1 UNK         0.0600 
    209 H209       -3.9002  -28.9448  -50.5118 H         1 UNK         0.0600 
    210 H210       -3.9585  -24.9119  -49.6213 H         1 UNK         0.3000 
    211 H211       -4.2874  -23.3833  -51.1467 H         1 UNK         0.0600 
    212 H212       -6.5461  -22.8756  -51.9498 H         1 UNK         0.0600 
    213 H213       -6.6214  -23.3530  -50.2624 H         1 UNK         0.0600 
    214 H214       -7.1135  -24.4834  -51.5236 H         1 UNK         0.0600 
    215 H215       -3.3376  -26.1488  -51.9721 H         1 UNK         0.3000 
    216 H216       -3.9797  -26.1450  -54.8997 H         1 UNK         0.0600 
    217 H217       -3.3483  -28.4707  -53.0040 H         1 UNK         0.0600 
    218 H218       -3.6417  -28.6040  -54.7350 H         1 UNK         0.0600 
    219 H219       -4.9317  -28.0749  -53.6644 H         1 UNK         0.0600 
    220 H220       -1.4171  -26.9878  -52.4790 H         1 UNK         0.3000 
    221 H221        0.6812  -26.9733  -54.5198 H         1 UNK         0.0600 
    222 H222        0.8953  -28.5271  -52.6668 H         1 UNK         0.0600 
    223 H223        0.7511  -27.2474  -51.4733 H         1 UNK         0.0600 
    224 H224        2.1687  -27.3281  -52.5123 H         1 UNK         0.0600 
    225 H225       -0.8318  -24.6531  -52.4324 H         1 UNK         0.3000 
    226 H226        0.4873  -22.4779  -53.7830 H         1 UNK         0.0600 
    227 H227        0.6834  -22.6611  -50.7148 H         1 UNK         0.0600 
    228 H228        2.0484  -22.7441  -51.8269 H         1 UNK         0.0600 
    229 H229        1.1083  -21.2644  -51.6912 H         1 UNK         0.0600 
    230 H230       -1.3111  -21.4125  -54.4415 H         1 UNK         0.3000 
    231 H231       -3.8913  -21.7317  -53.0862 H         1 UNK         0.0600 
    232 H232       -3.0591  -20.1318  -55.5689 H         1 UNK         0.0600 
    233 H233       -4.7107  -20.3770  -55.0130 H         1 UNK         0.0600 
    234 H234       -3.7658  -21.7489  -55.5691 H         1 UNK         0.0600 
    235 H235       -5.0121  -20.0860  -52.0401 H         1 UNK         0.3000 
    236 H236       -3.4189  -18.1267  -50.6580 H         1 UNK         0.0600 
    237 H237       -5.1657  -19.5222  -49.5440 H         1 UNK         0.0600 
    238 H238       -5.4760  -17.8106  -49.3327 H         1 UNK         0.0600 
    239 H239       -6.4138  -18.7295  -50.5039 H         1 UNK         0.0600 
    240 H240       -3.4060  -17.4712  -53.3564 H         1 UNK         0.3000 
    241 H241       -3.5928  -15.8377  -54.8317 H         1 UNK         0.0600 
    242 H242       -7.4237  -15.8004  -54.8153 H         1 UNK         0.3800 
    243 H243       -6.3554  -16.9910  -54.1187 H         1 UNK         0.3800 
    244 H244       -3.7836  -14.0828  -52.3428 H         1 UNK         0.0800 
    245 H245       -3.4014  -13.4850  -53.9359 H         1 UNK         0.0800 
    246 H246       -0.1365  -14.0361  -51.3088 H         1 UNK         0.0800 
    247 H247       -1.6268  -13.1336  -51.3091 H         1 UNK         0.0800 
@<TRIPOS>BOND
     1    1    2 1    
     2    1  127 1    
     3    1  128 1    
     4    1  129 1    
     5    2    3 2    
     6    2    4 am   BACKBONE|DICT|INTERRES
     7    4    5 1    
     8    4  130 1    
     9    5    6 1    
    10    5   65 1    
    11    5  131 1    
    12    6    7 1    
    13    6  132 1    
    14    6  133 1    
    15    7    8 1    
    16    8    9 1    
    17    8  134 1    
    18    8  135 1    
    19    9   10 ar   
    20    9   14 ar   
    21   10   11 ar   
    22   10  136 1    
    23   11   12 ar   
    24   11  126 1    
    25   12   13 ar   
    26   12  137 1    
    27   13   14 ar   
    28   13   15 1    
    29   14  138 1    
    30   15   16 1    
    31   15  139 1    
    32   15  140 1    
    33   16   17 1    
    34   17   18 1    
    35   17  141 1    
    36   17  142 1    
    37   18   19 1    
    38   18   67 1    
    39   18  143 1    
    40   19   20 am   BACKBONE|DICT|INTERRES
    41   19  144 1    
    42   20   21 2    
    43   20   22 1    
    44   22   23 1    
    45   22   24 1    
    46   22  145 1    
    47   23  146 1    
    48   23  147 1    
    49   23  148 1    
    50   24   25 am   BACKBONE|DICT|INTERRES
    51   24  149 1    
    52   25   26 2    
    53   25   27 1    
    54   27   28 1    
    55   27   29 1    
    56   27  150 1    
    57   28  151 1    
    58   28  152 1    
    59   28  153 1    
    60   29   30 am   BACKBONE|DICT|INTERRES
    61   29  154 1    
    62   30   31 2    
    63   30   32 1    
    64   32   33 1    
    65   32   34 1    
    66   32  155 1    
    67   33  156 1    
    68   33  157 1    
    69   33  158 1    
    70   34   35 am   BACKBONE|DICT|INTERRES
    71   34  159 1    
    72   35   36 2    
    73   35   37 1    
    74   37   38 1    
    75   37   39 1    
    76   37  160 1    
    77   38  161 1    
    78   38  162 1    
    79   38  163 1    
    80   39   40 am   BACKBONE|DICT|INTERRES
    81   39  164 1    
    82   40   41 2    
    83   40   42 1    
    84   42   43 1    
    85   42   44 1    
    86   42  165 1    
    87   43  166 1    
    88   43  167 1    
    89   43  168 1    
    90   44   45 am   BACKBONE|DICT|INTERRES
    91   44  169 1    
    92   45   46 2    
    93   45   47 1    
    94   47   48 1    
    95   47   49 1    
    96   47  170 1    
    97   48  171 1    
    98   48  172 1    
    99   48  173 1    
   100   49   50 am   BACKBONE|DICT|INTERRES
   101   49  174 1    
   102   50   51 2    
   103   50   52 1    
   104   52   53 1    
   105   52   54 1    
   106   52  175 1    
   107   53  176 1    
   108   53  177 1    
   109   53  178 1    
   110   54   55 am   BACKBONE|DICT|INTERRES
   111   54  179 1    
   112   55   56 2    
   113   55   57 1    
   114   57   58 1    
   115   57   59 1    
   116   57  180 1    
   117   58  181 1    
   118   58  182 1    
   119   58  183 1    
   120   59   60 am   BACKBONE|DICT|INTERRES
   121   59  184 1    
   122   60   61 2    
   123   60   62 1    
   124   62   63 1    
   125   62   64 1    
   126   62  185 1    
   127   63  186 1    
   128   63  187 1    
   129   63  188 1    
   130   64   65 am   BACKBONE|DICT|INTERRES
   131   64  189 1    
   132   65   66 2    
   133   67   68 2    
   134   67   69 am   BACKBONE|DICT|INTERRES
   135   69   70 1    
   136   69  190 1    
   137   70   71 1    
   138   70   72 1    
   139   70  191 1    
   140   71  192 1    
   141   71  193 1    
   142   71  194 1    
   143   72   73 2    
   144   72   74 am   BACKBONE|DICT|INTERRES
   145   74   75 1    
   146   74  195 1    
   147   75   76 1    
   148   75   77 1    
   149   75  196 1    
   150   76  197 1    
   151   76  198 1    
   152   76  199 1    
   153   77   78 2    
   154   77   79 am   BACKBONE|DICT|INTERRES
   155   79   80 1    
   156   79  200 1    
   157   80   81 1    
   158   80   82 1    
   159   80  201 1    
   160   81  202 1    
   161   81  203 1    
   162   81  204 1    
   163   82   83 2    
   164   82   84 am   BACKBONE|DICT|INTERRES
   165   84   85 1    
   166   84  205 1    
   167   85   86 1    
   168   85   87 1    
   169   85  206 1    
   170   86  207 1    
   171   86  208 1    
   172   86  209 1    
   173   87   88 2    
   174   87   89 am   BACKBONE|DICT|INTERRES
   175   89   90 1    
   176   89  210 1    
   177   90   91 1    
   178   90   92 1    
   179   90  211 1    
   180   91  212 1    
   181   91  213 1    
   182   91  214 1    
   183   92   93 2    
   184   92   94 am   BACKBONE|DICT|INTERRES
   185   94   95 1    
   186   94  215 1    
   187   95   96 1    
   188   95   97 1    
   189   95  216 1    
   190   96  217 1    
   191   96  218 1    
   192   96  219 1    
   193   97   98 2    
   194   97   99 am   BACKBONE|DICT|INTERRES
   195   99  100 1    
   196   99  220 1    
   197  100  101 1    
   198  100  102 1    
   199  100  221 1    
   200  101  222 1    
   201  101  223 1    
   202  101  224 1    
   203  102  103 2    
   204  102  104 am   BACKBONE|DICT|INTERRES
   205  104  105 1    
   206  104  225 1    
   207  105  106 1    
   208  105  107 1    
   209  105  226 1    
   210  106  227 1    
   211  106  228 1    
   212  106  229 1    
   213  107  108 2    
   214  107  109 am   BACKBONE|DICT|INTERRES
   215  109  110 1    
   216  109  230 1    
   217  110  111 1    
   218  110  112 1    
   219  110  231 1    
   220  111  232 1    
   221  111  233 1    
   222  111  234 1    
   223  112  113 2    
   224  112  114 am   BACKBONE|DICT|INTERRES
   225  114  115 1    
   226  114  235 1    
   227  115  116 1    
   228  115  117 1    
   229  115  236 1    
   230  116  237 1    
   231  116  238 1    
   232  116  239 1    
   233  117  118 2    
   234  117  119 am   BACKBONE|DICT|INTERRES
   235  119  120 1    
   236  119  240 1    
   237  120  121 1    
   238  120  124 1    
   239  120  241 1    
   240  121  122 am   BACKBONE|DICT|INTERRES
   241  121  123 2    
   242  122  242 1    
   243  122  243 1    
   244  124  125 1    
   245  124  244 1    
   246  124  245 1    
   247  125  126 1    
   248  126  246 1    
   249  126  247 1    
@<TRIPOS>SUBSTRUCTURE
     1 UNK         1 GROUP             0       ****    0 ROOT    
