@<TRIPOS>MOLECULE
3R540
247   249    1
SMALL
USER_CHARGES


@<TRIPOS>ATOM
      1 CA         -3.9446  -10.3665  -42.5652 C.3       0 UNK        -0.1800 
      2 C          -2.5241  -10.0655  -43.0226 C.2       0 UNK         0.5000 
      3 O          -1.8787   -9.1717  -42.4735 O.2       0 UNK        -0.5000 
      4 N          -2.0417  -10.8018  -44.0294 N.am      1 UNK        -0.5000 
      5 CA         -0.6737  -10.7276  -44.5483 C.3       1 UNK         0.1400 
      6 C6         -0.5879  -11.2031  -46.0245 C.3       23 UNK        -0.0398 
      7 S7         -1.2564  -12.8737  -46.3585 S.3       23 UNK        -0.2404 
      8 C8         -2.9079  -12.4548  -47.0046 C.3       23 UNK        -0.0205 
      9 C9         -3.7079  -13.6749  -47.4442 C.ar      23 UNK        -0.0193 
     10 C10        -4.2584  -13.7180  -48.7283 C.ar      23 UNK        -0.1150 
     11 C11        -5.0534  -14.7928  -49.1355 C.ar      23 UNK        -0.0193 
     12 C12        -5.2992  -15.8316  -48.2290 C.ar      23 UNK        -0.1150 
     13 C13        -4.7225  -15.8296  -46.9542 C.ar      23 UNK        -0.0193 
     14 C14        -3.9404  -14.7375  -46.5644 C.ar      23 UNK        -0.1150 
     15 C15        -4.9490  -16.9860  -45.9829 C.3       23 UNK        -0.0205 
     16 S16        -4.9240  -18.6252  -46.7883 S.3       23 UNK        -0.2404 
     17 C17        -4.7899  -19.7251  -45.3421 C.3       23 UNK        -0.0398 
     18 CA         -4.2148  -21.1083  -45.7314 C.3       11 UNK         0.1400 
     19 N          -2.7726  -21.0696  -46.0281 N.am      11 UNK        -0.5000 
     20 C          -2.0451  -22.0993  -46.4882 C.2       10 UNK         0.5000 
     21 O          -2.5299  -23.2038  -46.7391 O.2       10 UNK        -0.5000 
     22 CA         -0.5335  -21.8930  -46.6930 C.3       10 UNK         0.1400 
     23 CB         -0.2310  -21.4952  -48.1441 C.3       10 UNK        -0.1800 
     24 N           0.0730  -20.9201  -45.7855 N.am      10 UNK        -0.5000 
     25 C           0.1746  -21.0663  -44.4569 C.2       9 UNK         0.5000 
     26 O          -0.3153  -22.0080  -43.8334 O.2       9 UNK        -0.5000 
     27 CA          0.9455  -19.9716  -43.7002 C.3       9 UNK         0.1400 
     28 CB          2.4628  -20.1403  -43.8787 C.3       9 UNK        -0.1800 
     29 N           0.5496  -18.6434  -44.1586 N.am      9 UNK        -0.5000 
     30 C          -0.5003  -17.9664  -43.6756 C.2       8 UNK         0.5000 
     31 O          -1.1843  -18.3478  -42.7252 O.2       8 UNK        -0.5000 
     32 CA         -0.8618  -16.6446  -44.3811 C.3       8 UNK         0.1400 
     33 CB         -0.1400  -15.4750  -43.7029 C.3       8 UNK        -0.1800 
     34 N          -0.5651  -16.6215  -45.8163 N.am      8 UNK        -0.5000 
     35 C          -1.0649  -17.4823  -46.7140 C.2       7 UNK         0.5000 
     36 O          -1.7914  -18.4269  -46.4182 O.2       7 UNK        -0.5000 
     37 CA         -0.6029  -17.3148  -48.1707 C.3       7 UNK         0.1400 
     38 CB         -1.3566  -16.1660  -48.8546 C.3       7 UNK        -0.1800 
     39 N           0.8392  -17.1012  -48.3054 N.am      7 UNK        -0.5000 
     40 C           1.8077  -17.8815  -47.8081 C.2       6 UNK         0.5000 
     41 O           1.5967  -18.8611  -47.0928 O.2       6 UNK        -0.5000 
     42 CA          3.2614  -17.4993  -48.1361 C.3       6 UNK         0.1400 
     43 CB          3.7022  -18.0925  -49.4875 C.3       6 UNK        -0.1800 
     44 N           3.5450  -16.0612  -48.0506 N.am      6 UNK        -0.5000 
     45 C           3.1232  -15.0564  -48.8352 C.2       5 UNK         0.5000 
     46 O           2.3757  -15.2173  -49.8005 O.2       5 UNK        -0.5000 
     47 CA          3.5687  -13.6256  -48.4652 C.3       5 UNK         0.1400 
     48 CB          2.3459  -12.7466  -48.1550 C.3       5 UNK        -0.1800 
     49 N           4.4818  -13.5922  -47.3194 N.am      5 UNK        -0.5000 
     50 C           5.8034  -13.8157  -47.3917 C.2       4 UNK         0.5000 
     51 O           6.4038  -13.9881  -48.4527 O.2       4 UNK        -0.5000 
     52 CA          6.5905  -13.8902  -46.0649 C.3       4 UNK         0.1400 
     53 CB          7.3098  -12.5599  -45.7943 C.3       4 UNK        -0.1800 
     54 N           5.7676  -14.2243  -44.9002 N.am      4 UNK        -0.5000 
     55 C           5.0826  -15.3636  -44.7235 C.2       3 UNK         0.5000 
     56 O           5.1280  -16.3128  -45.5052 O.2       3 UNK        -0.5000 
     57 CA          4.1354  -15.4263  -43.5066 C.3       3 UNK         0.1400 
     58 CB          4.7948  -16.1849  -42.3460 C.3       3 UNK        -0.1800 
     59 N           3.6849  -14.1100  -43.0322 N.am      3 UNK        -0.5000 
     60 C           2.9944  -13.2262  -43.7663 C.2       2 UNK         0.5000 
     61 O           2.6614  -13.4311  -44.9357 O.2       2 UNK        -0.5000 
     62 CA          2.7095  -11.8622  -43.1126 C.3       2 UNK         0.1400 
     63 CB          3.9617  -10.9729  -43.1812 C.3       2 UNK        -0.1800 
     64 N           1.6120  -11.1708  -43.7878 N.am      2 UNK        -0.5000 
     65 C           0.3179  -11.4690  -43.6234 C.2       1 UNK         0.5000 
     66 O          -0.0909  -12.2796  -42.7874 O.2       1 UNK        -0.5000 
     67 C          -4.6036  -22.1738  -44.6831 C.2       11 UNK         0.5000 
     68 O          -5.7281  -22.6733  -44.7356 O.2       11 UNK        -0.5000 
     69 N          -3.6659  -22.5673  -43.8073 N.am      12 UNK        -0.5000 
     70 CA         -3.8229  -23.6836  -42.8683 C.3       12 UNK         0.1400 
     71 CB         -2.6327  -23.6929  -41.8976 C.3       12 UNK        -0.1800 
     72 C          -3.9656  -25.0581  -43.5602 C.2       12 UNK         0.5000 
     73 O          -4.4996  -25.9865  -42.9526 O.2       12 UNK        -0.5000 
     74 N          -3.5082  -25.1551  -44.8152 N.am      13 UNK        -0.5000 
     75 CA         -3.6159  -26.3207  -45.6889 C.3       13 UNK         0.1400 
     76 CB         -2.1946  -26.7710  -46.0729 C.3       13 UNK        -0.1800 
     77 C          -4.4739  -26.0005  -46.9311 C.2       13 UNK         0.5000 
     78 O          -4.2875  -26.6304  -47.9725 O.2       13 UNK        -0.5000 
     79 N          -5.3792  -25.0134  -46.8205 N.am      14 UNK        -0.5000 
     80 CA         -6.2855  -24.5262  -47.8700 C.3       14 UNK         0.1400 
     81 CB         -7.3378  -25.5988  -48.2213 C.3       14 UNK        -0.1800 
     82 C          -5.5286  -23.9991  -49.1077 C.2       14 UNK         0.5000 
     83 O          -5.8120  -24.4054  -50.2359 O.2       14 UNK        -0.5000 
     84 N          -4.5338  -23.1374  -48.8528 N.am      15 UNK        -0.5000 
     85 CA         -3.5779  -22.5771  -49.8151 C.3       15 UNK         0.1400 
     86 CB         -4.2789  -21.6658  -50.8396 C.3       15 UNK        -0.1800 
     87 C          -2.6976  -23.6731  -50.4490 C.2       15 UNK         0.5000 
     88 O          -2.4164  -23.6307  -51.6467 O.2       15 UNK        -0.5000 
     89 N          -2.3140  -24.6580  -49.6204 N.am      16 UNK        -0.5000 
     90 CA         -1.6272  -25.9053  -49.9763 C.3       16 UNK         0.1400 
     91 CB         -0.1728  -25.6192  -50.3990 C.3       16 UNK        -0.1800 
     92 C          -2.4151  -26.7042  -51.0355 C.2       16 UNK         0.5000 
     93 O          -1.8702  -27.0490  -52.0834 O.2       16 UNK        -0.5000 
     94 N          -3.7115  -26.9167  -50.7662 N.am      17 UNK        -0.5000 
     95 CA         -4.7217  -27.4716  -51.6768 C.3       17 UNK         0.1400 
     96 CB         -4.4779  -28.9776  -51.9046 C.3       17 UNK        -0.1800 
     97 C          -4.8315  -26.6668  -52.9932 C.2       17 UNK         0.5000 
     98 O          -4.8990  -27.2463  -54.0786 O.2       17 UNK        -0.5000 
     99 N          -4.8104  -25.3341  -52.8535 N.am      18 UNK        -0.5000 
    100 CA        -4.8111  -24.3059  -53.8992 C.3       18 UNK         0.1400 
    101 CB        -6.1370  -24.3339  -54.6872 C.3       18 UNK        -0.1800 
    102 C         -3.5718  -24.3009  -54.8249 C.2       18 UNK         0.5000 
    103 O         -3.6168  -23.6566  -55.8746 O.2       18 UNK        -0.5000 
    104 N         -2.4869  -24.9902  -54.4423 N.am      19 UNK        -0.5000 
    105 CA        -1.2397  -25.0389  -55.2088 C.3       19 UNK         0.1400 
    106 CB        -0.5179  -26.3656  -54.9287 C.3       19 UNK        -0.1800 
    107 C         -0.3014  -23.8536  -54.9130 C.2       19 UNK         0.5000 
    108 O          0.5297  -23.5282  -55.7629 O.2       19 UNK        -0.5000 
    109 N         -0.4238  -23.2458  -53.7259 N.am      20 UNK        -0.5000 
    110 CA         0.3836  -22.1102  -53.2808 C.3       20 UNK         0.1400 
    111 CB         0.8068  -22.3450  -51.8179 C.3       20 UNK        -0.1800 
    112 C         -0.3813  -20.7847  -53.4591 C.2       20 UNK         0.5000 
    113 O         -1.4145  -20.7390  -54.1340 O.2       20 UNK        -0.5000 
    114 N          0.1577  -19.7139  -52.8597 N.am      21 UNK        -0.5000 
    115 CA        -0.4192  -18.3700  -52.8347 C.3       21 UNK         0.1400 
    116 CB         0.5099  -17.4437  -52.0368 C.3       21 UNK        -0.1800 
    117 C         -1.8428  -18.3641  -52.2456 C.2       21 UNK         0.5000 
    118 O         -2.0705  -18.9681  -51.1958 O.2       21 UNK        -0.5000 
    119 N         -2.7605  -17.6972  -52.9548 N.am      22 UNK        -0.5000 
    120 CA        -4.2169  -17.7127  -52.7347 C.3       22 UNK         0.1400 
    121 C         -4.9371  -18.9946  -53.2638 C.2       22 UNK         0.5000 
    122 N         -4.2586  -19.9343  -53.9130 N.am      22 UNK        -0.7600 
    123 O         -6.1498  -19.1271  -53.1294 O.2       22 UNK        -0.5000 
    124 C124       -4.6256  -17.3292  -51.2821 C.3       23 UNK        -0.0398 
    125 S125       -6.1927  -16.3921  -51.1999 S.3       23 UNK        -0.2404 
    126 C126       -5.6368  -14.7761  -50.5508 C.3       23 UNK        -0.0205 
    127 H127       -4.3978  -11.1676  -43.1499 H         1 UNK         0.0600 
    128 H128       -4.5680   -9.4780  -42.6657 H         1 UNK         0.0600 
    129 H129       -3.9451  -10.6684  -41.5178 H         1 UNK         0.0600 
    130 H130       -2.5950  -11.5608  -44.3978 H         1 UNK         0.3000 
    131 H131       -0.3747   -9.6770  -44.5393 H         1 UNK         0.0600 
    132 H132        0.4460  -11.1815  -46.3716 H         1 UNK         0.0800 
    133 H133       -1.1089  -10.4845  -46.6583 H         1 UNK         0.0800 
    134 H134       -2.7884  -11.7615  -47.8386 H         1 UNK         0.0800 
    135 H135       -3.4777  -11.9237  -46.2421 H         1 UNK         0.0800 
    136 H136       -4.0809  -12.9008  -49.4136 H         1 UNK         0.1150 
    137 H137       -5.9292  -16.6602  -48.5148 H         1 UNK         0.1150 
    138 H138       -3.5104  -14.7102  -45.5731 H         1 UNK         0.1150 
    139 H139       -4.1799  -16.9687  -45.2099 H         1 UNK         0.0800 
    140 H140       -5.9064  -16.8469  -45.4797 H         1 UNK         0.0800 
    141 H141       -5.7930  -19.8135  -44.9196 H         1 UNK         0.0800 
    142 H142       -4.1694  -19.2610  -44.5736 H         1 UNK         0.0800 
    143 H143       -4.7114  -21.4175  -46.6523 H         1 UNK         0.0600 
    144 H144       -2.3241  -20.1583  -45.9496 H         1 UNK         0.3000 
    145 H145       -0.0509  -22.8540  -46.5038 H         1 UNK         0.0600 
    146 H146       -0.7500  -20.5799  -48.4290 H         1 UNK         0.0600 
    147 H147        0.8366  -21.3385  -48.2998 H         1 UNK         0.0600 
    148 H148       -0.5410  -22.2824  -48.8299 H         1 UNK         0.0600 
    149 H149        0.5159  -20.1159  -46.2226 H         1 UNK         0.3000 
    150 H150        0.7218  -20.0747  -42.6361 H         1 UNK         0.0600 
    151 H151        2.7890  -21.1199  -43.5273 H         1 UNK         0.0600 
    152 H152        3.0114  -19.3907  -43.3081 H         1 UNK         0.0600 
    153 H153        2.7634  -20.0501  -44.9231 H         1 UNK         0.0600 
    154 H154        1.0133  -18.2927  -44.9861 H         1 UNK         0.3000 
    155 H155       -1.9369  -16.4959  -44.2665 H         1 UNK         0.0600 
    156 H156       -0.3469  -15.4477  -42.6324 H         1 UNK         0.0600 
    157 H157       -0.4665  -14.5238  -44.1172 H         1 UNK         0.0600 
    158 H158        0.9396  -15.5413  -43.8294 H         1 UNK         0.0600 
    159 H159        0.0394  -15.8823  -46.1437 H         1 UNK         0.3000 
    160 H160       -0.8453  -18.2364  -48.7020 H         1 UNK         0.0600 
    161 H161       -1.1071  -16.0986  -49.9124 H         1 UNK         0.0600 
    162 H162       -1.1326  -15.2031  -48.3952 H         1 UNK         0.0600 
    163 H163       -2.4333  -16.3212  -48.7886 H         1 UNK         0.0600 
    164 H164        1.1351  -16.3272  -48.8935 H         1 UNK         0.3000 
    165 H165        3.8799  -17.9619  -47.3654 H         1 UNK         0.0600 
    166 H166        3.1212  -17.6968  -50.3203 H         1 UNK         0.0600 
    167 H167        4.7539  -17.8840  -49.6837 H         1 UNK         0.0600 
    168 H168        3.5787  -19.1762  -49.4932 H         1 UNK         0.0600 
    169 H169        4.1316  -15.8131  -47.2620 H         1 UNK         0.3000 
    170 H170        4.0742  -13.2042  -49.3365 H         1 UNK         0.0600 
    171 H171        1.7321  -13.1772  -47.3638 H         1 UNK         0.0600 
    172 H172        2.6437  -11.7451  -47.8444 H         1 UNK         0.0600 
    173 H173        1.7090  -12.6382  -49.0338 H         1 UNK         0.0600 
    174 H174        4.0435  -13.4780  -46.4107 H         1 UNK         0.3000 
    175 H175        7.3435  -14.6731  -46.1759 H         1 UNK         0.0600 
    176 H176        6.6021  -11.7426  -45.6493 H         1 UNK         0.0600 
    177 H177        7.9375  -12.6235  -44.9053 H         1 UNK         0.0600 
    178 H178        7.9582  -12.2887  -46.6287 H         1 UNK         0.0600 
    179 H179        5.6673  -13.5027  -44.2025 H         1 UNK         0.3000 
    180 H180        3.2536  -15.9881  -43.8194 H         1 UNK         0.0600 
    181 H181        5.6730  -15.6592  -41.9689 H         1 UNK         0.0600 
    182 H182        5.1164  -17.1786  -42.6613 H         1 UNK         0.0600 
    183 H183        4.0999  -16.3190  -41.5168 H         1 UNK         0.0600 
    184 H184        3.9386  -13.8666  -42.0853 H         1 UNK         0.3000 
    185 H185        2.4445  -12.0215  -42.0651 H         1 UNK         0.0600 
    186 H186        3.7795  -10.0006  -42.7227 H         1 UNK         0.0600 
    187 H187        4.7986  -11.4267  -42.6491 H         1 UNK         0.0600 
    188 H188        4.2807  -10.8031  -44.2107 H         1 UNK         0.0600 
    189 H189        1.8792  -10.5140  -44.5059 H         1 UNK         0.3000 
    190 H190       -2.7508  -22.1367  -43.8456 H         1 UNK         0.3000 
    191 H191       -4.7337  -23.5109  -42.2912 H         1 UNK         0.0600 
    192 H192       -1.6938  -23.8889  -42.4165 H         1 UNK         0.0600 
    193 H193       -2.5370  -22.7394  -41.3781 H         1 UNK         0.0600 
    194 H194       -2.7544  -24.4664  -41.1383 H         1 UNK         0.0600 
    195 H195       -3.0971  -24.3347  -45.2501 H         1 UNK         0.3000 
    196 H196       -4.1094  -27.1457  -45.1723 H         1 UNK         0.0600 
    197 H197       -1.6084  -27.0131  -45.1864 H         1 UNK         0.0600 
    198 H198       -1.6623  -25.9927  -46.6211 H         1 UNK         0.0600 
    199 H199       -2.2156  -27.6644  -46.6982 H         1 UNK         0.0600 
    200 H200       -5.4546  -24.5387  -45.9291 H         1 UNK         0.3000 
    201 H201       -6.8157  -23.6711  -47.4480 H         1 UNK         0.0600 
    202 H202       -8.0772  -25.2049  -48.9195 H         1 UNK         0.0600 
    203 H203       -7.8752  -25.9291  -47.3325 H         1 UNK         0.0600 
    204 H204       -6.8871  -26.4763  -48.6859 H         1 UNK         0.0600 
    205 H205       -4.3043  -22.9660  -47.8830 H         1 UNK         0.3000 
    206 H206       -2.9007  -21.9381  -49.2510 H         1 UNK         0.0600 
    207 H207       -4.7706  -20.8286  -50.3447 H         1 UNK         0.0600 
    208 H208       -5.0311  -22.1943  -51.4222 H         1 UNK         0.0600 
    209 H209       -3.5563  -21.2451  -51.5389 H         1 UNK         0.0600 
    210 H210       -2.6066  -24.5850  -48.6550 H         1 UNK         0.3000 
    211 H211       -1.5993  -26.5199  -49.0761 H         1 UNK         0.0600 
    212 H212        0.3448  -25.0111  -49.6572 H         1 UNK         0.0600 
    213 H213        0.3879  -26.5476  -50.5115 H         1 UNK         0.0600 
    214 H214       -0.1290  -25.0976  -51.3545 H         1 UNK         0.0600 
    215 H215       -4.0541  -26.6315  -49.8513 H         1 UNK         0.3000 
    216 H216       -5.6820  -27.3630  -51.1705 H         1 UNK         0.0600 
    217 H217       -5.2887  -29.4210  -52.4835 H         1 UNK         0.0600 
    218 H218       -3.5501  -29.1608  -52.4474 H         1 UNK         0.0600 
    219 H219       -4.4243  -29.5147  -50.9577 H         1 UNK         0.0600 
    220 H220       -4.8020  -24.9737  -51.9043 H         1 UNK         0.3000 
    221 H221       -4.7717  -23.3540  -53.3715 H         1 UNK         0.0600 
    222 H222       -6.2230  -25.2295  -55.3030 H         1 UNK         0.0600 
    223 H223       -6.9948  -24.3038  -54.0152 H         1 UNK         0.0600 
    224 H224       -6.2190  -23.4727  -55.3511 H         1 UNK         0.0600 
    225 H225       -2.5020  -25.4873  -53.5596 H         1 UNK         0.3000 
    226 H226       -1.4779  -25.0150  -56.2743 H         1 UNK         0.0600 
    227 H227       -1.1810  -27.2187  -55.0742 H         1 UNK         0.0600 
    228 H228        0.3317  -26.4935  -55.6005 H         1 UNK         0.0600 
    229 H229       -0.1326  -26.4068  -53.9096 H         1 UNK         0.0600 
    230 H230       -1.1839  -23.5166  -53.1063 H         1 UNK         0.3000 
    231 H231        1.2926  -22.0375  -53.8810 H         1 UNK         0.0600 
    232 H232        1.4879  -21.5721  -51.4614 H         1 UNK         0.0600 
    233 H233        1.3324  -23.2934  -51.7111 H         1 UNK         0.0600 
    234 H234       -0.0539  -22.3586  -51.1508 H         1 UNK         0.0600 
    235 H235        0.9968  -19.8423  -52.3152 H         1 UNK         0.3000 
    236 H236       -0.4589  -18.0127  -53.8657 H         1 UNK         0.0600 
    237 H237        1.5042  -17.3991  -52.4813 H         1 UNK         0.0600 
    238 H238        0.1224  -16.4247  -52.0114 H         1 UNK         0.0600 
    239 H239        0.6192  -17.7816  -51.0065 H         1 UNK         0.0600 
    240 H240       -2.4678  -17.2376  -53.8054 H         1 UNK         0.3000 
    241 H241       -4.5745  -16.9180  -53.3903 H         1 UNK         0.0600 
    242 H242       -4.7605  -20.7278  -54.2739 H         1 UNK         0.3800 
    243 H243       -3.2491  -19.9074  -54.0069 H         1 UNK         0.3800 
    244 H244       -4.7055  -18.2150  -50.6496 H         1 UNK         0.0800 
    245 H245       -3.8446  -16.7200  -50.8265 H         1 UNK         0.0800 
    246 H246       -6.4870  -14.0931  -50.5609 H         1 UNK         0.0800 
    247 H247       -4.9023  -14.3647  -51.2450 H         1 UNK         0.0800 
@<TRIPOS>BOND
     1    1    2 1    
     2    1  127 1    
     3    1  128 1    
     4    1  129 1    
     5    2    3 2    
     6    2    4 am   BACKBONE|DICT|INTERRES
     7    4    5 1    
     8    4  130 1    
     9    5    6 1    
    10    5   65 1    
    11    5  131 1    
    12    6    7 1    
    13    6  132 1    
    14    6  133 1    
    15    7    8 1    
    16    8    9 1    
    17    8  134 1    
    18    8  135 1    
    19    9   10 ar   
    20    9   14 ar   
    21   10   11 ar   
    22   10  136 1    
    23   11   12 ar   
    24   11  126 1    
    25   12   13 ar   
    26   12  137 1    
    27   13   14 ar   
    28   13   15 1    
    29   14  138 1    
    30   15   16 1    
    31   15  139 1    
    32   15  140 1    
    33   16   17 1    
    34   17   18 1    
    35   17  141 1    
    36   17  142 1    
    37   18   19 1    
    38   18   67 1    
    39   18  143 1    
    40   19   20 am   BACKBONE|DICT|INTERRES
    41   19  144 1    
    42   20   21 2    
    43   20   22 1    
    44   22   23 1    
    45   22   24 1    
    46   22  145 1    
    47   23  146 1    
    48   23  147 1    
    49   23  148 1    
    50   24   25 am   BACKBONE|DICT|INTERRES
    51   24  149 1    
    52   25   26 2    
    53   25   27 1    
    54   27   28 1    
    55   27   29 1    
    56   27  150 1    
    57   28  151 1    
    58   28  152 1    
    59   28  153 1    
    60   29   30 am   BACKBONE|DICT|INTERRES
    61   29  154 1    
    62   30   31 2    
    63   30   32 1    
    64   32   33 1    
    65   32   34 1    
    66   32  155 1    
    67   33  156 1    
    68   33  157 1    
    69   33  158 1    
    70   34   35 am   BACKBONE|DICT|INTERRES
    71   34  159 1    
    72   35   36 2    
    73   35   37 1    
    74   37   38 1    
    75   37   39 1    
    76   37  160 1    
    77   38  161 1    
    78   38  162 1    
    79   38  163 1    
    80   39   40 am   BACKBONE|DICT|INTERRES
    81   39  164 1    
    82   40   41 2    
    83   40   42 1    
    84   42   43 1    
    85   42   44 1    
    86   42  165 1    
    87   43  166 1    
    88   43  167 1    
    89   43  168 1    
    90   44   45 am   BACKBONE|DICT|INTERRES
    91   44  169 1    
    92   45   46 2    
    93   45   47 1    
    94   47   48 1    
    95   47   49 1    
    96   47  170 1    
    97   48  171 1    
    98   48  172 1    
    99   48  173 1    
   100   49   50 am   BACKBONE|DICT|INTERRES
   101   49  174 1    
   102   50   51 2    
   103   50   52 1    
   104   52   53 1    
   105   52   54 1    
   106   52  175 1    
   107   53  176 1    
   108   53  177 1    
   109   53  178 1    
   110   54   55 am   BACKBONE|DICT|INTERRES
   111   54  179 1    
   112   55   56 2    
   113   55   57 1    
   114   57   58 1    
   115   57   59 1    
   116   57  180 1    
   117   58  181 1    
   118   58  182 1    
   119   58  183 1    
   120   59   60 am   BACKBONE|DICT|INTERRES
   121   59  184 1    
   122   60   61 2    
   123   60   62 1    
   124   62   63 1    
   125   62   64 1    
   126   62  185 1    
   127   63  186 1    
   128   63  187 1    
   129   63  188 1    
   130   64   65 am   BACKBONE|DICT|INTERRES
   131   64  189 1    
   132   65   66 2    
   133   67   68 2    
   134   67   69 am   BACKBONE|DICT|INTERRES
   135   69   70 1    
   136   69  190 1    
   137   70   71 1    
   138   70   72 1    
   139   70  191 1    
   140   71  192 1    
   141   71  193 1    
   142   71  194 1    
   143   72   73 2    
   144   72   74 am   BACKBONE|DICT|INTERRES
   145   74   75 1    
   146   74  195 1    
   147   75   76 1    
   148   75   77 1    
   149   75  196 1    
   150   76  197 1    
   151   76  198 1    
   152   76  199 1    
   153   77   78 2    
   154   77   79 am   BACKBONE|DICT|INTERRES
   155   79   80 1    
   156   79  200 1    
   157   80   81 1    
   158   80   82 1    
   159   80  201 1    
   160   81  202 1    
   161   81  203 1    
   162   81  204 1    
   163   82   83 2    
   164   82   84 am   BACKBONE|DICT|INTERRES
   165   84   85 1    
   166   84  205 1    
   167   85   86 1    
   168   85   87 1    
   169   85  206 1    
   170   86  207 1    
   171   86  208 1    
   172   86  209 1    
   173   87   88 2    
   174   87   89 am   BACKBONE|DICT|INTERRES
   175   89   90 1    
   176   89  210 1    
   177   90   91 1    
   178   90   92 1    
   179   90  211 1    
   180   91  212 1    
   181   91  213 1    
   182   91  214 1    
   183   92   93 2    
   184   92   94 am   BACKBONE|DICT|INTERRES
   185   94   95 1    
   186   94  215 1    
   187   95   96 1    
   188   95   97 1    
   189   95  216 1    
   190   96  217 1    
   191   96  218 1    
   192   96  219 1    
   193   97   98 2    
   194   97   99 am   BACKBONE|DICT|INTERRES
   195   99  100 1    
   196   99  220 1    
   197  100  101 1    
   198  100  102 1    
   199  100  221 1    
   200  101  222 1    
   201  101  223 1    
   202  101  224 1    
   203  102  103 2    
   204  102  104 am   BACKBONE|DICT|INTERRES
   205  104  105 1    
   206  104  225 1    
   207  105  106 1    
   208  105  107 1    
   209  105  226 1    
   210  106  227 1    
   211  106  228 1    
   212  106  229 1    
   213  107  108 2    
   214  107  109 am   BACKBONE|DICT|INTERRES
   215  109  110 1    
   216  109  230 1    
   217  110  111 1    
   218  110  112 1    
   219  110  231 1    
   220  111  232 1    
   221  111  233 1    
   222  111  234 1    
   223  112  113 2    
   224  112  114 am   BACKBONE|DICT|INTERRES
   225  114  115 1    
   226  114  235 1    
   227  115  116 1    
   228  115  117 1    
   229  115  236 1    
   230  116  237 1    
   231  116  238 1    
   232  116  239 1    
   233  117  118 2    
   234  117  119 am   BACKBONE|DICT|INTERRES
   235  119  120 1    
   236  119  240 1    
   237  120  121 1    
   238  120  124 1    
   239  120  241 1    
   240  121  122 am   BACKBONE|DICT|INTERRES
   241  121  123 2    
   242  122  242 1    
   243  122  243 1    
   244  124  125 1    
   245  124  244 1    
   246  124  245 1    
   247  125  126 1    
   248  126  246 1    
   249  126  247 1    
@<TRIPOS>SUBSTRUCTURE
     1 UNK         1 GROUP             0       ****    0 ROOT    
