@<TRIPOS>MOLECULE
3R540
247   249    1
SMALL
USER_CHARGES


@<TRIPOS>ATOM
      1 CA         -5.0824  -18.3058  -47.7845 C.3       0 UNK        -0.1800 
      2 C          -4.7027  -16.9356  -48.3286 C.2       0 UNK         0.5000 
      3 O          -5.5628  -16.0628  -48.4393 O.2       0 UNK        -0.5000 
      4 N          -3.4236  -16.7484  -48.6824 N.am      1 UNK        -0.5000 
      5 CA         -2.8883  -15.5088  -49.2611 C.3       1 UNK         0.1400 
      6 C6         -1.5011  -15.7224  -49.9193 C.3       23 UNK        -0.0398 
      7 S7         -0.2270  -16.3643  -48.7780 S.3       23 UNK        -0.2404 
      8 C8          1.2883  -16.0688  -49.7366 C.3       23 UNK        -0.0205 
      9 C9          1.6604  -17.2782  -50.5787 C.ar      23 UNK        -0.0193 
     10 C10         1.2621  -17.3753  -51.9162 C.ar      23 UNK        -0.1150 
     11 C11         1.6397  -18.4792  -52.6893 C.ar      23 UNK        -0.0193 
     12 C12         2.4276  -19.4814  -52.1159 C.ar      23 UNK        -0.1150 
     13 C13         2.7997  -19.4116  -50.7720 C.ar      23 UNK        -0.0193 
     14 C14         2.4217  -18.3027  -50.0113 C.ar      23 UNK        -0.1150 
     15 C15         3.5945  -20.5411  -50.1343 C.3       23 UNK        -0.0205 
     16 S16         2.6544  -22.1013  -50.0583 S.3       23 UNK        -0.2404 
     17 C17         1.1775  -21.6265  -49.0947 C.3       23 UNK        -0.0398 
     18 CA          1.1162  -22.1702  -47.6406 C.3       11 UNK         0.1400 
     19 N           2.1577  -21.6183  -46.7623 N.am      11 UNK        -0.5000 
     20 C           3.3630  -22.1824  -46.5897 C.2       10 UNK         0.5000 
     21 O           3.6965  -23.2581  -47.0890 O.2       10 UNK        -0.5000 
     22 CA          4.3773  -21.4314  -45.7079 C.3       10 UNK         0.1400 
     23 CB          4.7699  -20.0715  -46.3076 C.3       10 UNK        -0.1800 
     24 N           3.8922  -21.2553  -44.3436 N.am      10 UNK        -0.5000 
     25 C           3.7906  -22.2456  -43.4457 C.2       9 UNK         0.5000 
     26 O           4.1451  -23.4057  -43.6595 O.2       9 UNK        -0.5000 
     27 CA          3.1905  -21.8859  -42.0740 C.3       9 UNK         0.1400 
     28 CB          4.2944  -21.4316  -41.1071 C.3       9 UNK        -0.1800 
     29 N           2.1581  -20.8529  -42.1472 N.am      9 UNK        -0.5000 
     30 C           0.9923  -20.9859  -42.7942 C.2       8 UNK         0.5000 
     31 O           0.6399  -22.0023  -43.3929 O.2       8 UNK        -0.5000 
     32 CA          0.0880  -19.7472  -42.8286 C.3       8 UNK         0.1400 
     33 CB         -0.6036  -19.5154  -41.4778 C.3       8 UNK        -0.1800 
     34 N           0.8030  -18.5410  -43.2427 N.am      8 UNK        -0.5000 
     35 C           1.4304  -18.3706  -44.4163 C.2       7 UNK         0.5000 
     36 O           1.4482  -19.2072  -45.3215 O.2       7 UNK        -0.5000 
     37 CA          2.2009  -17.0538  -44.5923 C.3       7 UNK         0.1400 
     38 CB          1.2493  -15.9138  -44.9845 C.3       7 UNK        -0.1800 
     39 N           2.9405  -16.6941  -43.3821 N.am      7 UNK        -0.5000 
     40 C           4.0017  -17.3704  -42.9182 C.2       6 UNK         0.5000 
     41 O           4.4931  -18.3458  -43.4843 O.2       6 UNK        -0.5000 
     42 CA          4.5849  -16.9023  -41.5731 C.3       6 UNK         0.1400 
     43 CB          5.5103  -15.6925  -41.7722 C.3       6 UNK        -0.1800 
     44 N           3.5454  -16.5653  -40.6003 N.am      6 UNK        -0.5000 
     45 C           2.6958  -17.4524  -40.0635 C.2       5 UNK         0.5000 
     46 O           2.7195  -18.6584  -40.3071 O.2       5 UNK        -0.5000 
     47 CA          1.6065  -16.8876  -39.1333 C.3       5 UNK         0.1400 
     48 CB          2.1333  -16.7692  -37.6954 C.3       5 UNK        -0.1800 
     49 N           1.0794  -15.5900  -39.5675 N.am      5 UNK        -0.5000 
     50 C           0.4573  -15.3721  -40.7337 C.2       4 UNK         0.5000 
     51 O           0.3199  -16.2303  -41.6075 O.2       4 UNK        -0.5000 
     52 CA         -0.0490  -13.9408  -40.9858 C.3       4 UNK         0.1400 
     53 CB          0.9928  -13.1468  -41.7894 C.3       4 UNK        -0.1800 
     54 N          -1.3196  -13.9173  -41.7108 N.am      4 UNK        -0.5000 
     55 C          -2.4788  -14.4277  -41.2703 C.2       3 UNK         0.5000 
     56 O          -2.6143  -14.9503  -40.1626 O.2       3 UNK        -0.5000 
     57 CA         -3.7063  -14.3082  -42.1985 C.3       3 UNK         0.1400 
     58 CB         -4.7841  -13.4179  -41.5574 C.3       3 UNK        -0.1800 
     59 N          -3.3859  -13.7652  -43.5222 N.am      3 UNK        -0.5000 
     60 C          -2.9532  -14.4910  -44.5590 C.2       2 UNK         0.5000 
     61 O          -2.7670  -15.7097  -44.5200 O.2       2 UNK        -0.5000 
     62 CA         -2.6647  -13.7140  -45.8500 C.3       2 UNK         0.1400 
     63 CB         -1.2926  -13.0177  -45.7819 C.3       2 UNK        -0.1800 
     64 N          -2.6993  -14.6481  -46.9663 N.am      2 UNK        -0.5000 
     65 C          -2.8610  -14.3344  -48.2565 C.2       1 UNK         0.5000 
     66 O          -2.9922  -13.1807  -48.6686 O.2       1 UNK        -0.5000 
     67 C          -0.3066  -21.9231  -47.1068 C.2       11 UNK         0.5000 
     68 O          -1.1707  -22.7759  -47.3135 O.2       11 UNK        -0.5000 
     69 N          -0.5722  -20.7493  -46.5118 N.am      12 UNK        -0.5000 
     70 CA         -1.9305  -20.2156  -46.3496 C.3       12 UNK         0.1400 
     71 CB         -1.8821  -18.7218  -45.9878 C.3       12 UNK        -0.1800 
     72 C          -2.8573  -21.0096  -45.4098 C.2       12 UNK         0.5000 
     73 O          -4.0744  -20.8658  -45.5237 O.2       12 UNK        -0.5000 
     74 N          -2.2979  -21.8832  -44.5590 N.am      13 UNK        -0.5000 
     75 CA         -3.0563  -22.8327  -43.7378 C.3       13 UNK         0.1400 
     76 CB         -2.1144  -23.5082  -42.7308 C.3       13 UNK        -0.1800 
     77 C          -3.8127  -23.8943  -44.5653 C.2       13 UNK         0.5000 
     78 O          -4.8017  -24.4424  -44.0779 O.2       13 UNK        -0.5000 
     79 N          -3.3619  -24.1477  -45.8036 N.am      14 UNK        -0.5000 
     80 CA         -4.0280  -25.0265  -46.7670 C.3       14 UNK         0.1400 
     81 CB         -2.9831  -25.5560  -47.7629 C.3       14 UNK        -0.1800 
     82 C          -5.1833  -24.3323  -47.5185 C.2       14 UNK         0.5000 
     83 O          -5.8774  -24.9994  -48.2854 O.2       14 UNK        -0.5000 
     84 N          -5.3500  -23.0126  -47.3301 N.am      15 UNK        -0.5000 
     85 CA         -6.3613  -22.1086  -47.9012 C.3       15 UNK         0.1400 
     86 CB         -7.7842  -22.5442  -47.5057 C.3       15 UNK        -0.1800 
     87 C          -6.2613  -21.8670  -49.4226 C.2       15 UNK         0.5000 
     88 O          -6.6847  -20.8081  -49.8859 O.2       15 UNK        -0.5000 
     89 N          -5.6797  -22.8131  -50.1722 N.am      16 UNK        -0.5000 
     90 CA         -5.5132  -22.7980  -51.6301 C.3       16 UNK         0.1400 
     91 CB         -4.8085  -24.0929  -52.0619 C.3       16 UNK        -0.1800 
     92 C          -4.7572  -21.5730  -52.1790 C.2       16 UNK         0.5000 
     93 O          -5.0063  -21.1688  -53.3137 O.2       16 UNK        -0.5000 
     94 N          -3.8875  -20.9766  -51.3512 N.am      17 UNK        -0.5000 
     95 CA         -3.1338  -19.7573  -51.6494 C.3       17 UNK         0.1400 
     96 CB         -2.0191  -19.5906  -50.6035 C.3       17 UNK        -0.1800 
     97 C          -3.9942  -18.4817  -51.7811 C.2       17 UNK         0.5000 
     98 O          -3.4764  -17.4535  -52.2155 O.2       17 UNK        -0.5000 
     99 N          -5.2906  -18.5573  -51.4398 N.am      18 UNK        -0.5000 
    100 CA        -6.2811  -17.5253  -51.7600 C.3       18 UNK         0.1400 
    101 CB        -7.5817  -17.8146  -50.9951 C.3       18 UNK        -0.1800 
    102 C         -6.5705  -17.4238  -53.2737 C.2       18 UNK         0.5000 
    103 O         -7.0288  -16.3761  -53.7316 O.2       18 UNK        -0.5000 
    104 N         -6.3013  -18.5057  -54.0147 N.am      19 UNK        -0.5000 
    105 CA        -6.3918  -18.5982  -55.4668 C.3       19 UNK         0.1400 
    106 CB        -7.2615  -19.8211  -55.8112 C.3       19 UNK        -0.1800 
    107 C         -4.9809  -18.7417  -56.0667 C.2       19 UNK         0.5000 
    108 O         -3.9919  -18.8340  -55.3372 O.2       19 UNK        -0.5000 
    109 N         -4.9121  -18.8020  -57.4028 N.am      20 UNK        -0.5000 
    110 CA        -3.6815  -19.0186  -58.1741 C.3       20 UNK         0.1400 
    111 CB        -3.9591  -18.6716  -59.6457 C.3       20 UNK        -0.1800 
    112 C         -3.1000  -20.4460  -58.0525 C.2       20 UNK         0.5000 
    113 O         -2.0049  -20.6973  -58.5584 O.2       20 UNK        -0.5000 
    114 N         -3.8301  -21.3526  -57.3858 N.am      21 UNK        -0.5000 
    115 CA        -3.4972  -22.7614  -57.1596 C.3       21 UNK         0.1400 
    116 CB        -4.6478  -23.4163  -56.3793 C.3       21 UNK        -0.1800 
    117 C         -2.1529  -23.0097  -56.4447 C.2       21 UNK         0.5000 
    118 O         -1.5858  -24.0919  -56.6020 O.2       21 UNK        -0.5000 
    119 N         -1.6553  -22.0154  -55.6973 N.am      22 UNK        -0.5000 
    120 CA        -0.3059  -22.0179  -55.1120 C.3       22 UNK         0.1400 
    121 C          0.8564  -21.8128  -56.1318 C.2       22 UNK         0.5000 
    122 N          0.6002  -21.4390  -57.3808 N.am      22 UNK        -0.7600 
    123 O          2.0171  -22.0097  -55.7828 O.2       22 UNK        -0.5000 
    124 C124       -0.1990  -21.0548  -53.9041 C.3       23 UNK        -0.0398 
    125 S125       -0.4651  -19.2903  -54.3177 S.3       23 UNK        -0.2404 
    126 C126        1.2076  -18.5874  -54.1451 C.3       23 UNK        -0.0205 
    127 H127       -6.0333  -18.6297  -48.2052 H         1 UNK         0.0600 
    128 H128       -5.1904  -18.2667  -46.7008 H         1 UNK         0.0600 
    129 H129       -4.3380  -19.0605  -48.0330 H         1 UNK         0.0600 
    130 H130       -2.7474  -17.4855  -48.5546 H         1 UNK         0.3000 
    131 H131       -3.5728  -15.2130  -50.0595 H         1 UNK         0.0600 
    132 H132       -1.5881  -16.4168  -50.7535 H         1 UNK         0.0800 
    133 H133       -1.1512  -14.7864  -50.3581 H         1 UNK         0.0800 
    134 H134        1.1822  -15.1816  -50.3621 H         1 UNK         0.0800 
    135 H135        2.0990  -15.8479  -49.0406 H         1 UNK         0.0800 
    136 H136        0.6596  -16.5931  -52.3564 H         1 UNK         0.1150 
    137 H137        2.7353  -20.3329  -52.7062 H         1 UNK         0.1150 
    138 H138        2.7120  -18.2380  -48.9718 H         1 UNK         0.1150 
    139 H139        4.5101  -20.7037  -50.7042 H         1 UNK         0.0800 
    140 H140        3.9020  -20.2693  -49.1261 H         1 UNK         0.0800 
    141 H141        1.0635  -20.5427  -49.0884 H         1 UNK         0.0800 
    142 H142        0.3293  -22.0027  -49.6702 H         1 UNK         0.0800 
    143 H143        1.2288  -23.2559  -47.6797 H         1 UNK         0.0600 
    144 H144        1.9433  -20.7580  -46.2657 H         1 UNK         0.3000 
    145 H145        5.2862  -22.0353  -45.6621 H         1 UNK         0.0600 
    146 H146        5.4974  -19.5608  -45.6771 H         1 UNK         0.0600 
    147 H147        5.2366  -20.2006  -47.2835 H         1 UNK         0.0600 
    148 H148        3.9127  -19.4098  -46.4309 H         1 UNK         0.0600 
    149 H149        3.6212  -20.3186  -44.0722 H         1 UNK         0.3000 
    150 H150        2.7296  -22.7886  -41.6681 H         1 UNK         0.0600 
    151 H151        5.0763  -22.1872  -41.0210 H         1 UNK         0.0600 
    152 H152        3.8961  -21.2603  -40.1069 H         1 UNK         0.0600 
    153 H153        4.7648  -20.5063  -41.4427 H         1 UNK         0.0600 
    154 H154        2.3529  -19.9844  -41.6558 H         1 UNK         0.3000 
    155 H155       -0.6898  -19.9434  -43.5605 H         1 UNK         0.0600 
    156 H156       -1.2820  -18.6631  -41.5243 H         1 UNK         0.0600 
    157 H157        0.1156  -19.3273  -40.6818 H         1 UNK         0.0600 
    158 H158       -1.1932  -20.3857  -41.1878 H         1 UNK         0.0600 
    159 H159        0.7932  -17.7638  -42.5863 H         1 UNK         0.3000 
    160 H160        2.9185  -17.1917  -45.4039 H         1 UNK         0.0600 
    161 H161        0.5000  -15.7232  -44.2158 H         1 UNK         0.0600 
    162 H162        0.7136  -16.1555  -45.9028 H         1 UNK         0.0600 
    163 H163        1.7946  -14.9867  -45.1610 H         1 UNK         0.0600 
    164 H164        2.5621  -15.9433  -42.8247 H         1 UNK         0.3000 
    165 H165        5.1786  -17.7229  -41.1645 H         1 UNK         0.0600 
    166 H166        4.9680  -14.8261  -42.1529 H         1 UNK         0.0600 
    167 H167        5.9889  -15.4045  -40.8360 H         1 UNK         0.0600 
    168 H168        6.3039  -15.9223  -42.4844 H         1 UNK         0.0600 
    169 H169        3.4534  -15.5938  -40.3436 H         1 UNK         0.3000 
    170 H170        0.7759  -17.5957  -39.1316 H         1 UNK         0.0600 
    171 H171        2.5147  -17.7274  -37.3396 H         1 UNK         0.0600 
    172 H172        2.9452  -16.0447  -37.6210 H         1 UNK         0.0600 
    173 H173        1.3437  -16.4613  -37.0098 H         1 UNK         0.0600 
    174 H174        1.1650  -14.8293  -38.9088 H         1 UNK         0.3000 
    175 H175       -0.2032  -13.4468  -40.0244 H         1 UNK         0.0600 
    176 H176        0.6772  -12.1129  -41.9313 H         1 UNK         0.0600 
    177 H177        1.9532  -13.1230  -41.2729 H         1 UNK         0.0600 
    178 H178        1.1603  -13.5836  -42.7749 H         1 UNK         0.0600 
    179 H179       -1.3004  -13.5298  -42.6408 H         1 UNK         0.3000 
    180 H180       -4.1221  -15.3116  -42.3135 H         1 UNK         0.0600 
    181 H181       -5.6765  -13.3675  -42.1816 H         1 UNK         0.0600 
    182 H182       -5.0921  -13.8099  -40.5871 H         1 UNK         0.0600 
    183 H183       -4.4248  -12.4000  -41.4009 H         1 UNK         0.0600 
    184 H184       -3.5095  -12.7690  -43.6362 H         1 UNK         0.3000 
    185 H185       -3.4505  -12.9680  -45.9866 H         1 UNK         0.0600 
    186 H186       -1.0988  -12.4335  -46.6814 H         1 UNK         0.0600 
    187 H187       -1.2376  -12.3318  -44.9359 H         1 UNK         0.0600 
    188 H188       -0.4830  -13.7393  -45.6750 H         1 UNK         0.0600 
    189 H189       -2.6331  -15.6202  -46.6920 H         1 UNK         0.3000 
    190 H190        0.1865  -20.1126  -46.2834 H         1 UNK         0.3000 
    191 H191       -2.3960  -20.2820  -47.3342 H         1 UNK         0.0600 
    192 H192       -1.2946  -18.1602  -46.7120 H         1 UNK         0.0600 
    193 H193       -1.4556  -18.5351  -45.0068 H         1 UNK         0.0600 
    194 H194       -2.8811  -18.2882  -45.9729 H         1 UNK         0.0600 
    195 H195       -1.2887  -21.9694  -44.5351 H         1 UNK         0.3000 
    196 H196       -3.8032  -22.2678  -43.1760 H         1 UNK         0.0600 
    197 H197       -2.6527  -24.2243  -42.1086 H         1 UNK         0.0600 
    198 H198       -1.6628  -22.7766  -42.0613 H         1 UNK         0.0600 
    199 H199       -1.3103  -24.0478  -43.2328 H         1 UNK         0.0600 
    200 H200       -2.5435  -23.6522  -46.1454 H         1 UNK         0.3000 
    201 H201       -4.4504  -25.8817  -46.2354 H         1 UNK         0.0600 
    202 H202       -2.1498  -26.0331  -47.2468 H         1 UNK         0.0600 
    203 H203       -2.5795  -24.7585  -48.3874 H         1 UNK         0.0600 
    204 H204       -3.4204  -26.3007  -48.4291 H         1 UNK         0.0600 
    205 H205       -4.7171  -22.5590  -46.6822 H         1 UNK         0.3000 
    206 H206       -6.1784  -21.1413  -47.4312 H         1 UNK         0.0600 
    207 H207       -7.8778  -22.6490  -46.4248 H         1 UNK         0.0600 
    208 H208       -8.5195  -21.8044  -47.8250 H         1 UNK         0.0600 
    209 H209       -8.0623  -23.4948  -47.9615 H         1 UNK         0.0600 
    210 H210       -5.4375  -23.6765  -49.6993 H         1 UNK         0.3000 
    211 H211       -6.5115  -22.7852  -52.0717 H         1 UNK         0.0600 
    212 H212       -3.8155  -24.1765  -51.6183 H         1 UNK         0.0600 
    213 H213       -4.6890  -24.1331  -53.1454 H         1 UNK         0.0600 
    214 H214       -5.3825  -24.9716  -51.7670 H         1 UNK         0.0600 
    215 H215       -3.7605  -21.3778  -50.4345 H         1 UNK         0.3000 
    216 H216       -2.6711  -19.9010  -52.6245 H         1 UNK         0.0600 
    217 H217       -1.3678  -18.7537  -50.8559 H         1 UNK         0.0600 
    218 H218       -1.3876  -20.4772  -50.5579 H         1 UNK         0.0600 
    219 H219       -2.4220  -19.4117  -49.6080 H         1 UNK         0.0600 
    220 H220       -5.6522  -19.4224  -51.0527 H         1 UNK         0.3000 
    221 H221       -5.8937  -16.5600  -51.4274 H         1 UNK         0.0600 
    222 H222       -8.0065  -18.7793  -51.2753 H         1 UNK         0.0600 
    223 H223       -7.4175  -17.8202  -49.9186 H         1 UNK         0.0600 
    224 H224       -8.3339  -17.0522  -51.2011 H         1 UNK         0.0600 
    225 H225       -5.8458  -19.2969  -53.5716 H         1 UNK         0.3000 
    226 H226       -6.8515  -17.7016  -55.8870 H         1 UNK         0.0600 
    227 H227       -8.2462  -19.7427  -55.3499 H         1 UNK         0.0600 
    228 H228       -7.4191  -19.9116  -56.8863 H         1 UNK         0.0600 
    229 H229       -6.8063  -20.7500  -55.4644 H         1 UNK         0.0600 
    230 H230       -5.7639  -18.7230  -57.9399 H         1 UNK         0.3000 
    231 H231       -2.9197  -18.3315  -57.7999 H         1 UNK         0.0600 
    232 H232       -3.0570  -18.7734  -60.2505 H         1 UNK         0.0600 
    233 H233       -4.3021  -17.6422  -59.7509 H         1 UNK         0.0600 
    234 H234       -4.7182  -19.3257  -60.0765 H         1 UNK         0.0600 
    235 H235       -4.7036  -21.0386  -56.9919 H         1 UNK         0.3000 
    236 H236       -3.4314  -23.2394  -58.1389 H         1 UNK         0.0600 
    237 H237       -4.7928  -22.9418  -55.4083 H         1 UNK         0.0600 
    238 H238       -5.5870  -23.3498  -56.9286 H         1 UNK         0.0600 
    239 H239       -4.4509  -24.4745  -56.2017 H         1 UNK         0.0600 
    240 H240       -2.1753  -21.1520  -55.6213 H         1 UNK         0.3000 
    241 H241       -0.1459  -23.0198  -54.7085 H         1 UNK         0.0600 
    242 H242        1.3652  -21.3183  -58.0249 H         1 UNK         0.3800 
    243 H243       -0.3479  -21.2533  -57.6939 H         1 UNK         0.3800 
    244 H244        0.7627  -21.1879  -53.4126 H         1 UNK         0.0800 
    245 H245       -0.9361  -21.3410  -53.1541 H         1 UNK         0.0800 
    246 H246        1.9181  -19.1890  -54.7141 H         1 UNK         0.0800 
    247 H247        1.2181  -17.5962  -54.6005 H         1 UNK         0.0800 
@<TRIPOS>BOND
     1    1    2 1    
     2    1  127 1    
     3    1  128 1    
     4    1  129 1    
     5    2    3 2    
     6    2    4 am   BACKBONE|DICT|INTERRES
     7    4    5 1    
     8    4  130 1    
     9    5    6 1    
    10    5   65 1    
    11    5  131 1    
    12    6    7 1    
    13    6  132 1    
    14    6  133 1    
    15    7    8 1    
    16    8    9 1    
    17    8  134 1    
    18    8  135 1    
    19    9   10 ar   
    20    9   14 ar   
    21   10   11 ar   
    22   10  136 1    
    23   11   12 ar   
    24   11  126 1    
    25   12   13 ar   
    26   12  137 1    
    27   13   14 ar   
    28   13   15 1    
    29   14  138 1    
    30   15   16 1    
    31   15  139 1    
    32   15  140 1    
    33   16   17 1    
    34   17   18 1    
    35   17  141 1    
    36   17  142 1    
    37   18   19 1    
    38   18   67 1    
    39   18  143 1    
    40   19   20 am   BACKBONE|DICT|INTERRES
    41   19  144 1    
    42   20   21 2    
    43   20   22 1    
    44   22   23 1    
    45   22   24 1    
    46   22  145 1    
    47   23  146 1    
    48   23  147 1    
    49   23  148 1    
    50   24   25 am   BACKBONE|DICT|INTERRES
    51   24  149 1    
    52   25   26 2    
    53   25   27 1    
    54   27   28 1    
    55   27   29 1    
    56   27  150 1    
    57   28  151 1    
    58   28  152 1    
    59   28  153 1    
    60   29   30 am   BACKBONE|DICT|INTERRES
    61   29  154 1    
    62   30   31 2    
    63   30   32 1    
    64   32   33 1    
    65   32   34 1    
    66   32  155 1    
    67   33  156 1    
    68   33  157 1    
    69   33  158 1    
    70   34   35 am   BACKBONE|DICT|INTERRES
    71   34  159 1    
    72   35   36 2    
    73   35   37 1    
    74   37   38 1    
    75   37   39 1    
    76   37  160 1    
    77   38  161 1    
    78   38  162 1    
    79   38  163 1    
    80   39   40 am   BACKBONE|DICT|INTERRES
    81   39  164 1    
    82   40   41 2    
    83   40   42 1    
    84   42   43 1    
    85   42   44 1    
    86   42  165 1    
    87   43  166 1    
    88   43  167 1    
    89   43  168 1    
    90   44   45 am   BACKBONE|DICT|INTERRES
    91   44  169 1    
    92   45   46 2    
    93   45   47 1    
    94   47   48 1    
    95   47   49 1    
    96   47  170 1    
    97   48  171 1    
    98   48  172 1    
    99   48  173 1    
   100   49   50 am   BACKBONE|DICT|INTERRES
   101   49  174 1    
   102   50   51 2    
   103   50   52 1    
   104   52   53 1    
   105   52   54 1    
   106   52  175 1    
   107   53  176 1    
   108   53  177 1    
   109   53  178 1    
   110   54   55 am   BACKBONE|DICT|INTERRES
   111   54  179 1    
   112   55   56 2    
   113   55   57 1    
   114   57   58 1    
   115   57   59 1    
   116   57  180 1    
   117   58  181 1    
   118   58  182 1    
   119   58  183 1    
   120   59   60 am   BACKBONE|DICT|INTERRES
   121   59  184 1    
   122   60   61 2    
   123   60   62 1    
   124   62   63 1    
   125   62   64 1    
   126   62  185 1    
   127   63  186 1    
   128   63  187 1    
   129   63  188 1    
   130   64   65 am   BACKBONE|DICT|INTERRES
   131   64  189 1    
   132   65   66 2    
   133   67   68 2    
   134   67   69 am   BACKBONE|DICT|INTERRES
   135   69   70 1    
   136   69  190 1    
   137   70   71 1    
   138   70   72 1    
   139   70  191 1    
   140   71  192 1    
   141   71  193 1    
   142   71  194 1    
   143   72   73 2    
   144   72   74 am   BACKBONE|DICT|INTERRES
   145   74   75 1    
   146   74  195 1    
   147   75   76 1    
   148   75   77 1    
   149   75  196 1    
   150   76  197 1    
   151   76  198 1    
   152   76  199 1    
   153   77   78 2    
   154   77   79 am   BACKBONE|DICT|INTERRES
   155   79   80 1    
   156   79  200 1    
   157   80   81 1    
   158   80   82 1    
   159   80  201 1    
   160   81  202 1    
   161   81  203 1    
   162   81  204 1    
   163   82   83 2    
   164   82   84 am   BACKBONE|DICT|INTERRES
   165   84   85 1    
   166   84  205 1    
   167   85   86 1    
   168   85   87 1    
   169   85  206 1    
   170   86  207 1    
   171   86  208 1    
   172   86  209 1    
   173   87   88 2    
   174   87   89 am   BACKBONE|DICT|INTERRES
   175   89   90 1    
   176   89  210 1    
   177   90   91 1    
   178   90   92 1    
   179   90  211 1    
   180   91  212 1    
   181   91  213 1    
   182   91  214 1    
   183   92   93 2    
   184   92   94 am   BACKBONE|DICT|INTERRES
   185   94   95 1    
   186   94  215 1    
   187   95   96 1    
   188   95   97 1    
   189   95  216 1    
   190   96  217 1    
   191   96  218 1    
   192   96  219 1    
   193   97   98 2    
   194   97   99 am   BACKBONE|DICT|INTERRES
   195   99  100 1    
   196   99  220 1    
   197  100  101 1    
   198  100  102 1    
   199  100  221 1    
   200  101  222 1    
   201  101  223 1    
   202  101  224 1    
   203  102  103 2    
   204  102  104 am   BACKBONE|DICT|INTERRES
   205  104  105 1    
   206  104  225 1    
   207  105  106 1    
   208  105  107 1    
   209  105  226 1    
   210  106  227 1    
   211  106  228 1    
   212  106  229 1    
   213  107  108 2    
   214  107  109 am   BACKBONE|DICT|INTERRES
   215  109  110 1    
   216  109  230 1    
   217  110  111 1    
   218  110  112 1    
   219  110  231 1    
   220  111  232 1    
   221  111  233 1    
   222  111  234 1    
   223  112  113 2    
   224  112  114 am   BACKBONE|DICT|INTERRES
   225  114  115 1    
   226  114  235 1    
   227  115  116 1    
   228  115  117 1    
   229  115  236 1    
   230  116  237 1    
   231  116  238 1    
   232  116  239 1    
   233  117  118 2    
   234  117  119 am   BACKBONE|DICT|INTERRES
   235  119  120 1    
   236  119  240 1    
   237  120  121 1    
   238  120  124 1    
   239  120  241 1    
   240  121  122 am   BACKBONE|DICT|INTERRES
   241  121  123 2    
   242  122  242 1    
   243  122  243 1    
   244  124  125 1    
   245  124  244 1    
   246  124  245 1    
   247  125  126 1    
   248  126  246 1    
   249  126  247 1    
@<TRIPOS>SUBSTRUCTURE
     1 UNK         1 GROUP             0       ****    0 ROOT    
