@<TRIPOS>MOLECULE
3R540
247   249    1
SMALL
USER_CHARGES


@<TRIPOS>ATOM
      1 CA         -3.1886  -11.3763  -46.1320 C.3       0 UNK        -0.1800 
      2 C          -1.9323  -12.1245  -45.7138 C.2       0 UNK         0.5000 
      3 O          -1.4506  -11.9339  -44.5998 O.2       0 UNK        -0.5000 
      4 N          -1.4149  -12.9939  -46.5894 N.am      1 UNK        -0.5000 
      5 CA         -0.1961  -13.8049  -46.4297 C.3       1 UNK         0.1400 
      6 C6          0.1126  -14.6384  -47.7047 C.3       23 UNK        -0.0398 
      7 S7         -1.3549  -15.3822  -48.5104 S.3       23 UNK        -0.2404 
      8 C8         -1.5465  -16.9672  -47.6407 C.3       23 UNK        -0.0205 
      9 C9         -1.5695  -18.1237  -48.6248 C.ar      23 UNK        -0.0193 
     10 C10        -2.7700  -18.5157  -49.2216 C.ar      23 UNK        -0.1150 
     11 C11        -2.7992  -19.5810  -50.1262 C.ar      23 UNK        -0.0193 
     12 C12        -1.6135  -20.2556  -50.4346 C.ar      23 UNK        -0.1150 
     13 C13        -0.4054  -19.8677  -49.8462 C.ar      23 UNK        -0.0193 
     14 C14        -0.3910  -18.8006  -48.9436 C.ar      23 UNK        -0.1150 
     15 C15         0.8922  -20.5771  -50.2043 C.3       23 UNK        -0.0205 
     16 S16         0.9914  -22.2679  -49.5325 S.3       23 UNK        -0.2404 
     17 C17         0.9536  -21.9808  -47.7280 C.3       23 UNK        -0.0398 
     18 CA         -0.0797  -22.8780  -47.0075 C.3       11 UNK         0.1400 
     19 N           0.1157  -22.8932  -45.5565 N.am      11 UNK        -0.5000 
     20 C          -0.4552  -23.7765  -44.7239 C.2       10 UNK         0.5000 
     21 O          -1.1738  -24.7037  -45.0953 O.2       10 UNK        -0.5000 
     22 CA         -0.2312  -23.5458  -43.2189 C.3       10 UNK         0.1400 
     23 CB          1.1361  -24.0902  -42.7802 C.3       10 UNK        -0.1800 
     24 N          -0.3330  -22.1308  -42.8601 N.am      10 UNK        -0.5000 
     25 C          -1.4596  -21.4095  -42.9509 C.2       9 UNK         0.5000 
     26 O          -2.5464  -21.8818  -43.2808 O.2       9 UNK        -0.5000 
     27 CA         -1.3425  -19.9002  -42.6782 C.3       9 UNK         0.1400 
     28 CB         -1.5789  -19.5927  -41.1928 C.3       9 UNK        -0.1800 
     29 N          -0.0512  -19.3453  -43.0831 N.am      9 UNK        -0.5000 
     30 C           0.4025  -19.2616  -44.3400 C.2       8 UNK         0.5000 
     31 O          -0.2352  -19.6656  -45.3137 O.2       8 UNK        -0.5000 
     32 CA          1.8055  -18.6438  -44.5263 C.3       8 UNK         0.1400 
     33 CB          2.0865  -18.2048  -45.9721 C.3       8 UNK        -0.1800 
     34 N           2.0629  -17.5091  -43.6369 N.am      8 UNK        -0.5000 
     35 C           2.4411  -17.5961  -42.3554 C.2       7 UNK         0.5000 
     36 O           2.4687  -18.6617  -41.7363 O.2       7 UNK        -0.5000 
     37 CA          2.8519  -16.2802  -41.6625 C.3       7 UNK         0.1400 
     38 CB          3.6600  -16.5141  -40.3705 C.3       7 UNK        -0.1800 
     39 N           3.5721  -15.3500  -42.5385 N.am      7 UNK        -0.5000 
     40 C           4.6758  -15.5829  -43.2692 C.2       6 UNK         0.5000 
     41 O           5.2464  -16.6720  -43.3391 O.2       6 UNK        -0.5000 
     42 CA          5.2525  -14.3830  -44.0492 C.3       6 UNK         0.1400 
     43 CB          4.6129  -14.2993  -45.4444 C.3       6 UNK        -0.1800 
     44 N           5.0598  -13.1064  -43.3590 N.am      6 UNK        -0.5000 
     45 C           5.5988  -12.7824  -42.1743 C.2       5 UNK         0.5000 
     46 O           6.4478  -13.4675  -41.6026 O.2       5 UNK        -0.5000 
     47 CA          5.0912  -11.4912  -41.4952 C.3       5 UNK         0.1400 
     48 CB          6.1315  -10.3687  -41.6343 C.3       5 UNK        -0.1800 
     49 N           3.7950  -10.9951  -41.9779 N.am      5 UNK        -0.5000 
     50 C           2.6362  -11.6691  -41.9631 C.2       4 UNK         0.5000 
     51 O           2.5336  -12.8385  -41.5867 O.2       4 UNK        -0.5000 
     52 CA          1.4121  -10.9167  -42.5206 C.3       4 UNK         0.1400 
     53 CB          1.5707  -10.6804  -44.0327 C.3       4 UNK        -0.1800 
     54 N           0.1565  -11.6327  -42.3021 N.am      4 UNK        -0.5000 
     55 C          -0.4148  -11.8907  -41.1187 C.2       3 UNK         0.5000 
     56 O           0.0194  -11.4782  -40.0419 O.2       3 UNK        -0.5000 
     57 CA         -1.6935  -12.7462  -41.1412 C.3       3 UNK         0.1400 
     58 CB         -2.9336  -11.8457  -41.2564 C.3       3 UNK        -0.1800 
     59 N          -1.7019  -13.7018  -42.2515 N.am      3 UNK        -0.5000 
     60 C          -1.3509  -14.9916  -42.1571 C.2       2 UNK         0.5000 
     61 O          -0.9455  -15.5182  -41.1208 O.2       2 UNK        -0.5000 
     62 CA         -1.4919  -15.8533  -43.4274 C.3       2 UNK         0.1400 
     63 CB         -2.8573  -16.5563  -43.4541 C.3       2 UNK        -0.1800 
     64 N          -1.3364  -15.0872  -44.6620 N.am      2 UNK        -0.5000 
     65 C          -0.1601  -14.6908  -45.1634 C.2       1 UNK         0.5000 
     66 O           0.9271  -14.9923  -44.6675 O.2       1 UNK        -0.5000 
     67 C          -1.5313  -22.5083  -47.3689 C.2       11 UNK         0.5000 
     68 O          -2.1093  -23.1546  -48.2406 O.2       11 UNK        -0.5000 
     69 N          -2.1103  -21.5285  -46.6598 N.am      12 UNK        -0.5000 
     70 CA         -3.5075  -21.1193  -46.8101 C.3       12 UNK         0.1400 
     71 CB         -3.7750  -19.8698  -45.9577 C.3       12 UNK        -0.1800 
     72 C          -4.5060  -22.2414  -46.4716 C.2       12 UNK         0.5000 
     73 O          -5.4911  -22.4117  -47.1904 O.2       12 UNK        -0.5000 
     74 N          -4.2225  -22.9955  -45.4013 N.am      13 UNK        -0.5000 
     75 CA         -5.0113  -24.1453  -44.9646 C.3       13 UNK         0.1400 
     76 CB         -4.5919  -24.5403  -43.5400 C.3       13 UNK        -0.1800 
     77 C          -4.8938  -25.3460  -45.9210 C.2       13 UNK         0.5000 
     78 O          -5.9122  -25.9460  -46.2675 O.2       13 UNK        -0.5000 
     79 N          -3.6598  -25.6827  -46.3206 N.am      14 UNK        -0.5000 
     80 CA         -3.3615  -26.8347  -47.1738 C.3       14 UNK         0.1400 
     81 CB         -1.8804  -27.2082  -47.0053 C.3       14 UNK        -0.1800 
     82 C          -3.6763  -26.6059  -48.6634 C.2       14 UNK         0.5000 
     83 O          -3.9060  -27.5805  -49.3803 O.2       14 UNK        -0.5000 
     84 N          -3.6314  -25.3400  -49.1060 N.am      15 UNK        -0.5000 
     85 CA         -3.6558  -24.8785  -50.5000 C.3       15 UNK         0.1400 
     86 CB         -5.0047  -25.2040  -51.1752 C.3       15 UNK        -0.1800 
     87 C          -2.4310  -25.3816  -51.2983 C.2       15 UNK         0.5000 
     88 O          -2.5364  -25.6475  -52.4966 O.2       15 UNK        -0.5000 
     89 N          -1.2905  -25.5185  -50.6038 N.am      16 UNK        -0.5000 
     90 CA         -0.0763  -26.1960  -51.0699 C.3       16 UNK         0.1400 
     91 CB          0.9086  -26.3168  -49.8967 C.3       16 UNK        -0.1800 
     92 C           0.6052  -25.5375  -52.2833 C.2       16 UNK         0.5000 
     93 O           1.2009  -26.2415  -53.0998 O.2       16 UNK        -0.5000 
     94 N           0.4918  -24.2105  -52.3858 N.am      17 UNK        -0.5000 
     95 CA          0.9921  -23.4030  -53.4954 C.3       17 UNK         0.1400 
     96 CB          2.4046  -22.8795  -53.1742 C.3       17 UNK        -0.1800 
     97 C          -0.0250  -22.2962  -53.8167 C.2       17 UNK         0.5000 
     98 O           0.3513  -21.1430  -54.0271 O.2       17 UNK        -0.5000 
     99 N          -1.3118  -22.6734  -53.8246 N.am      18 UNK        -0.5000 
    100 CA        -2.4455  -21.7871  -54.0934 C.3       18 UNK         0.1400 
    101 CB        -3.7427  -22.5246  -53.7342 C.3       18 UNK        -0.1800 
    102 C         -2.5175  -21.2835  -55.5455 C.2       18 UNK         0.5000 
    103 O         -3.0818  -20.2150  -55.7821 O.2       18 UNK        -0.5000 
    104 N         -1.9916  -22.0805  -56.4908 N.am      19 UNK        -0.5000 
    105 CA        -1.8951  -21.8129  -57.9354 C.3       19 UNK         0.1400 
    106 CB        -0.8608  -20.6970  -58.1905 C.3       19 UNK        -0.1800 
    107 C         -3.2489  -21.5197  -58.6255 C.2       19 UNK         0.5000 
    108 O         -3.2761  -20.8635  -59.6676 O.2       19 UNK        -0.5000 
    109 N         -4.3467  -21.9836  -58.0073 N.am      20 UNK        -0.5000 
    110 CA        -5.7521  -21.7007  -58.3264 C.3       20 UNK         0.1400 
    111 CB        -6.1287  -22.2640  -59.7128 C.3       20 UNK        -0.1800 
    112 C         -6.1554  -20.2147  -58.1629 C.2       20 UNK         0.5000 
    113 O         -7.2288  -19.8282  -58.6286 O.2       20 UNK        -0.5000 
    114 N         -5.3132  -19.4075  -57.5009 N.am      21 UNK        -0.5000 
    115 CA        -5.5600  -17.9914  -57.2310 C.3       21 UNK         0.1400 
    116 CB        -4.2163  -17.2498  -57.1526 C.3       21 UNK        -0.1800 
    117 C         -6.3662  -17.7910  -55.9366 C.2       21 UNK         0.5000 
    118 O         -7.1681  -16.8587  -55.8620 O.2       21 UNK        -0.5000 
    119 N         -6.1416  -18.6635  -54.9456 N.am      22 UNK        -0.5000 
    120 CA        -6.8663  -18.6868  -53.6663 C.3       22 UNK         0.1400 
    121 C         -8.3500  -19.1156  -53.8394 C.2       22 UNK         0.5000 
    122 N         -9.2720  -18.4931  -53.1179 N.am      22 UNK        -0.7600 
    123 O         -8.6662  -20.0377  -54.5882 O.2       22 UNK        -0.5000 
    124 C124       -6.1662  -19.5928  -52.6225 C.3       23 UNK        -0.0398 
    125 S125       -4.4560  -19.0653  -52.2691 S.3       23 UNK        -0.2404 
    126 C126       -4.1187  -20.0047  -50.7496 C.3       23 UNK        -0.0205 
    127 H127       -3.9984  -11.5846  -45.4328 H         1 UNK         0.0600 
    128 H128       -3.5178  -11.6628  -47.1311 H         1 UNK         0.0600 
    129 H129       -3.0019  -10.3025  -46.1289 H         1 UNK         0.0600 
    130 H130       -1.8837  -13.1259  -47.4753 H         1 UNK         0.3000 
    131 H131        0.6232  -13.0944  -46.3040 H         1 UNK         0.0600 
    132 H132        0.8702  -15.4032  -47.5251 H         1 UNK         0.0800 
    133 H133        0.5605  -13.9747  -48.4454 H         1 UNK         0.0800 
    134 H134       -2.4772  -16.9420  -47.0727 H         1 UNK         0.0800 
    135 H135       -0.7548  -17.1156  -46.9080 H         1 UNK         0.0800 
    136 H136       -3.6835  -17.9900  -48.9817 H         1 UNK         0.1150 
    137 H137       -1.6278  -21.0824  -51.1299 H         1 UNK         0.1150 
    138 H138        0.5395  -18.4892  -48.4926 H         1 UNK         0.1150 
    139 H139        1.7552  -20.0069  -49.8568 H         1 UNK         0.0800 
    140 H140        0.9771  -20.6201  -51.2903 H         1 UNK         0.0800 
    141 H141        0.7686  -20.9296  -47.5097 H         1 UNK         0.0800 
    142 H142        1.9542  -22.1931  -47.3495 H         1 UNK         0.0800 
    143 H143        0.0823  -23.9020  -47.3524 H         1 UNK         0.0600 
    144 H144        0.6449  -22.1302  -45.1630 H         1 UNK         0.3000 
    145 H145       -1.0073  -24.0916  -42.6779 H         1 UNK         0.0600 
    146 H146        1.2309  -25.1487  -43.0267 H         1 UNK         0.0600 
    147 H147        1.2701  -23.9957  -41.7025 H         1 UNK         0.0600 
    148 H148        1.9578  -23.5645  -43.2681 H         1 UNK         0.0600 
    149 H149        0.5152  -21.6665  -42.5705 H         1 UNK         0.3000 
    150 H150       -2.1183  -19.4014  -43.2602 H         1 UNK         0.0600 
    151 H151       -0.8248  -20.0617  -40.5596 H         1 UNK         0.0600 
    152 H152       -2.5546  -19.9579  -40.8693 H         1 UNK         0.0600 
    153 H153       -1.5541  -18.5194  -41.0025 H         1 UNK         0.0600 
    154 H154        0.5735  -19.0437  -42.3435 H         1 UNK         0.3000 
    155 H155        2.5198  -19.4343  -44.2878 H         1 UNK         0.0600 
    156 H156        3.1061  -17.8332  -46.0765 H         1 UNK         0.0600 
    157 H157        1.4123  -17.4109  -46.2869 H         1 UNK         0.0600 
    158 H158        1.9773  -19.0367  -46.6673 H         1 UNK         0.0600 
    159 H159        1.9702  -16.5843  -44.0469 H         1 UNK         0.3000 
    160 H160        1.9227  -15.7793  -41.3871 H         1 UNK         0.0600 
    161 H161        4.5907  -17.0465  -40.5691 H         1 UNK         0.0600 
    162 H162        3.0901  -17.1024  -39.6505 H         1 UNK         0.0600 
    163 H163        3.9109  -15.5687  -39.8889 H         1 UNK         0.0600 
    164 H164        3.2072  -14.4021  -42.5188 H         1 UNK         0.3000 
    165 H165        6.3256  -14.5457  -44.1690 H         1 UNK         0.0600 
    166 H166        5.0638  -13.5047  -46.0390 H         1 UNK         0.0600 
    167 H167        4.7490  -15.2324  -45.9929 H         1 UNK         0.0600 
    168 H168        3.5404  -14.1085  -45.3852 H         1 UNK         0.0600 
    169 H169        4.3820  -12.4743  -43.7570 H         1 UNK         0.3000 
    170 H170        4.9746  -11.7181  -40.4337 H         1 UNK         0.0600 
    171 H171        5.8375   -9.4843  -41.0688 H         1 UNK         0.0600 
    172 H172        6.2667  -10.0739  -42.6757 H         1 UNK         0.0600 
    173 H173        7.1038  -10.6854  -41.2542 H         1 UNK         0.0600 
    174 H174        3.7926  -10.0459  -42.3227 H         1 UNK         0.3000 
    175 H175        1.3454   -9.9522  -42.0137 H         1 UNK         0.0600 
    176 H176        2.4611  -10.0923  -44.2571 H         1 UNK         0.0600 
    177 H177        1.6515  -11.6219  -44.5773 H         1 UNK         0.0600 
    178 H178        0.7182  -10.1341  -44.4371 H         1 UNK         0.0600 
    179 H179       -0.3217  -11.9511  -43.1400 H         1 UNK         0.3000 
    180 H180       -1.7526  -13.2798  -40.1902 H         1 UNK         0.0600 
    181 H181       -2.9369  -11.2814  -42.1900 H         1 UNK         0.0600 
    182 H182       -2.9721  -11.1266  -40.4371 H         1 UNK         0.0600 
    183 H183       -3.8512  -12.4329  -41.2166 H         1 UNK         0.0600 
    184 H184       -1.9442  -13.3255  -43.1600 H         1 UNK         0.3000 
    185 H185       -0.7168  -16.6194  -43.3894 H         1 UNK         0.0600 
    186 H186       -2.9299  -17.2412  -44.2990 H         1 UNK         0.0600 
    187 H187       -3.0170  -17.1394  -42.5467 H         1 UNK         0.0600 
    188 H188       -3.6770  -15.8409  -43.5301 H         1 UNK         0.0600 
    189 H189       -2.1808  -14.7968  -45.1328 H         1 UNK         0.3000 
    190 H190       -1.5453  -21.0009  -46.0024 H         1 UNK         0.3000 
    191 H191       -3.6590  -20.8580  -47.8567 H         1 UNK         0.0600 
    192 H192       -3.0328  -19.0956  -46.1464 H         1 UNK         0.0600 
    193 H193       -4.7546  -19.4483  -46.1854 H         1 UNK         0.0600 
    194 H194       -3.7570  -20.0951  -44.8921 H         1 UNK         0.0600 
    195 H195       -3.4282  -22.7408  -44.8221 H         1 UNK         0.3000 
    196 H196       -6.0607  -23.8444  -44.9347 H         1 UNK         0.0600 
    197 H197       -5.1700  -25.3937  -43.1838 H         1 UNK         0.0600 
    198 H198       -4.7568  -23.7205  -42.8405 H         1 UNK         0.0600 
    199 H199       -3.5370  -24.8125  -43.4904 H         1 UNK         0.0600 
    200 H200       -2.8625  -25.1674  -45.9575 H         1 UNK         0.3000 
    201 H201       -3.9626  -27.6820  -46.8368 H         1 UNK         0.0600 
    202 H202       -1.6213  -28.0766  -47.6122 H         1 UNK         0.0600 
    203 H203       -1.6524  -27.4564  -45.9685 H         1 UNK         0.0600 
    204 H204       -1.2246  -26.3897  -47.3041 H         1 UNK         0.0600 
    205 H205       -3.3764  -24.6172  -48.4393 H         1 UNK         0.3000 
    206 H206       -3.5644  -23.7925  -50.4592 H         1 UNK         0.0600 
    207 H207       -5.8401  -24.8315  -50.5824 H         1 UNK         0.0600 
    208 H208       -5.0746  -24.7407  -52.1594 H         1 UNK         0.0600 
    209 H209       -5.1431  -26.2761  -51.3145 H         1 UNK         0.0600 
    210 H210       -1.2990  -25.2235  -49.6382 H         1 UNK         0.3000 
    211 H211       -0.3648  -27.2044  -51.3734 H         1 UNK         0.0600 
    212 H212        1.1892  -25.3396  -49.5030 H         1 UNK         0.0600 
    213 H213        1.8254  -26.8210  -50.2055 H         1 UNK         0.0600 
    214 H214        0.4813  -26.8987  -49.0803 H         1 UNK         0.0600 
    215 H215       -0.0040  -23.7122  -51.6592 H         1 UNK         0.3000 
    216 H216        1.0571  -24.0166  -54.3964 H         1 UNK         0.0600 
    217 H217        2.8015  -22.2869  -53.9992 H         1 UNK         0.0600 
    218 H218        3.0984  -23.7030  -53.0054 H         1 UNK         0.0600 
    219 H219        2.4115  -22.2524  -52.2836 H         1 UNK         0.0600 
    220 H220       -1.5301  -23.6435  -53.6379 H         1 UNK         0.3000 
    221 H221       -2.3542  -20.9082  -53.4528 H         1 UNK         0.0600 
    222 H222       -3.8179  -23.4842  -54.2471 H         1 UNK         0.0600 
    223 H223       -3.8002  -22.7113  -52.6637 H         1 UNK         0.0600 
    224 H224       -4.6193  -21.9400  -54.0111 H         1 UNK         0.0600 
    225 H225       -1.5856  -22.9532  -56.1846 H         1 UNK         0.3000 
    226 H226       -1.5163  -22.7278  -58.3928 H         1 UNK         0.0600 
    227 H227       -0.6599  -20.5804  -59.2561 H         1 UNK         0.0600 
    228 H228       -1.2075  -19.7336  -57.8147 H         1 UNK         0.0600 
    229 H229        0.0895  -20.9223  -57.7062 H         1 UNK         0.0600 
    230 H230       -4.1984  -22.5145  -57.1612 H         1 UNK         0.3000 
    231 H231       -6.3383  -22.2454  -57.5850 H         1 UNK         0.0600 
    232 H232       -5.6498  -21.7104  -60.5207 H         1 UNK         0.0600 
    233 H233       -7.2054  -22.2111  -59.8776 H         1 UNK         0.0600 
    234 H234       -5.8400  -23.3110  -59.8052 H         1 UNK         0.0600 
    235 H235       -4.4583  -19.7945  -57.1127 H         1 UNK         0.3000 
    236 H236       -6.1323  -17.5600  -58.0551 H         1 UNK         0.0600 
    237 H237       -3.6030  -17.6089  -56.3253 H         1 UNK         0.0600 
    238 H238       -3.6437  -17.3737  -58.0720 H         1 UNK         0.0600 
    239 H239       -4.3704  -16.1802  -57.0055 H         1 UNK         0.0600 
    240 H240       -5.4504  -19.3856  -55.0854 H         1 UNK         0.3000 
    241 H241       -6.8578  -17.6668  -53.2763 H         1 UNK         0.0600 
    242 H242       -9.0359  -17.7374  -52.4930 H         1 UNK         0.3800 
    243 H243      -10.2365  -18.7728  -53.2100 H         1 UNK         0.3800 
    244 H244       -6.1602  -20.6316  -52.9530 H         1 UNK         0.0800 
    245 H245       -6.7247  -19.5761  -51.6848 H         1 UNK         0.0800 
    246 H246       -4.1071  -21.0723  -50.9696 H         1 UNK         0.0800 
    247 H247       -4.9278  -19.8478  -50.0345 H         1 UNK         0.0800 
@<TRIPOS>BOND
     1    1    2 1    
     2    1  127 1    
     3    1  128 1    
     4    1  129 1    
     5    2    3 2    
     6    2    4 am   BACKBONE|DICT|INTERRES
     7    4    5 1    
     8    4  130 1    
     9    5    6 1    
    10    5   65 1    
    11    5  131 1    
    12    6    7 1    
    13    6  132 1    
    14    6  133 1    
    15    7    8 1    
    16    8    9 1    
    17    8  134 1    
    18    8  135 1    
    19    9   10 ar   
    20    9   14 ar   
    21   10   11 ar   
    22   10  136 1    
    23   11   12 ar   
    24   11  126 1    
    25   12   13 ar   
    26   12  137 1    
    27   13   14 ar   
    28   13   15 1    
    29   14  138 1    
    30   15   16 1    
    31   15  139 1    
    32   15  140 1    
    33   16   17 1    
    34   17   18 1    
    35   17  141 1    
    36   17  142 1    
    37   18   19 1    
    38   18   67 1    
    39   18  143 1    
    40   19   20 am   BACKBONE|DICT|INTERRES
    41   19  144 1    
    42   20   21 2    
    43   20   22 1    
    44   22   23 1    
    45   22   24 1    
    46   22  145 1    
    47   23  146 1    
    48   23  147 1    
    49   23  148 1    
    50   24   25 am   BACKBONE|DICT|INTERRES
    51   24  149 1    
    52   25   26 2    
    53   25   27 1    
    54   27   28 1    
    55   27   29 1    
    56   27  150 1    
    57   28  151 1    
    58   28  152 1    
    59   28  153 1    
    60   29   30 am   BACKBONE|DICT|INTERRES
    61   29  154 1    
    62   30   31 2    
    63   30   32 1    
    64   32   33 1    
    65   32   34 1    
    66   32  155 1    
    67   33  156 1    
    68   33  157 1    
    69   33  158 1    
    70   34   35 am   BACKBONE|DICT|INTERRES
    71   34  159 1    
    72   35   36 2    
    73   35   37 1    
    74   37   38 1    
    75   37   39 1    
    76   37  160 1    
    77   38  161 1    
    78   38  162 1    
    79   38  163 1    
    80   39   40 am   BACKBONE|DICT|INTERRES
    81   39  164 1    
    82   40   41 2    
    83   40   42 1    
    84   42   43 1    
    85   42   44 1    
    86   42  165 1    
    87   43  166 1    
    88   43  167 1    
    89   43  168 1    
    90   44   45 am   BACKBONE|DICT|INTERRES
    91   44  169 1    
    92   45   46 2    
    93   45   47 1    
    94   47   48 1    
    95   47   49 1    
    96   47  170 1    
    97   48  171 1    
    98   48  172 1    
    99   48  173 1    
   100   49   50 am   BACKBONE|DICT|INTERRES
   101   49  174 1    
   102   50   51 2    
   103   50   52 1    
   104   52   53 1    
   105   52   54 1    
   106   52  175 1    
   107   53  176 1    
   108   53  177 1    
   109   53  178 1    
   110   54   55 am   BACKBONE|DICT|INTERRES
   111   54  179 1    
   112   55   56 2    
   113   55   57 1    
   114   57   58 1    
   115   57   59 1    
   116   57  180 1    
   117   58  181 1    
   118   58  182 1    
   119   58  183 1    
   120   59   60 am   BACKBONE|DICT|INTERRES
   121   59  184 1    
   122   60   61 2    
   123   60   62 1    
   124   62   63 1    
   125   62   64 1    
   126   62  185 1    
   127   63  186 1    
   128   63  187 1    
   129   63  188 1    
   130   64   65 am   BACKBONE|DICT|INTERRES
   131   64  189 1    
   132   65   66 2    
   133   67   68 2    
   134   67   69 am   BACKBONE|DICT|INTERRES
   135   69   70 1    
   136   69  190 1    
   137   70   71 1    
   138   70   72 1    
   139   70  191 1    
   140   71  192 1    
   141   71  193 1    
   142   71  194 1    
   143   72   73 2    
   144   72   74 am   BACKBONE|DICT|INTERRES
   145   74   75 1    
   146   74  195 1    
   147   75   76 1    
   148   75   77 1    
   149   75  196 1    
   150   76  197 1    
   151   76  198 1    
   152   76  199 1    
   153   77   78 2    
   154   77   79 am   BACKBONE|DICT|INTERRES
   155   79   80 1    
   156   79  200 1    
   157   80   81 1    
   158   80   82 1    
   159   80  201 1    
   160   81  202 1    
   161   81  203 1    
   162   81  204 1    
   163   82   83 2    
   164   82   84 am   BACKBONE|DICT|INTERRES
   165   84   85 1    
   166   84  205 1    
   167   85   86 1    
   168   85   87 1    
   169   85  206 1    
   170   86  207 1    
   171   86  208 1    
   172   86  209 1    
   173   87   88 2    
   174   87   89 am   BACKBONE|DICT|INTERRES
   175   89   90 1    
   176   89  210 1    
   177   90   91 1    
   178   90   92 1    
   179   90  211 1    
   180   91  212 1    
   181   91  213 1    
   182   91  214 1    
   183   92   93 2    
   184   92   94 am   BACKBONE|DICT|INTERRES
   185   94   95 1    
   186   94  215 1    
   187   95   96 1    
   188   95   97 1    
   189   95  216 1    
   190   96  217 1    
   191   96  218 1    
   192   96  219 1    
   193   97   98 2    
   194   97   99 am   BACKBONE|DICT|INTERRES
   195   99  100 1    
   196   99  220 1    
   197  100  101 1    
   198  100  102 1    
   199  100  221 1    
   200  101  222 1    
   201  101  223 1    
   202  101  224 1    
   203  102  103 2    
   204  102  104 am   BACKBONE|DICT|INTERRES
   205  104  105 1    
   206  104  225 1    
   207  105  106 1    
   208  105  107 1    
   209  105  226 1    
   210  106  227 1    
   211  106  228 1    
   212  106  229 1    
   213  107  108 2    
   214  107  109 am   BACKBONE|DICT|INTERRES
   215  109  110 1    
   216  109  230 1    
   217  110  111 1    
   218  110  112 1    
   219  110  231 1    
   220  111  232 1    
   221  111  233 1    
   222  111  234 1    
   223  112  113 2    
   224  112  114 am   BACKBONE|DICT|INTERRES
   225  114  115 1    
   226  114  235 1    
   227  115  116 1    
   228  115  117 1    
   229  115  236 1    
   230  116  237 1    
   231  116  238 1    
   232  116  239 1    
   233  117  118 2    
   234  117  119 am   BACKBONE|DICT|INTERRES
   235  119  120 1    
   236  119  240 1    
   237  120  121 1    
   238  120  124 1    
   239  120  241 1    
   240  121  122 am   BACKBONE|DICT|INTERRES
   241  121  123 2    
   242  122  242 1    
   243  122  243 1    
   244  124  125 1    
   245  124  244 1    
   246  124  245 1    
   247  125  126 1    
   248  126  246 1    
   249  126  247 1    
@<TRIPOS>SUBSTRUCTURE
     1 UNK         1 GROUP             0       ****    0 ROOT    
