@<TRIPOS>MOLECULE
3R540
247   249    1
SMALL
USER_CHARGES


@<TRIPOS>ATOM
      1 CA          6.9181  -12.3747  -51.4897 C.3       0 UNK        -0.1800 
      2 C           6.2780  -12.3158  -50.1100 C.2       0 UNK         0.5000 
      3 O           6.4192  -11.3125  -49.4108 O.2       0 UNK        -0.5000 
      4 N           5.5772  -13.3874  -49.7175 N.am      1 UNK        -0.5000 
      5 CA          4.8999  -13.5213  -48.4189 C.3       1 UNK         0.1400 
      6 C6          4.5148  -14.9889  -48.0932 C.3       23 UNK        -0.0398 
      7 S7          5.8639  -16.2026  -48.3175 S.3       23 UNK        -0.2404 
      8 C8          5.4959  -16.9082  -49.9606 C.3       23 UNK        -0.0205 
      9 C9          4.3344  -17.8933  -49.9385 C.ar      23 UNK        -0.0193 
     10 C10         3.0291  -17.4516  -50.1729 C.ar      23 UNK        -0.1150 
     11 C11         1.9595  -18.3491  -50.1683 C.ar      23 UNK        -0.0193 
     12 C12         2.2059  -19.7096  -49.9666 C.ar      23 UNK        -0.1150 
     13 C13         3.5072  -20.1689  -49.7411 C.ar      23 UNK        -0.0193 
     14 C14         4.5664  -19.2554  -49.7207 C.ar      23 UNK        -0.1150 
     15 C15         3.7682  -21.6539  -49.5446 C.3       23 UNK        -0.0205 
     16 S16         4.0178  -22.0694  -47.7908 S.3       23 UNK        -0.2404 
     17 C17         3.9241  -23.8958  -47.8639 C.3       23 UNK        -0.0398 
     18 CA          2.6589  -24.5009  -47.2043 C.3       11 UNK         0.1400 
     19 N           2.5534  -24.1585  -45.7843 N.am      11 UNK        -0.5000 
     20 C           1.7049  -24.7352  -44.9219 C.2       10 UNK         0.5000 
     21 O           0.9445  -25.6543  -45.2225 O.2       10 UNK        -0.5000 
     22 CA          1.6671  -24.1557  -43.4968 C.3       10 UNK         0.1400 
     23 CB          2.6966  -24.8593  -42.6007 C.3       10 UNK        -0.1800 
     24 N           1.8979  -22.7097  -43.4604 N.am      10 UNK        -0.5000 
     25 C           1.0830  -21.7974  -44.0060 C.2       9 UNK         0.5000 
     26 O           0.0534  -22.0814  -44.6220 O.2       9 UNK        -0.5000 
     27 CA          1.5211  -20.3278  -43.8739 C.3       9 UNK         0.1400 
     28 CB          1.8517  -19.7303  -45.2511 C.3       9 UNK        -0.1800 
     29 N           0.5148  -19.4937  -43.2209 N.am      9 UNK        -0.5000 
     30 C           0.0769  -19.6395  -41.9628 C.2       8 UNK         0.5000 
     31 O           0.4564  -20.5338  -41.2055 O.2       8 UNK        -0.5000 
     32 CA         -0.9280  -18.5971  -41.4435 C.3       8 UNK         0.1400 
     33 CB         -0.1803  -17.3804  -40.8745 C.3       8 UNK        -0.1800 
     34 N          -1.8433  -18.1369  -42.4882 N.am      8 UNK        -0.5000 
     35 C          -3.1440  -18.4524  -42.5614 C.2       7 UNK         0.5000 
     36 O          -3.7114  -19.1991  -41.7628 O.2       7 UNK        -0.5000 
     37 CA         -3.9689  -17.8146  -43.6999 C.3       7 UNK         0.1400 
     38 CB         -4.7680  -16.6121  -43.1745 C.3       7 UNK        -0.1800 
     39 N          -3.1575  -17.3745  -44.8336 N.am      7 UNK        -0.5000 
     40 C          -2.5617  -18.2022  -45.7016 C.2       6 UNK         0.5000 
     41 O          -2.6884  -19.4225  -45.6686 O.2       6 UNK        -0.5000 
     42 CA         -1.6445  -17.5649  -46.7630 C.3       6 UNK         0.1400 
     43 CB         -2.4110  -17.3619  -48.0770 C.3       6 UNK        -0.1800 
     44 N          -1.0578  -16.2882  -46.3450 N.am      6 UNK        -0.5000 
     45 C          -0.2553  -16.1247  -45.2823 C.2       5 UNK         0.5000 
     46 O           0.0370  -17.0355  -44.5092 O.2       5 UNK        -0.5000 
     47 CA          0.2895  -14.7150  -45.0053 C.3       5 UNK         0.1400 
     48 CB          1.7429  -14.6090  -45.4804 C.3       5 UNK        -0.1800 
     49 N          -0.5077  -13.6558  -45.6240 N.am      5 UNK        -0.5000 
     50 C          -1.7165  -13.2737  -45.1870 C.2       4 UNK         0.5000 
     51 O          -2.2810  -13.7815  -44.2174 O.2       4 UNK        -0.5000 
     52 CA         -2.4236  -12.1532  -45.9725 C.3       4 UNK         0.1400 
     53 CB         -2.1118  -10.7836  -45.3507 C.3       4 UNK        -0.1800 
     54 N          -2.0721  -12.1225  -47.3934 N.am      4 UNK        -0.5000 
     55 C          -2.3865  -13.0770  -48.2802 C.2       3 UNK         0.5000 
     56 O          -2.9968  -14.1055  -47.9904 O.2       3 UNK        -0.5000 
     57 CA         -1.9197  -12.8507  -49.7295 C.3       3 UNK         0.1400 
     58 CB         -2.9915  -12.0800  -50.5156 C.3       3 UNK        -0.1800 
     59 N          -0.6460  -12.1328  -49.8422 N.am      3 UNK        -0.5000 
     60 C           0.5338  -12.5629  -49.3751 C.2       2 UNK         0.5000 
     61 O           0.6729  -13.6117  -48.7414 O.2       2 UNK        -0.5000 
     62 CA          1.7424  -11.6601  -49.6969 C.3       2 UNK         0.1400 
     63 CB          1.6601  -10.3067  -48.9597 C.3       2 UNK        -0.1800 
     64 N           3.0295  -12.3311  -49.4778 N.am      2 UNK        -0.5000 
     65 C           3.6416  -12.6275  -48.3193 C.2       1 UNK         0.5000 
     66 O           3.2628  -12.2460  -47.2124 O.2       1 UNK        -0.5000 
     67 C           1.3683  -24.1557  -47.9778 C.2       11 UNK         0.5000 
     68 O           0.9245  -24.9533  -48.8033 O.2       11 UNK        -0.5000 
     69 N           0.7644  -22.9999  -47.6615 N.am      12 UNK        -0.5000 
     70 CA         -0.5032  -22.5500  -48.2317 C.3       12 UNK         0.1400 
     71 CB         -0.7474  -21.0768  -47.8797 C.3       12 UNK        -0.1800 
     72 C          -1.6779  -23.4129  -47.7524 C.2       12 UNK         0.5000 
     73 O          -2.5507  -23.7405  -48.5551 O.2       12 UNK        -0.5000 
     74 N          -1.6676  -23.7867  -46.4659 N.am      13 UNK        -0.5000 
     75 CA         -2.6477  -24.6885  -45.8629 C.3       13 UNK         0.1400 
     76 CB         -2.4448  -24.7290  -44.3413 C.3       13 UNK        -0.1800 
     77 C          -2.5961  -26.1013  -46.4734 C.2       13 UNK         0.5000 
     78 O          -3.6450  -26.6541  -46.8046 O.2       13 UNK        -0.5000 
     79 N          -1.3802  -26.6367  -46.6561 N.am      14 UNK        -0.5000 
     80 CA         -1.1229  -27.9349  -47.2836 C.3       14 UNK         0.1400 
     81 CB          0.3587  -28.3019  -47.1099 C.3       14 UNK        -0.1800 
     82 C          -1.5203  -27.9783  -48.7711 C.2       14 UNK         0.5000 
     83 O          -2.0787  -28.9793  -49.2213 O.2       14 UNK        -0.5000 
     84 N          -1.2465  -26.8882  -49.5008 N.am      15 UNK        -0.5000 
     85 CA         -1.5993  -26.7225  -50.9133 C.3       15 UNK         0.1400 
     86 CB         -0.7408  -25.5920  -51.5038 C.3       15 UNK        -0.1800 
     87 C          -3.0939  -26.4246  -51.1509 C.2       15 UNK         0.5000 
     88 O          -3.5419  -26.5008  -52.2951 O.2       15 UNK        -0.5000 
     89 N          -3.8176  -26.0447  -50.0862 N.am      16 UNK        -0.5000 
     90 CA         -5.1870  -25.5116  -50.0703 C.3       16 UNK         0.1400 
     91 CB         -6.2043  -26.5297  -50.6242 C.3       16 UNK        -0.1800 
     92 C          -5.3052  -24.1210  -50.7357 C.2       16 UNK         0.5000 
     93 O          -6.4085  -23.6783  -51.0578 O.2       16 UNK        -0.5000 
     94 N          -4.1655  -23.4327  -50.8816 N.am      17 UNK        -0.5000 
     95 CA         -4.0437  -22.0628  -51.3735 C.3       17 UNK         0.1400 
     96 CB         -2.5990  -21.8285  -51.8375 C.3       17 UNK        -0.1800 
     97 C          -4.4459  -21.0255  -50.3101 C.2       17 UNK         0.5000 
     98 O          -4.7206  -19.8799  -50.6641 O.2       17 UNK        -0.5000 
     99 N          -4.5018  -21.4419  -49.0360 N.am      18 UNK        -0.5000 
    100 CA        -4.9774  -20.6544  -47.8968 C.3       18 UNK         0.1400 
    101 CB        -4.8748  -21.5028  -46.6203 C.3       18 UNK        -0.1800 
    102 C         -6.4153  -20.1377  -48.0807 C.2       18 UNK         0.5000 
    103 O         -6.6849  -18.9677  -47.8105 O.2       18 UNK        -0.5000 
    104 N         -7.2955  -21.0089  -48.5939 N.am      19 UNK        -0.5000 
    105 CA        -8.6942  -20.7024  -48.9037 C.3       19 UNK         0.1400 
    106 CB        -9.4430  -22.0193  -49.1591 C.3       19 UNK        -0.1800 
    107 C         -8.8570  -19.7492  -50.1043 C.2       19 UNK         0.5000 
    108 O         -9.8657  -19.0488  -50.1920 O.2       19 UNK        -0.5000 
    109 N         -7.8592  -19.7340  -50.9966 N.am      20 UNK        -0.5000 
    110 CA        -7.7906  -18.8750  -52.1775 C.3       20 UNK         0.1400 
    111 CB        -7.1153  -19.6679  -53.3099 C.3       20 UNK        -0.1800 
    112 C         -7.0276  -17.5618  -51.9117 C.2       20 UNK         0.5000 
    113 O         -6.8784  -16.7663  -52.8401 O.2       20 UNK        -0.5000 
    114 N         -6.5127  -17.3732  -50.6851 N.am      21 UNK        -0.5000 
    115 CA        -5.6430  -16.2734  -50.2484 C.3       21 UNK         0.1400 
    116 CB        -6.4377  -14.9555  -50.1529 C.3       21 UNK        -0.1800 
    117 C         -4.3702  -16.1524  -51.1159 C.2       21 UNK         0.5000 
    118 O         -3.9944  -15.0547  -51.5267 O.2       21 UNK        -0.5000 
    119 N         -3.7578  -17.3054  -51.4137 N.am      22 UNK        -0.5000 
    120 CA        -2.6279  -17.4846  -52.3398 C.3       22 UNK         0.1400 
    121 C         -3.0029  -17.4132  -53.8534 C.2       22 UNK         0.5000 
    122 N         -4.2619  -17.2269  -54.2329 N.am      22 UNK        -0.7600 
    123 O         -2.1381  -17.5619  -54.7117 O.2       22 UNK        -0.5000 
    124 C124       -1.3939  -16.6022  -51.9838 C.3       23 UNK        -0.0398 
    125 S125        0.1912  -17.4973  -52.1169 S.3       23 UNK        -0.2404 
    126 C126        0.5440  -17.8323  -50.3647 C.3       23 UNK        -0.0205 
    127 H127        6.7175  -13.3222  -51.9905 H         1 UNK         0.0600 
    128 H128        7.9985  -12.2564  -51.4073 H         1 UNK         0.0600 
    129 H129        6.5328  -11.5705  -52.1166 H         1 UNK         0.0600 
    130 H130        5.5232  -14.1902  -50.3256 H         1 UNK         0.3000 
    131 H131        5.5978  -13.1842  -47.6493 H         1 UNK         0.0600 
    132 H132        3.6446  -15.2954  -48.6689 H         1 UNK         0.0800 
    133 H133        4.2057  -15.0558  -47.0492 H         1 UNK         0.0800 
    134 H134        5.2954  -16.1096  -50.6751 H         1 UNK         0.0800 
    135 H135        6.3913  -17.4139  -50.3253 H         1 UNK         0.0800 
    136 H136        2.8351  -16.4069  -50.3676 H         1 UNK         0.1150 
    137 H137        1.3870  -20.4133  -49.9925 H         1 UNK         0.1150 
    138 H138        5.5732  -19.6081  -49.5458 H         1 UNK         0.1150 
    139 H139        2.9333  -22.2339  -49.9413 H         1 UNK         0.0800 
    140 H140        4.6491  -21.9515  -50.1154 H         1 UNK         0.0800 
    141 H141        4.8100  -24.2887  -47.3632 H         1 UNK         0.0800 
    142 H142        4.0084  -24.2332  -48.8985 H         1 UNK         0.0800 
    143 H143        2.7655  -25.5868  -47.2568 H         1 UNK         0.0600 
    144 H144        3.1388  -23.4030  -45.4596 H         1 UNK         0.3000 
    145 H145        0.6725  -24.3460  -43.0885 H         1 UNK         0.0600 
    146 H146        2.6231  -24.5140  -41.5692 H         1 UNK         0.0600 
    147 H147        2.5342  -25.9380  -42.5930 H         1 UNK         0.0600 
    148 H148        3.7173  -24.6833  -42.9428 H         1 UNK         0.0600 
    149 H149        2.7189  -22.3983  -42.9618 H         1 UNK         0.3000 
    150 H150        2.4262  -20.2846  -43.2646 H         1 UNK         0.0600 
    151 H151        2.5937  -20.3325  -45.7752 H         1 UNK         0.0600 
    152 H152        2.2607  -18.7243  -45.1563 H         1 UNK         0.0600 
    153 H153        0.9674  -19.6690  -45.8847 H         1 UNK         0.0600 
    154 H154        0.1912  -18.6936  -43.7571 H         1 UNK         0.3000 
    155 H155       -1.4837  -19.0589  -40.6247 H         1 UNK         0.0600 
    156 H156        0.4005  -16.8678  -41.6426 H         1 UNK         0.0600 
    157 H157        0.5099  -17.6794  -40.0846 H         1 UNK         0.0600 
    158 H158       -0.8746  -16.6590  -40.4434 H         1 UNK         0.0600 
    159 H159       -1.4389  -17.5572  -43.2141 H         1 UNK         0.3000 
    160 H160       -4.6766  -18.5670  -44.0550 H         1 UNK         0.0600 
    161 H161       -4.1103  -15.8150  -42.8246 H         1 UNK         0.0600 
    162 H162       -5.4080  -16.9011  -42.3399 H         1 UNK         0.0600 
    163 H163       -5.4134  -16.1983  -43.9497 H         1 UNK         0.0600 
    164 H164       -2.9959  -16.3810  -44.9219 H         1 UNK         0.3000 
    165 H165       -0.8187  -18.2536  -46.9490 H         1 UNK         0.0600 
    166 H166       -1.8182  -16.8025  -48.7972 H         1 UNK         0.0600 
    167 H167       -2.6663  -18.3164  -48.5372 H         1 UNK         0.0600 
    168 H168       -3.3383  -16.8120  -47.9159 H         1 UNK         0.0600 
    169 H169       -1.2836  -15.4792  -46.9078 H         1 UNK         0.3000 
    170 H170        0.2774  -14.5689  -43.9231 H         1 UNK         0.0600 
    171 H171        2.3620  -15.3865  -45.0306 H         1 UNK         0.0600 
    172 H172        1.8170  -14.7146  -46.5627 H         1 UNK         0.0600 
    173 H173        2.1765  -13.6489  -45.2017 H         1 UNK         0.0600 
    174 H174       -0.1234  -13.2239  -46.4538 H         1 UNK         0.3000 
    175 H175       -3.4989  -12.3274  -45.8958 H         1 UNK         0.0600 
    176 H176       -1.0506  -10.5415  -45.4214 H         1 UNK         0.0600 
    177 H177       -2.6719   -9.9891  -45.8442 H         1 UNK         0.0600 
    178 H178       -2.3838  -10.7630  -44.2945 H         1 UNK         0.0600 
    179 H179       -1.5638  -11.3141  -47.7200 H         1 UNK         0.3000 
    180 H180       -1.7937  -13.8329  -50.1892 H         1 UNK         0.0600 
    181 H181       -3.1057  -11.0590  -50.1495 H         1 UNK         0.0600 
    182 H182       -3.9644  -12.5659  -50.4337 H         1 UNK         0.0600 
    183 H183       -2.7443  -12.0337  -51.5763 H         1 UNK         0.0600 
    184 H184       -0.6745  -11.2636  -50.3555 H         1 UNK         0.3000 
    185 H185        1.7048  -11.4552  -50.7679 H         1 UNK         0.0600 
    186 H186        0.8109   -9.7200  -49.3108 H         1 UNK         0.0600 
    187 H187        1.5392  -10.4322  -47.8834 H         1 UNK         0.0600 
    188 H188        2.5557   -9.7090  -49.1299 H         1 UNK         0.0600 
    189 H189        3.4529  -12.7076  -50.3135 H         1 UNK         0.3000 
    190 H190        1.1707  -22.4215  -46.9412 H         1 UNK         0.3000 
    191 H191       -0.4329  -22.6392  -49.3171 H         1 UNK         0.0600 
    192 H192        0.0946  -20.4469  -48.1578 H         1 UNK         0.0600 
    193 H193       -1.6301  -20.6937  -48.3928 H         1 UNK         0.0600 
    194 H194       -0.9118  -20.9479  -46.8108 H         1 UNK         0.0600 
    195 H195       -0.9454  -23.4154  -45.8578 H         1 UNK         0.3000 
    196 H196       -3.6409  -24.2800  -46.0592 H         1 UNK         0.0600 
    197 H197       -3.2061  -25.3467  -43.8636 H         1 UNK         0.0600 
    198 H198       -2.5148  -23.7307  -43.9084 H         1 UNK         0.0600 
    199 H199       -1.4726  -25.1418  -44.0734 H         1 UNK         0.0600 
    200 H200       -0.5678  -26.1352  -46.3070 H         1 UNK         0.3000 
    201 H201       -1.7213  -28.6827  -46.7593 H         1 UNK         0.0600 
    202 H202        0.6278  -28.3634  -46.0553 H         1 UNK         0.0600 
    203 H203        1.0128  -27.5662  -47.5791 H         1 UNK         0.0600 
    204 H204        0.5776  -29.2717  -47.5585 H         1 UNK         0.0600 
    205 H205       -0.7223  -26.1309  -49.0742 H         1 UNK         0.3000 
    206 H206       -1.3602  -27.6464  -51.4439 H         1 UNK         0.0600 
    207 H207        0.3220  -25.8180  -51.4166 H         1 UNK         0.0600 
    208 H208       -0.9541  -25.4460  -52.5635 H         1 UNK         0.0600 
    209 H209       -0.9236  -24.6430  -50.9981 H         1 UNK         0.0600 
    210 H210       -3.3364  -26.0038  -49.1968 H         1 UNK         0.3000 
    211 H211       -5.4251  -25.3554  -49.0172 H         1 UNK         0.0600 
    212 H212       -6.0999  -26.6676  -51.7004 H         1 UNK         0.0600 
    213 H213       -7.2266  -26.1982  -50.4388 H         1 UNK         0.0600 
    214 H214       -6.0881  -27.5026  -50.1466 H         1 UNK         0.0600 
    215 H215       -3.3302  -23.8393  -50.4782 H         1 UNK         0.3000 
    216 H216       -4.7081  -21.9392  -52.2310 H         1 UNK         0.0600 
    217 H217       -2.4951  -20.8520  -52.3096 H         1 UNK         0.0600 
    218 H218       -2.2940  -22.5747  -52.5715 H         1 UNK         0.0600 
    219 H219       -1.8959  -21.8688  -51.0061 H         1 UNK         0.0600 
    220 H220       -4.1892  -22.3843  -48.8375 H         1 UNK         0.3000 
    221 H221       -4.3253  -19.7874  -47.7932 H         1 UNK         0.0600 
    222 H222       -5.4586  -22.4210  -46.6924 H         1 UNK         0.0600 
    223 H223       -3.8406  -21.7765  -46.4145 H         1 UNK         0.0600 
    224 H224       -5.2346  -20.9480  -45.7528 H         1 UNK         0.0600 
    225 H225       -6.9796  -21.9424  -48.8144 H         1 UNK         0.3000 
    226 H226       -9.1394  -20.2162  -48.0331 H         1 UNK         0.0600 
    227 H227       -9.3993  -22.6737  -48.2883 H         1 UNK         0.0600 
    228 H228      -10.4967  -21.8353  -49.3735 H         1 UNK         0.0600 
    229 H229       -9.0244  -22.5616  -50.0083 H         1 UNK         0.0600 
    230 H230       -7.0531  -20.3182  -50.8258 H         1 UNK         0.3000 
    231 H231       -8.7987  -18.6092  -52.5017 H         1 UNK         0.0600 
    232 H232       -7.6374  -20.6053  -53.5024 H         1 UNK         0.0600 
    233 H233       -6.0770  -19.9038  -53.0744 H         1 UNK         0.0600 
    234 H234       -7.1169  -19.1005  -54.2415 H         1 UNK         0.0600 
    235 H235       -6.6675  -18.0987  -49.9974 H         1 UNK         0.3000 
    236 H236       -5.3083  -16.5292  -49.2427 H         1 UNK         0.0600 
    237 H237       -5.8284  -14.1663  -49.7109 H         1 UNK         0.0600 
    238 H238       -6.7660  -14.6076  -51.1328 H         1 UNK         0.0600 
    239 H239       -7.3206  -15.0730  -49.5247 H         1 UNK         0.0600 
    240 H240       -4.1700  -18.1712  -51.0708 H         1 UNK         0.3000 
    241 H241       -2.3466  -18.5249  -52.1813 H         1 UNK         0.0600 
    242 H242       -5.0028  -17.0619  -53.5621 H         1 UNK         0.3800 
    243 H243       -4.4734  -17.1960  -55.2173 H         1 UNK         0.3800 
    244 H244       -1.4775  -16.2107  -50.9714 H         1 UNK         0.0800 
    245 H245       -1.3495  -15.7148  -52.6177 H         1 UNK         0.0800 
    246 H246       -0.1852  -18.5465  -49.9792 H         1 UNK         0.0800 
    247 H247        0.4230  -16.9168  -49.7830 H         1 UNK         0.0800 
@<TRIPOS>BOND
     1    1    2 1    
     2    1  127 1    
     3    1  128 1    
     4    1  129 1    
     5    2    3 2    
     6    2    4 am   BACKBONE|DICT|INTERRES
     7    4    5 1    
     8    4  130 1    
     9    5    6 1    
    10    5   65 1    
    11    5  131 1    
    12    6    7 1    
    13    6  132 1    
    14    6  133 1    
    15    7    8 1    
    16    8    9 1    
    17    8  134 1    
    18    8  135 1    
    19    9   10 ar   
    20    9   14 ar   
    21   10   11 ar   
    22   10  136 1    
    23   11   12 ar   
    24   11  126 1    
    25   12   13 ar   
    26   12  137 1    
    27   13   14 ar   
    28   13   15 1    
    29   14  138 1    
    30   15   16 1    
    31   15  139 1    
    32   15  140 1    
    33   16   17 1    
    34   17   18 1    
    35   17  141 1    
    36   17  142 1    
    37   18   19 1    
    38   18   67 1    
    39   18  143 1    
    40   19   20 am   BACKBONE|DICT|INTERRES
    41   19  144 1    
    42   20   21 2    
    43   20   22 1    
    44   22   23 1    
    45   22   24 1    
    46   22  145 1    
    47   23  146 1    
    48   23  147 1    
    49   23  148 1    
    50   24   25 am   BACKBONE|DICT|INTERRES
    51   24  149 1    
    52   25   26 2    
    53   25   27 1    
    54   27   28 1    
    55   27   29 1    
    56   27  150 1    
    57   28  151 1    
    58   28  152 1    
    59   28  153 1    
    60   29   30 am   BACKBONE|DICT|INTERRES
    61   29  154 1    
    62   30   31 2    
    63   30   32 1    
    64   32   33 1    
    65   32   34 1    
    66   32  155 1    
    67   33  156 1    
    68   33  157 1    
    69   33  158 1    
    70   34   35 am   BACKBONE|DICT|INTERRES
    71   34  159 1    
    72   35   36 2    
    73   35   37 1    
    74   37   38 1    
    75   37   39 1    
    76   37  160 1    
    77   38  161 1    
    78   38  162 1    
    79   38  163 1    
    80   39   40 am   BACKBONE|DICT|INTERRES
    81   39  164 1    
    82   40   41 2    
    83   40   42 1    
    84   42   43 1    
    85   42   44 1    
    86   42  165 1    
    87   43  166 1    
    88   43  167 1    
    89   43  168 1    
    90   44   45 am   BACKBONE|DICT|INTERRES
    91   44  169 1    
    92   45   46 2    
    93   45   47 1    
    94   47   48 1    
    95   47   49 1    
    96   47  170 1    
    97   48  171 1    
    98   48  172 1    
    99   48  173 1    
   100   49   50 am   BACKBONE|DICT|INTERRES
   101   49  174 1    
   102   50   51 2    
   103   50   52 1    
   104   52   53 1    
   105   52   54 1    
   106   52  175 1    
   107   53  176 1    
   108   53  177 1    
   109   53  178 1    
   110   54   55 am   BACKBONE|DICT|INTERRES
   111   54  179 1    
   112   55   56 2    
   113   55   57 1    
   114   57   58 1    
   115   57   59 1    
   116   57  180 1    
   117   58  181 1    
   118   58  182 1    
   119   58  183 1    
   120   59   60 am   BACKBONE|DICT|INTERRES
   121   59  184 1    
   122   60   61 2    
   123   60   62 1    
   124   62   63 1    
   125   62   64 1    
   126   62  185 1    
   127   63  186 1    
   128   63  187 1    
   129   63  188 1    
   130   64   65 am   BACKBONE|DICT|INTERRES
   131   64  189 1    
   132   65   66 2    
   133   67   68 2    
   134   67   69 am   BACKBONE|DICT|INTERRES
   135   69   70 1    
   136   69  190 1    
   137   70   71 1    
   138   70   72 1    
   139   70  191 1    
   140   71  192 1    
   141   71  193 1    
   142   71  194 1    
   143   72   73 2    
   144   72   74 am   BACKBONE|DICT|INTERRES
   145   74   75 1    
   146   74  195 1    
   147   75   76 1    
   148   75   77 1    
   149   75  196 1    
   150   76  197 1    
   151   76  198 1    
   152   76  199 1    
   153   77   78 2    
   154   77   79 am   BACKBONE|DICT|INTERRES
   155   79   80 1    
   156   79  200 1    
   157   80   81 1    
   158   80   82 1    
   159   80  201 1    
   160   81  202 1    
   161   81  203 1    
   162   81  204 1    
   163   82   83 2    
   164   82   84 am   BACKBONE|DICT|INTERRES
   165   84   85 1    
   166   84  205 1    
   167   85   86 1    
   168   85   87 1    
   169   85  206 1    
   170   86  207 1    
   171   86  208 1    
   172   86  209 1    
   173   87   88 2    
   174   87   89 am   BACKBONE|DICT|INTERRES
   175   89   90 1    
   176   89  210 1    
   177   90   91 1    
   178   90   92 1    
   179   90  211 1    
   180   91  212 1    
   181   91  213 1    
   182   91  214 1    
   183   92   93 2    
   184   92   94 am   BACKBONE|DICT|INTERRES
   185   94   95 1    
   186   94  215 1    
   187   95   96 1    
   188   95   97 1    
   189   95  216 1    
   190   96  217 1    
   191   96  218 1    
   192   96  219 1    
   193   97   98 2    
   194   97   99 am   BACKBONE|DICT|INTERRES
   195   99  100 1    
   196   99  220 1    
   197  100  101 1    
   198  100  102 1    
   199  100  221 1    
   200  101  222 1    
   201  101  223 1    
   202  101  224 1    
   203  102  103 2    
   204  102  104 am   BACKBONE|DICT|INTERRES
   205  104  105 1    
   206  104  225 1    
   207  105  106 1    
   208  105  107 1    
   209  105  226 1    
   210  106  227 1    
   211  106  228 1    
   212  106  229 1    
   213  107  108 2    
   214  107  109 am   BACKBONE|DICT|INTERRES
   215  109  110 1    
   216  109  230 1    
   217  110  111 1    
   218  110  112 1    
   219  110  231 1    
   220  111  232 1    
   221  111  233 1    
   222  111  234 1    
   223  112  113 2    
   224  112  114 am   BACKBONE|DICT|INTERRES
   225  114  115 1    
   226  114  235 1    
   227  115  116 1    
   228  115  117 1    
   229  115  236 1    
   230  116  237 1    
   231  116  238 1    
   232  116  239 1    
   233  117  118 2    
   234  117  119 am   BACKBONE|DICT|INTERRES
   235  119  120 1    
   236  119  240 1    
   237  120  121 1    
   238  120  124 1    
   239  120  241 1    
   240  121  122 am   BACKBONE|DICT|INTERRES
   241  121  123 2    
   242  122  242 1    
   243  122  243 1    
   244  124  125 1    
   245  124  244 1    
   246  124  245 1    
   247  125  126 1    
   248  126  246 1    
   249  126  247 1    
@<TRIPOS>SUBSTRUCTURE
     1 UNK         1 GROUP             0       ****    0 ROOT    
