@<TRIPOS>MOLECULE
3R540
247   249    1
SMALL
USER_CHARGES


@<TRIPOS>ATOM
      1 CA          3.0529  -11.9095  -44.6868 C.3       0 UNK        -0.1800 
      2 C           2.3204  -12.4469  -45.9069 C.2       0 UNK         0.5000 
      3 O           1.1451  -12.1366  -46.0995 O.2       0 UNK        -0.5000 
      4 N           3.0165  -13.2319  -46.7420 N.am      1 UNK        -0.5000 
      5 CA          2.4823  -13.9301  -47.9221 C.3       1 UNK         0.1400 
      6 C6          3.5432  -14.8222  -48.6118 C.3       23 UNK        -0.0398 
      7 S7          4.3514  -16.0244  -47.4980 S.3       23 UNK        -0.2404 
      8 C8          3.0123  -17.2106  -47.1491 C.3       23 UNK        -0.0205 
      9 C9          2.3871  -17.7916  -48.4094 C.ar      23 UNK        -0.0193 
     10 C10         1.0648  -17.4790  -48.7327 C.ar      23 UNK        -0.1150 
     11 C11         0.4713  -18.0029  -49.8824 C.ar      23 UNK        -0.0193 
     12 C12         1.2165  -18.8324  -50.7234 C.ar      23 UNK        -0.1150 
     13 C13         2.5388  -19.1586  -50.4121 C.ar      23 UNK        -0.0193 
     14 C14         3.1181  -18.6395  -49.2483 C.ar      23 UNK        -0.1150 
     15 C15         3.3427  -20.0522  -51.3489 C.3       23 UNK        -0.0205 
     16 S16         2.7030  -21.7591  -51.4287 S.3       23 UNK        -0.2404 
     17 C17         3.0684  -22.3614  -49.7452 C.3       23 UNK        -0.0398 
     18 CA          2.0597  -23.3934  -49.1765 C.3       11 UNK         0.1400 
     19 N           2.5472  -23.8751  -47.8802 N.am      11 UNK        -0.5000 
     20 C           1.9571  -24.7590  -47.0637 C.2       10 UNK         0.5000 
     21 O           0.9186  -25.3617  -47.3255 O.2       10 UNK        -0.5000 
     22 CA          2.6096  -24.9336  -45.6782 C.3       10 UNK         0.1400 
     23 CB          3.6646  -26.0487  -45.7166 C.3       10 UNK        -0.1800 
     24 N           3.2207  -23.7009  -45.1629 N.am      10 UNK        -0.5000 
     25 C           2.5722  -22.5436  -44.9732 C.2       9 UNK         0.5000 
     26 O           1.3695  -22.3838  -45.2061 O.2       9 UNK        -0.5000 
     27 CA          3.4179  -21.3497  -44.5191 C.3       9 UNK         0.1400 
     28 CB          4.2162  -20.7703  -45.7010 C.3       9 UNK        -0.1800 
     29 N           2.5148  -20.3365  -43.9929 N.am      9 UNK        -0.5000 
     30 C           2.8165  -19.4060  -43.0835 C.2       8 UNK         0.5000 
     31 O           3.9428  -19.2531  -42.6091 O.2       8 UNK        -0.5000 
     32 CA          1.6667  -18.4923  -42.6190 C.3       8 UNK         0.1400 
     33 CB          1.7249  -17.1444  -43.3501 C.3       8 UNK        -0.1800 
     34 N           0.3368  -19.0753  -42.8143 N.am      8 UNK        -0.5000 
     35 C          -0.1876  -20.0711  -42.0896 C.2       7 UNK         0.5000 
     36 O           0.4145  -20.6220  -41.1664 O.2       7 UNK        -0.5000 
     37 CA         -1.6289  -20.5027  -42.4489 C.3       7 UNK         0.1400 
     38 CB         -2.1869  -21.5715  -41.4905 C.3       7 UNK        -0.1800 
     39 N          -2.5634  -19.3744  -42.4703 N.am      7 UNK        -0.5000 
     40 C          -2.6687  -18.4599  -43.4422 C.2       6 UNK         0.5000 
     41 O          -1.9808  -18.4858  -44.4628 O.2       6 UNK        -0.5000 
     42 CA         -3.6991  -17.3253  -43.2579 C.3       6 UNK         0.1400 
     43 CB         -4.3800  -17.2977  -41.8703 C.3       6 UNK        -0.1800 
     44 N          -3.1213  -16.0170  -43.5799 N.am      6 UNK        -0.5000 
     45 C          -2.0748  -15.4200  -42.9876 C.2       5 UNK         0.5000 
     46 O          -1.4820  -15.8813  -42.0108 O.2       5 UNK        -0.5000 
     47 CA         -1.6477  -14.0614  -43.5858 C.3       5 UNK         0.1400 
     48 CB         -0.2208  -13.6269  -43.1917 C.3       5 UNK        -0.1800 
     49 N          -1.8340  -13.9826  -45.0382 N.am      5 UNK        -0.5000 
     50 C          -1.2477  -14.7253  -45.9882 C.2       4 UNK         0.5000 
     51 O          -0.4197  -15.6079  -45.7677 O.2       4 UNK        -0.5000 
     52 CA         -1.6535  -14.4246  -47.4437 C.3       4 UNK         0.1400 
     53 CB         -3.0650  -14.9577  -47.7573 C.3       4 UNK        -0.1800 
     54 N          -1.4980  -13.0157  -47.8249 N.am      4 UNK        -0.5000 
     55 C          -2.1453  -11.9320  -47.3679 C.2       3 UNK         0.5000 
     56 O          -3.0985  -11.9877  -46.5884 O.2       3 UNK        -0.5000 
     57 CA         -1.6159  -10.5564  -47.8241 C.3       3 UNK         0.1400 
     58 CB         -1.6670   -9.5203  -46.6872 C.3       3 UNK        -0.1800 
     59 N          -0.2340  -10.6619  -48.2923 N.am      3 UNK        -0.5000 
     60 C           0.2040  -10.3454  -49.5177 C.2       2 UNK         0.5000 
     61 O          -0.5045   -9.8380  -50.3877 O.2       2 UNK        -0.5000 
     62 CA          1.6804  -10.6654  -49.8410 C.3       2 UNK         0.1400 
     63 CB          2.5446   -9.4025  -49.7047 C.3       2 UNK        -0.1800 
     64 N           2.2589  -11.7255  -49.0092 N.am      2 UNK        -0.5000 
     65 C           1.8306  -12.9958  -48.9647 C.2       1 UNK         0.5000 
     66 O           0.9200  -13.4257  -49.6705 O.2       1 UNK        -0.5000 
     67 C           0.6211  -22.8251  -49.0995 C.2       11 UNK         0.5000 
     68 O          -0.1830  -23.0725  -49.9986 O.2       11 UNK        -0.5000 
     69 N           0.3221  -22.1011  -48.0137 N.am      12 UNK        -0.5000 
     70 CA         -0.9878  -21.5189  -47.7471 C.3       12 UNK         0.1400 
     71 CB         -0.7832  -20.2161  -46.9603 C.3       12 UNK        -0.1800 
     72 C          -1.8864  -22.4833  -46.9557 C.2       12 UNK         0.5000 
     73 O          -3.0812  -22.5775  -47.2413 O.2       12 UNK        -0.5000 
     74 N          -1.2983  -23.1486  -45.9522 N.am      13 UNK        -0.5000 
     75 CA         -2.0025  -23.9548  -44.9595 C.3       13 UNK         0.1400 
     76 CB         -1.0577  -24.2381  -43.7822 C.3       13 UNK        -0.1800 
     77 C          -2.5759  -25.2724  -45.5053 C.2       13 UNK         0.5000 
     78 O          -3.6834  -25.6425  -45.1115 O.2       13 UNK        -0.5000 
     79 N          -1.8197  -25.9673  -46.3703 N.am      14 UNK        -0.5000 
     80 CA         -2.1556  -27.2915  -46.9039 C.3       14 UNK         0.1400 
     81 CB         -1.0145  -27.7995  -47.7987 C.3       14 UNK        -0.1800 
     82 C          -3.4902  -27.2837  -47.6665 C.2       14 UNK         0.5000 
     83 O          -3.5779  -26.6645  -48.7263 O.2       14 UNK        -0.5000 
     84 N          -4.5143  -27.9147  -47.0730 N.am      15 UNK        -0.5000 
     85 CA         -5.9085  -27.9730  -47.5346 C.3       15 UNK         0.1400 
     86 CB         -6.0112  -28.8261  -48.8164 C.3       15 UNK        -0.1800 
     87 C          -6.5784  -26.5872  -47.6962 C.2       15 UNK         0.5000 
     88 O          -7.5526  -26.4684  -48.4413 O.2       15 UNK        -0.5000 
     89 N          -6.0380  -25.5668  -47.0085 N.am      16 UNK        -0.5000 
     90 CA         -6.3802  -24.1447  -47.1154 C.3       16 UNK         0.1400 
     91 CB         -7.7725  -23.8714  -46.5100 C.3       16 UNK        -0.1800 
     92 C          -6.2230  -23.5961  -48.5524 C.2       16 UNK         0.5000 
     93 O          -7.0546  -22.8105  -49.0114 O.2       16 UNK        -0.5000 
     94 N          -5.1547  -24.0251  -49.2421 N.am      17 UNK        -0.5000 
     95 CA         -4.8357  -23.6807  -50.6309 C.3       17 UNK         0.1400 
     96 CB         -3.6649  -24.5514  -51.1127 C.3       17 UNK        -0.1800 
     97 C          -4.5267  -22.1944  -50.8934 C.2       17 UNK         0.5000 
     98 O          -4.4527  -21.8150  -52.0616 O.2       17 UNK        -0.5000 
     99 N          -4.3604  -21.3848  -49.8360 N.am      18 UNK        -0.5000 
    100 CA        -4.0234  -19.9556  -49.8396 C.3       18 UNK         0.1400 
    101 CB        -4.2969  -19.3784  -48.4422 C.3       18 UNK        -0.1800 
    102 C         -4.7446  -19.0995  -50.8994 C.2       18 UNK         0.5000 
    103 O         -4.1054  -18.2742  -51.5530 O.2       18 UNK        -0.5000 
    104 N         -6.0491  -19.3447  -51.0808 N.am      19 UNK        -0.5000 
    105 CA        -6.9100  -18.6604  -52.0485 C.3       19 UNK         0.1400 
    106 CB        -8.3637  -19.0968  -51.8108 C.3       19 UNK        -0.1800 
    107 C         -6.5165  -18.8840  -53.5239 C.2       19 UNK         0.5000 
    108 O         -6.8160  -18.0290  -54.3580 O.2       19 UNK        -0.5000 
    109 N         -5.8586  -20.0123  -53.8180 N.am      20 UNK        -0.5000 
    110 CA        -5.3350  -20.3557  -55.1392 C.3       20 UNK         0.1400 
    111 CB        -5.6877  -21.8188  -55.4509 C.3       20 UNK        -0.1800 
    112 C         -3.8126  -20.1472  -55.2070 C.2       20 UNK         0.5000 
    113 O         -3.3058  -19.7250  -56.2469 O.2       20 UNK        -0.5000 
    114 N         -3.1103  -20.4530  -54.1066 N.am      21 UNK        -0.5000 
    115 CA        -1.6535  -20.3885  -53.9903 C.3       21 UNK         0.1400 
    116 CB        -1.2167  -21.1349  -52.7205 C.3       21 UNK        -0.1800 
    117 C         -1.0906  -18.9549  -54.0098 C.2       21 UNK         0.5000 
    118 O          0.0398  -18.7642  -54.4600 O.2       21 UNK        -0.5000 
    119 N         -1.8775  -17.9768  -53.5462 N.am      22 UNK        -0.5000 
    120 CA        -1.5445  -16.5461  -53.6055 C.3       22 UNK         0.1400 
    121 C         -2.7891  -15.6220  -53.7134 C.2       22 UNK         0.5000 
    122 N         -3.9565  -16.0157  -53.2187 N.am      22 UNK        -0.7600 
    123 O         -2.7003  -14.5382  -54.2842 O.2       22 UNK        -0.5000 
    124 C124       -0.5467  -16.1051  -52.4985 C.3       23 UNK        -0.0398 
    125 S125       -1.2501  -16.0229  -50.8138 S.3       23 UNK        -0.2404 
    126 C126       -0.9867  -17.7072  -50.1874 C.3       23 UNK        -0.0205 
    127 H127        2.5806  -12.2766  -43.7757 H         1 UNK         0.0600 
    128 H128        3.0153  -10.8203  -44.6766 H         1 UNK         0.0600 
    129 H129        4.0994  -12.2149  -44.6746 H         1 UNK         0.0600 
    130 H130        3.9796  -13.4445  -46.5230 H         1 UNK         0.3000 
    131 H131        1.6838  -14.5790  -47.5582 H         1 UNK         0.0600 
    132 H132        3.1045  -15.3654  -49.4509 H         1 UNK         0.0800 
    133 H133        4.3305  -14.2012  -49.0429 H         1 UNK         0.0800 
    134 H134        2.2561  -16.7125  -46.5413 H         1 UNK         0.0800 
    135 H135        3.4074  -18.0200  -46.5354 H         1 UNK         0.0800 
    136 H136        0.4877  -16.8405  -48.0798 H         1 UNK         0.1150 
    137 H137        0.7678  -19.2341  -51.6196 H         1 UNK         0.1150 
    138 H138        4.1420  -18.8805  -48.9992 H         1 UNK         0.1150 
    139 H139        3.3157  -19.6225  -52.3512 H         1 UNK         0.0800 
    140 H140        4.3936  -20.0769  -51.0564 H         1 UNK         0.0800 
    141 H141        3.1449  -21.5118  -49.0658 H         1 UNK         0.0800 
    142 H142        4.0649  -22.8042  -49.7778 H         1 UNK         0.0800 
    143 H143        2.0326  -24.2542  -49.8476 H         1 UNK         0.0600 
    144 H144        3.4002  -23.4508  -47.5489 H         1 UNK         0.3000 
    145 H145        1.8269  -25.2328  -44.9803 H         1 UNK         0.0600 
    146 H146        4.0696  -26.2432  -44.7233 H         1 UNK         0.0600 
    147 H147        3.2318  -26.9828  -46.0777 H         1 UNK         0.0600 
    148 H148        4.4960  -25.7954  -46.3755 H         1 UNK         0.0600 
    149 H149        4.2078  -23.7468  -44.9536 H         1 UNK         0.3000 
    150 H150        4.0979  -21.6823  -43.7321 H         1 UNK         0.0600 
    151 H151        4.9221  -21.5012  -46.0967 H         1 UNK         0.0600 
    152 H152        4.7943  -19.8971  -45.3982 H         1 UNK         0.0600 
    153 H153        3.5603  -20.4701  -46.5194 H         1 UNK         0.0600 
    154 H154        1.5547  -20.4407  -44.2945 H         1 UNK         0.3000 
    155 H155        1.8081  -18.3074  -41.5522 H         1 UNK         0.0600 
    156 H156        1.4760  -17.2513  -44.4056 H         1 UNK         0.0600 
    157 H157        2.7167  -16.6953  -43.2846 H         1 UNK         0.0600 
    158 H158        1.0202  -16.4395  -42.9125 H         1 UNK         0.0600 
    159 H159       -0.2443  -18.6653  -43.5400 H         1 UNK         0.3000 
    160 H160       -1.5875  -20.9419  -43.4482 H         1 UNK         0.0600 
    161 H161       -2.3074  -21.1798  -40.4798 H         1 UNK         0.0600 
    162 H162       -1.5259  -22.4358  -41.4257 H         1 UNK         0.0600 
    163 H163       -3.1580  -21.9339  -41.8284 H         1 UNK         0.0600 
    164 H164       -3.1347  -19.2577  -41.6463 H         1 UNK         0.3000 
    165 H165       -4.4767  -17.5054  -44.0014 H         1 UNK         0.0600 
    166 H166       -3.6605  -17.1732  -41.0602 H         1 UNK         0.0600 
    167 H167       -5.0933  -16.4760  -41.8045 H         1 UNK         0.0600 
    168 H168       -4.9382  -18.2160  -41.6844 H         1 UNK         0.0600 
    169 H169       -3.5073  -15.5617  -44.3939 H         1 UNK         0.3000 
    170 H170       -2.3335  -13.3296  -43.1569 H         1 UNK         0.0600 
    171 H171       -0.0850  -13.6379  -42.1099 H         1 UNK         0.0600 
    172 H172        0.5386  -14.2752  -43.6272 H         1 UNK         0.0600 
    173 H173       -0.0195  -12.6107  -43.5305 H         1 UNK         0.0600 
    174 H174       -2.4712  -13.2600  -45.3651 H         1 UNK         0.3000 
    175 H175       -0.9533  -14.9686  -48.0770 H         1 UNK         0.0600 
    176 H176       -3.8330  -14.4789  -47.1499 H         1 UNK         0.0600 
    177 H177       -3.3208  -14.8001  -48.8050 H         1 UNK         0.0600 
    178 H178       -3.1215  -16.0303  -47.5679 H         1 UNK         0.0600 
    179 H179       -0.7364  -12.8520  -48.4730 H         1 UNK         0.3000 
    180 H180       -2.2728  -10.2198  -48.6282 H         1 UNK         0.0600 
    181 H181       -1.0719   -9.8391  -45.8303 H         1 UNK         0.0600 
    182 H182       -2.6890   -9.3630  -46.3406 H         1 UNK         0.0600 
    183 H183       -1.2866   -8.5539  -47.0185 H         1 UNK         0.0600 
    184 H184        0.4104  -11.0920  -47.6337 H         1 UNK         0.3000 
    185 H185        1.7207  -10.9993  -50.8798 H         1 UNK         0.0600 
    186 H186        3.5732   -9.5922  -50.0118 H         1 UNK         0.0600 
    187 H187        2.1627   -8.5973  -50.3338 H         1 UNK         0.0600 
    188 H188        2.5613   -9.0365  -48.6773 H         1 UNK         0.0600 
    189 H189        2.9982  -11.4513  -48.3786 H         1 UNK         0.3000 
    190 H190        1.0110  -22.0081  -47.2793 H         1 UNK         0.3000 
    191 H191       -1.4817  -21.2776  -48.6900 H         1 UNK         0.0600 
    192 H192       -1.7202  -19.6769  -46.8343 H         1 UNK         0.0600 
    193 H193       -0.0960  -19.5508  -47.4766 H         1 UNK         0.0600 
    194 H194       -0.3766  -20.3969  -45.9649 H         1 UNK         0.0600 
    195 H195       -0.3112  -22.9836  -45.7773 H         1 UNK         0.3000 
    196 H196       -2.8370  -23.3581  -44.5846 H         1 UNK         0.0600 
    197 H197       -0.2587  -24.9226  -44.0643 H         1 UNK         0.0600 
    198 H198       -0.5929  -23.3247  -43.4130 H         1 UNK         0.0600 
    199 H199       -1.5979  -24.6922  -42.9508 H         1 UNK         0.0600 
    200 H200       -0.9310  -25.5792  -46.6731 H         1 UNK         0.3000 
    201 H201       -2.2403  -27.9750  -46.0566 H         1 UNK         0.0600 
    202 H202       -0.8229  -27.1194  -48.6299 H         1 UNK         0.0600 
    203 H203       -1.2532  -28.7762  -48.2213 H         1 UNK         0.0600 
    204 H204       -0.0889  -27.9085  -47.2335 H         1 UNK         0.0600 
    205 H205       -4.3443  -28.3475  -46.1755 H         1 UNK         0.3000 
    206 H206       -6.4675  -28.4857  -46.7508 H         1 UNK         0.0600 
    207 H207       -5.5407  -29.7999  -48.6811 H         1 UNK         0.0600 
    208 H208       -7.0521  -29.0065  -49.0870 H         1 UNK         0.0600 
    209 H209       -5.5329  -28.3374  -49.6659 H         1 UNK         0.0600 
    210 H210       -5.2439  -25.7723  -46.4097 H         1 UNK         0.3000 
    211 H211       -5.6476  -23.6111  -46.5080 H         1 UNK         0.0600 
    212 H212       -7.9773  -22.8010  -46.4692 H         1 UNK         0.0600 
    213 H213       -7.8405  -24.2525  -45.4911 H         1 UNK         0.0600 
    214 H214       -8.5676  -24.3340  -47.0954 H         1 UNK         0.0600 
    215 H215       -4.5359  -24.6982  -48.8047 H         1 UNK         0.3000 
    216 H216       -5.7095  -23.9269  -51.2373 H         1 UNK         0.0600 
    217 H217       -2.7863  -24.4278  -50.4776 H         1 UNK         0.0600 
    218 H218       -3.3709  -24.2974  -52.1321 H         1 UNK         0.0600 
    219 H219       -3.9359  -25.6069  -51.1150 H         1 UNK         0.0600 
    220 H220       -4.3967  -21.8236  -48.9244 H         1 UNK         0.3000 
    221 H221       -2.9542  -19.8919  -50.0339 H         1 UNK         0.0600 
    222 H222       -3.8019  -19.9565  -47.6646 H         1 UNK         0.0600 
    223 H223       -5.3631  -19.3739  -48.2120 H         1 UNK         0.0600 
    224 H224       -3.9398  -18.3507  -48.3653 H         1 UNK         0.0600 
    225 H225       -6.4810  -20.0651  -50.5196 H         1 UNK         0.3000 
    226 H226       -6.8387  -17.5884  -51.8536 H         1 UNK         0.0600 
    227 H227       -8.4898  -20.1699  -51.9605 H         1 UNK         0.0600 
    228 H228       -8.6872  -18.8581  -50.7975 H         1 UNK         0.0600 
    229 H229       -9.0427  -18.5873  -52.4958 H         1 UNK         0.0600 
    230 H230       -5.6121  -20.6442  -53.0625 H         1 UNK         0.3000 
    231 H231       -5.7921  -19.7285  -55.9073 H         1 UNK         0.0600 
    232 H232       -5.2569  -22.5036  -54.7192 H         1 UNK         0.0600 
    233 H233       -5.3147  -22.1097  -56.4337 H         1 UNK         0.0600 
    234 H234       -6.7672  -21.9698  -55.4547 H         1 UNK         0.0600 
    235 H235       -3.6057  -20.8500  -53.3116 H         1 UNK         0.3000 
    236 H236       -1.2306  -20.9146  -54.8486 H         1 UNK         0.0600 
    237 H237       -1.5728  -22.1653  -52.7240 H         1 UNK         0.0600 
    238 H238       -0.1300  -21.1732  -52.6428 H         1 UNK         0.0600 
    239 H239       -1.5956  -20.6575  -51.8180 H         1 UNK         0.0600 
    240 H240       -2.7876  -18.2086  -53.1682 H         1 UNK         0.3000 
    241 H241       -1.0284  -16.3968  -54.5563 H         1 UNK         0.0600 
    242 H242       -4.7552  -15.4107  -53.3180 H         1 UNK         0.3800 
    243 H243       -4.0278  -16.8455  -52.6345 H         1 UNK         0.3800 
    244 H244       -0.1651  -15.1105  -52.7337 H         1 UNK         0.0800 
    245 H245        0.3300  -16.7524  -52.4964 H         1 UNK         0.0800 
    246 H246       -1.5731  -17.8336  -49.2766 H         1 UNK         0.0800 
    247 H247       -1.3801  -18.4231  -50.9062 H         1 UNK         0.0800 
@<TRIPOS>BOND
     1    1    2 1    
     2    1  127 1    
     3    1  128 1    
     4    1  129 1    
     5    2    3 2    
     6    2    4 am   BACKBONE|DICT|INTERRES
     7    4    5 1    
     8    4  130 1    
     9    5    6 1    
    10    5   65 1    
    11    5  131 1    
    12    6    7 1    
    13    6  132 1    
    14    6  133 1    
    15    7    8 1    
    16    8    9 1    
    17    8  134 1    
    18    8  135 1    
    19    9   10 ar   
    20    9   14 ar   
    21   10   11 ar   
    22   10  136 1    
    23   11   12 ar   
    24   11  126 1    
    25   12   13 ar   
    26   12  137 1    
    27   13   14 ar   
    28   13   15 1    
    29   14  138 1    
    30   15   16 1    
    31   15  139 1    
    32   15  140 1    
    33   16   17 1    
    34   17   18 1    
    35   17  141 1    
    36   17  142 1    
    37   18   19 1    
    38   18   67 1    
    39   18  143 1    
    40   19   20 am   BACKBONE|DICT|INTERRES
    41   19  144 1    
    42   20   21 2    
    43   20   22 1    
    44   22   23 1    
    45   22   24 1    
    46   22  145 1    
    47   23  146 1    
    48   23  147 1    
    49   23  148 1    
    50   24   25 am   BACKBONE|DICT|INTERRES
    51   24  149 1    
    52   25   26 2    
    53   25   27 1    
    54   27   28 1    
    55   27   29 1    
    56   27  150 1    
    57   28  151 1    
    58   28  152 1    
    59   28  153 1    
    60   29   30 am   BACKBONE|DICT|INTERRES
    61   29  154 1    
    62   30   31 2    
    63   30   32 1    
    64   32   33 1    
    65   32   34 1    
    66   32  155 1    
    67   33  156 1    
    68   33  157 1    
    69   33  158 1    
    70   34   35 am   BACKBONE|DICT|INTERRES
    71   34  159 1    
    72   35   36 2    
    73   35   37 1    
    74   37   38 1    
    75   37   39 1    
    76   37  160 1    
    77   38  161 1    
    78   38  162 1    
    79   38  163 1    
    80   39   40 am   BACKBONE|DICT|INTERRES
    81   39  164 1    
    82   40   41 2    
    83   40   42 1    
    84   42   43 1    
    85   42   44 1    
    86   42  165 1    
    87   43  166 1    
    88   43  167 1    
    89   43  168 1    
    90   44   45 am   BACKBONE|DICT|INTERRES
    91   44  169 1    
    92   45   46 2    
    93   45   47 1    
    94   47   48 1    
    95   47   49 1    
    96   47  170 1    
    97   48  171 1    
    98   48  172 1    
    99   48  173 1    
   100   49   50 am   BACKBONE|DICT|INTERRES
   101   49  174 1    
   102   50   51 2    
   103   50   52 1    
   104   52   53 1    
   105   52   54 1    
   106   52  175 1    
   107   53  176 1    
   108   53  177 1    
   109   53  178 1    
   110   54   55 am   BACKBONE|DICT|INTERRES
   111   54  179 1    
   112   55   56 2    
   113   55   57 1    
   114   57   58 1    
   115   57   59 1    
   116   57  180 1    
   117   58  181 1    
   118   58  182 1    
   119   58  183 1    
   120   59   60 am   BACKBONE|DICT|INTERRES
   121   59  184 1    
   122   60   61 2    
   123   60   62 1    
   124   62   63 1    
   125   62   64 1    
   126   62  185 1    
   127   63  186 1    
   128   63  187 1    
   129   63  188 1    
   130   64   65 am   BACKBONE|DICT|INTERRES
   131   64  189 1    
   132   65   66 2    
   133   67   68 2    
   134   67   69 am   BACKBONE|DICT|INTERRES
   135   69   70 1    
   136   69  190 1    
   137   70   71 1    
   138   70   72 1    
   139   70  191 1    
   140   71  192 1    
   141   71  193 1    
   142   71  194 1    
   143   72   73 2    
   144   72   74 am   BACKBONE|DICT|INTERRES
   145   74   75 1    
   146   74  195 1    
   147   75   76 1    
   148   75   77 1    
   149   75  196 1    
   150   76  197 1    
   151   76  198 1    
   152   76  199 1    
   153   77   78 2    
   154   77   79 am   BACKBONE|DICT|INTERRES
   155   79   80 1    
   156   79  200 1    
   157   80   81 1    
   158   80   82 1    
   159   80  201 1    
   160   81  202 1    
   161   81  203 1    
   162   81  204 1    
   163   82   83 2    
   164   82   84 am   BACKBONE|DICT|INTERRES
   165   84   85 1    
   166   84  205 1    
   167   85   86 1    
   168   85   87 1    
   169   85  206 1    
   170   86  207 1    
   171   86  208 1    
   172   86  209 1    
   173   87   88 2    
   174   87   89 am   BACKBONE|DICT|INTERRES
   175   89   90 1    
   176   89  210 1    
   177   90   91 1    
   178   90   92 1    
   179   90  211 1    
   180   91  212 1    
   181   91  213 1    
   182   91  214 1    
   183   92   93 2    
   184   92   94 am   BACKBONE|DICT|INTERRES
   185   94   95 1    
   186   94  215 1    
   187   95   96 1    
   188   95   97 1    
   189   95  216 1    
   190   96  217 1    
   191   96  218 1    
   192   96  219 1    
   193   97   98 2    
   194   97   99 am   BACKBONE|DICT|INTERRES
   195   99  100 1    
   196   99  220 1    
   197  100  101 1    
   198  100  102 1    
   199  100  221 1    
   200  101  222 1    
   201  101  223 1    
   202  101  224 1    
   203  102  103 2    
   204  102  104 am   BACKBONE|DICT|INTERRES
   205  104  105 1    
   206  104  225 1    
   207  105  106 1    
   208  105  107 1    
   209  105  226 1    
   210  106  227 1    
   211  106  228 1    
   212  106  229 1    
   213  107  108 2    
   214  107  109 am   BACKBONE|DICT|INTERRES
   215  109  110 1    
   216  109  230 1    
   217  110  111 1    
   218  110  112 1    
   219  110  231 1    
   220  111  232 1    
   221  111  233 1    
   222  111  234 1    
   223  112  113 2    
   224  112  114 am   BACKBONE|DICT|INTERRES
   225  114  115 1    
   226  114  235 1    
   227  115  116 1    
   228  115  117 1    
   229  115  236 1    
   230  116  237 1    
   231  116  238 1    
   232  116  239 1    
   233  117  118 2    
   234  117  119 am   BACKBONE|DICT|INTERRES
   235  119  120 1    
   236  119  240 1    
   237  120  121 1    
   238  120  124 1    
   239  120  241 1    
   240  121  122 am   BACKBONE|DICT|INTERRES
   241  121  123 2    
   242  122  242 1    
   243  122  243 1    
   244  124  125 1    
   245  124  244 1    
   246  124  245 1    
   247  125  126 1    
   248  126  246 1    
   249  126  247 1    
@<TRIPOS>SUBSTRUCTURE
     1 UNK         1 GROUP             0       ****    0 ROOT    
