@<TRIPOS>MOLECULE
3R540
247   249    1
SMALL
USER_CHARGES


@<TRIPOS>ATOM
      1 CA          1.5865  -13.3404  -52.4567 C.3       0 UNK        -0.1800 
      2 C           1.2413  -13.3994  -50.9758 C.2       0 UNK         0.5000 
      3 O           1.4139  -12.4126  -50.2602 O.2       0 UNK        -0.5000 
      4 N           0.7291  -14.5440  -50.5140 N.am      1 UNK        -0.5000 
      5 CA          0.3444  -14.8351  -49.1271 C.3       1 UNK         0.1400 
      6 C6          0.4943  -16.3525  -48.8255 C.3       23 UNK        -0.0398 
      7 S7          2.1926  -16.8009  -48.3339 S.3       23 UNK        -0.2404 
      8 C8          3.0560  -16.9800  -49.9329 C.3       23 UNK        -0.0205 
      9 C9          2.5485  -18.0945  -50.8470 C.ar      23 UNK        -0.0193 
     10 C10         2.7402  -17.9660  -52.2266 C.ar      23 UNK        -0.1150 
     11 C11         2.3448  -18.9796  -53.1028 C.ar      23 UNK        -0.0193 
     12 C12         1.7362  -20.1269  -52.5877 C.ar      23 UNK        -0.1150 
     13 C13         1.5272  -20.2740  -51.2128 C.ar      23 UNK        -0.0193 
     14 C14         1.9520  -19.2599  -50.3477 C.ar      23 UNK        -0.1150 
     15 C15         0.8898  -21.5510  -50.6732 C.3       23 UNK        -0.0205 
     16 S16        -0.7592  -21.2742  -49.9437 S.3       23 UNK        -0.2404 
     17 C17        -0.3604  -21.1578  -48.1678 C.3       23 UNK        -0.0398 
     18 CA         -0.5496  -22.4958  -47.4101 C.3       11 UNK         0.1400 
     19 N           0.2210  -22.5267  -46.1642 N.am      11 UNK        -0.5000 
     20 C           0.3537  -23.5926  -45.3616 C.2       10 UNK         0.5000 
     21 O          -0.1231  -24.6992  -45.6091 O.2       10 UNK        -0.5000 
     22 CA          1.0904  -23.3708  -44.0287 C.3       10 UNK         0.1400 
     23 CB          2.6125  -23.3730  -44.2319 C.3       10 UNK        -0.1800 
     24 N           0.6766  -22.1324  -43.3678 N.am      10 UNK        -0.5000 
     25 C          -0.5649  -21.8954  -42.9188 C.2       9 UNK         0.5000 
     26 O          -1.4717  -22.7284  -42.9489 O.2       9 UNK        -0.5000 
     27 CA         -0.8571  -20.4737  -42.4029 C.3       9 UNK         0.1400 
     28 CB         -0.3527  -20.2940  -40.9637 C.3       9 UNK        -0.1800 
     29 N          -0.2772  -19.4381  -43.2592 N.am      9 UNK        -0.5000 
     30 C          -0.6235  -19.2246  -44.5367 C.2       8 UNK         0.5000 
     31 O          -1.5155  -19.8413  -45.1162 O.2       8 UNK        -0.5000 
     32 CA          0.2034  -18.1918  -45.3182 C.3       8 UNK         0.1400 
     33 CB         -0.3059  -16.7653  -45.0656 C.3       8 UNK        -0.1800 
     34 N           1.6275  -18.2781  -44.9984 N.am      8 UNK        -0.5000 
     35 C           2.4170  -19.3000  -45.3584 C.2       7 UNK         0.5000 
     36 O           2.0255  -20.2697  -46.0052 O.2       7 UNK        -0.5000 
     37 CA          3.8770  -19.2522  -44.8755 C.3       7 UNK         0.1400 
     38 CB          4.7225  -18.3675  -45.8040 C.3       7 UNK        -0.1800 
     39 N           3.9937  -18.7681  -43.4997 N.am      7 UNK        -0.5000 
     40 C           3.5110  -19.4073  -42.4238 C.2       6 UNK         0.5000 
     41 O           2.9657  -20.5097  -42.4698 O.2       6 UNK        -0.5000 
     42 CA          3.5977  -18.6544  -41.0814 C.3       6 UNK         0.1400 
     43 CB          4.9513  -18.9102  -40.4027 C.3       6 UNK        -0.1800 
     44 N           3.3879  -17.2095  -41.2273 N.am      6 UNK        -0.5000 
     45 C           2.2546  -16.6581  -41.6799 C.2       5 UNK         0.5000 
     46 O           1.2499  -17.3119  -41.9767 O.2       5 UNK        -0.5000 
     47 CA          2.2644  -15.1395  -41.9007 C.3       5 UNK         0.1400 
     48 CB          3.1207  -14.7874  -43.1354 C.3       5 UNK        -0.1800 
     49 N           0.8854  -14.7101  -42.1030 N.am      5 UNK        -0.5000 
     50 C           0.4393  -13.4539  -42.1657 C.2       4 UNK         0.5000 
     51 O           1.1470  -12.4584  -41.9920 O.2       4 UNK        -0.5000 
     52 CA         -1.0631  -13.2829  -42.4582 C.3       4 UNK         0.1400 
     53 CB         -1.8357  -12.9597  -41.1701 C.3       4 UNK        -0.1800 
     54 N          -1.2982  -12.2241  -43.4398 N.am      4 UNK        -0.5000 
     55 C          -0.9503  -12.3020  -44.7300 C.2       3 UNK         0.5000 
     56 O          -0.4433  -13.3015  -45.2458 O.2       3 UNK        -0.5000 
     57 CA         -1.1790  -11.0383  -45.5763 C.3       3 UNK         0.1400 
     58 CB          0.0423  -10.1094  -45.4917 C.3       3 UNK        -0.1800 
     59 N          -1.3961  -11.4010  -46.9740 N.am      3 UNK        -0.5000 
     60 C          -2.5768  -11.7511  -47.5000 C.2       2 UNK         0.5000 
     61 O          -3.6472  -11.6778  -46.8950 O.2       2 UNK        -0.5000 
     62 CA         -2.5513  -12.2871  -48.9437 C.3       2 UNK         0.1400 
     63 CB         -2.6911  -11.1383  -49.9540 C.3       2 UNK        -0.1800 
     64 N          -1.3229  -13.0288  -49.2298 N.am      2 UNK        -0.5000 
     65 C          -1.0631  -14.2727  -48.8052 C.2       1 UNK         0.5000 
     66 O          -1.8872  -14.9552  -48.1951 O.2       1 UNK        -0.5000 
     67 C          -2.0379  -22.8262  -47.1708 C.2       11 UNK         0.5000 
     68 O          -2.5958  -23.6597  -47.8829 O.2       11 UNK        -0.5000 
     69 N          -2.6440  -22.2144  -46.1432 N.am      12 UNK        -0.5000 
     70 CA         -4.0242  -22.4546  -45.7192 C.3       12 UNK         0.1400 
     71 CB         -4.4014  -21.4792  -44.5948 C.3       12 UNK        -0.1800 
     72 C          -4.2851  -23.9110  -45.3019 C.2       12 UNK         0.5000 
     73 O          -5.3225  -24.4648  -45.6662 O.2       12 UNK        -0.5000 
     74 N          -3.3299  -24.5051  -44.5773 N.am      13 UNK        -0.5000 
     75 CA         -3.3758  -25.8970  -44.1427 C.3       13 UNK         0.1400 
     76 CB         -2.3361  -26.1157  -43.0319 C.3       13 UNK        -0.1800 
     77 C          -3.1643  -26.8948  -45.2968 C.2       13 UNK         0.5000 
     78 O          -3.9446  -27.8390  -45.4286 O.2       13 UNK        -0.5000 
     79 N          -2.0983  -26.6960  -46.0832 N.am      14 UNK        -0.5000 
     80 CA         -1.6126  -27.6829  -47.0473 C.3       14 UNK         0.1400 
     81 CB         -0.0819  -27.5789  -47.1431 C.3       14 UNK        -0.1800 
     82 C          -2.2332  -27.5543  -48.4473 C.2       14 UNK         0.5000 
     83 O          -2.5178  -28.5802  -49.0674 O.2       14 UNK        -0.5000 
     84 N          -2.3820  -26.3203  -48.9448 N.am      15 UNK        -0.5000 
     85 CA         -2.6742  -26.0378  -50.3542 C.3       15 UNK         0.1400 
     86 CB         -1.5646  -25.1249  -50.9000 C.3       15 UNK        -0.1800 
     87 C          -4.0544  -25.3971  -50.5822 C.2       15 UNK         0.5000 
     88 O          -4.5279  -25.4140  -51.7179 O.2       15 UNK        -0.5000 
     89 N          -4.6636  -24.8574  -49.5170 N.am      16 UNK        -0.5000 
     90 CA         -5.8889  -24.0548  -49.4865 C.3       16 UNK         0.1400 
     91 CB         -7.0902  -24.7729  -50.1369 C.3       16 UNK        -0.1800 
     92 C          -5.6345  -22.6526  -50.0697 C.2       16 UNK         0.5000 
     93 O          -5.9459  -22.3806  -51.2325 O.2       16 UNK        -0.5000 
     94 N          -5.0669  -21.7812  -49.2229 N.am      17 UNK        -0.5000 
     95 CA         -4.6915  -20.3840  -49.4797 C.3       17 UNK         0.1400 
     96 CB         -4.2554  -19.7316  -48.1579 C.3       17 UNK        -0.1800 
     97 C          -5.7701  -19.5129  -50.1514 C.2       17 UNK         0.5000 
     98 O          -5.4179  -18.5900  -50.8828 O.2       17 UNK        -0.5000 
     99 N          -7.0525  -19.8476  -49.9465 N.am      18 UNK        -0.5000 
    100 CA        -8.2090  -19.2352  -50.6093 C.3       18 UNK         0.1400 
    101 CB        -9.4871  -19.9376  -50.1265 C.3       18 UNK        -0.1800 
    102 C         -8.1354  -19.2506  -52.1524 C.2       18 UNK         0.5000 
    103 O         -8.6949  -18.3559  -52.7881 O.2       18 UNK        -0.5000 
    104 N         -7.4252  -20.2377  -52.7150 N.am      19 UNK        -0.5000 
    105 CA        -7.0529  -20.2971  -54.1260 C.3       19 UNK         0.1400 
    106 CB        -7.6169  -21.5900  -54.7363 C.3       19 UNK        -0.1800 
    107 C         -5.5249  -20.2427  -54.3096 C.2       19 UNK         0.5000 
    108 O         -5.0551  -19.6315  -55.2700 O.2       19 UNK        -0.5000 
    109 N         -4.7739  -20.9051  -53.4188 N.am      20 UNK        -0.5000 
    110 CA        -3.3577  -21.2131  -53.6194 C.3       20 UNK         0.1400 
    111 CB        -3.0220  -22.4906  -52.8377 C.3       20 UNK        -0.1800 
    112 C         -2.3604  -20.1009  -53.2495 C.2       20 UNK         0.5000 
    113 O         -1.1958  -20.2445  -53.6099 O.2       20 UNK        -0.5000 
    114 N         -2.7849  -19.0474  -52.5339 N.am      21 UNK        -0.5000 
    115 CA        -1.8906  -18.0549  -51.9127 C.3       21 UNK         0.1400 
    116 CB        -2.6974  -17.1704  -50.9520 C.3       21 UNK        -0.1800 
    117 C         -1.0657  -17.1619  -52.8611 C.2       21 UNK         0.5000 
    118 O         -0.1934  -16.4411  -52.3755 O.2       21 UNK        -0.5000 
    119 N         -1.3611  -17.1814  -54.1659 N.am      22 UNK        -0.5000 
    120 CA        -0.6540  -16.4216  -55.2154 C.3       22 UNK         0.1400 
    121 C         -0.8857  -14.8783  -55.1761 C.2       22 UNK         0.5000 
    122 N         -1.8530  -14.3695  -54.4225 N.am      22 UNK        -0.7600 
    123 O         -0.2019  -14.1269  -55.8661 O.2       22 UNK        -0.5000 
    124 C124        0.8579  -16.7821  -55.3279 C.3       23 UNK        -0.0398 
    125 S125        1.1496  -18.5634  -55.6030 S.3       23 UNK        -0.2404 
    126 C126        2.6363  -18.8697  -54.5951 C.3       23 UNK        -0.0205 
    127 H127        2.6134  -13.0008  -52.5910 H         1 UNK         0.0600 
    128 H128        0.9235  -12.6440  -52.9700 H         1 UNK         0.0600 
    129 H129        1.4881  -14.3162  -52.9329 H         1 UNK         0.0600 
    130 H130        0.5252  -15.2873  -51.1822 H         1 UNK         0.3000 
    131 H131        1.0189  -14.2945  -48.4594 H         1 UNK         0.0600 
    132 H132       -0.1348  -16.6618  -47.9920 H         1 UNK         0.0800 
    133 H133        0.1749  -16.9621  -49.6711 H         1 UNK         0.0800 
    134 H134        4.1091  -17.1724  -49.7251 H         1 UNK         0.0800 
    135 H135        3.0221  -16.0232  -50.4542 H         1 UNK         0.0800 
    136 H136        3.2194  -17.0802  -52.6189 H         1 UNK         0.1150 
    137 H137        1.4284  -20.9106  -53.2656 H         1 UNK         0.1150 
    138 H138        1.8249  -19.3817  -49.2835 H         1 UNK         0.1150 
    139 H139        1.5565  -22.0154  -49.9456 H         1 UNK         0.0800 
    140 H140        0.7755  -22.2792  -51.4776 H         1 UNK         0.0800 
    141 H141       -0.9522  -20.3580  -47.7221 H         1 UNK         0.0800 
    142 H142        0.6742  -20.8342  -48.0804 H         1 UNK         0.0800 
    143 H143       -0.1419  -23.2942  -48.0341 H         1 UNK         0.0600 
    144 H144        0.6972  -21.6664  -45.9082 H         1 UNK         0.3000 
    145 H145        0.8366  -24.2023  -43.3678 H         1 UNK         0.0600 
    146 H146        3.1362  -23.2885  -43.2796 H         1 UNK         0.0600 
    147 H147        2.9415  -24.2998  -44.7036 H         1 UNK         0.0600 
    148 H148        2.9383  -22.5482  -44.8654 H         1 UNK         0.0600 
    149 H149        1.3864  -21.4152  -43.2548 H         1 UNK         0.3000 
    150 H150       -1.9403  -20.3361  -42.4026 H         1 UNK         0.0600 
    151 H151       -0.8107  -21.0251  -40.2964 H         1 UNK         0.0600 
    152 H152       -0.5984  -19.3032  -40.5808 H         1 UNK         0.0600 
    153 H153        0.7278  -20.4193  -40.8955 H         1 UNK         0.0600 
    154 H154        0.4352  -18.8454  -42.8437 H         1 UNK         0.3000 
    155 H155        0.0863  -18.4102  -46.3813 H         1 UNK         0.0600 
    156 H156       -0.2976  -16.5112  -44.0070 H         1 UNK         0.0600 
    157 H157        0.3004  -16.0273  -45.5914 H         1 UNK         0.0600 
    158 H158       -1.3313  -16.6515  -45.4195 H         1 UNK         0.0600 
    159 H159        2.0117  -17.5428  -44.4261 H         1 UNK         0.3000 
    160 H160        4.2748  -20.2685  -44.9133 H         1 UNK         0.0600 
    161 H161        4.6567  -18.7125  -46.8370 H         1 UNK         0.0600 
    162 H162        4.3904  -17.3285  -45.7858 H         1 UNK         0.0600 
    163 H163        5.7748  -18.3897  -45.5206 H         1 UNK         0.0600 
    164 H164        4.4328  -17.8694  -43.3679 H         1 UNK         0.3000 
    165 H165        2.8110  -19.0441  -40.4322 H         1 UNK         0.0600 
    166 H166        4.9915  -18.4476  -39.4163 H         1 UNK         0.0600 
    167 H167        5.1230  -19.9788  -40.2661 H         1 UNK         0.0600 
    168 H168        5.7802  -18.5172  -40.9927 H         1 UNK         0.0600 
    169 H169        4.1716  -16.6136  -41.0016 H         1 UNK         0.3000 
    170 H170        2.6667  -14.6549  -41.0090 H         1 UNK         0.0600 
    171 H171        4.1462  -15.1409  -43.0233 H         1 UNK         0.0600 
    172 H172        2.7154  -15.2328  -44.0451 H         1 UNK         0.0600 
    173 H173        3.1746  -13.7102  -43.2916 H         1 UNK         0.0600 
    174 H174        0.2423  -15.4862  -42.2030 H         1 UNK         0.3000 
    175 H175       -1.4542  -14.2170  -42.8679 H         1 UNK         0.0600 
    176 H176       -1.5007  -12.0225  -40.7236 H         1 UNK         0.0600 
    177 H177       -2.9059  -12.8777  -41.3612 H         1 UNK         0.0600 
    178 H178       -1.6984  -13.7452  -40.4258 H         1 UNK         0.0600 
    179 H179       -1.6680  -11.3559  -43.0815 H         1 UNK         0.3000 
    180 H180       -2.0526  -10.5047  -45.1953 H         1 UNK         0.0600 
    181 H181        0.9472  -10.5993  -45.8541 H         1 UNK         0.0600 
    182 H182        0.2277   -9.7997  -44.4624 H         1 UNK         0.0600 
    183 H183       -0.1088   -9.2047  -46.0809 H         1 UNK         0.0600 
    184 H184       -0.5663  -11.5506  -47.5281 H         1 UNK         0.3000 
    185 H185       -3.4043  -12.9576  -49.0690 H         1 UNK         0.0600 
    186 H186       -2.7316  -11.5158  -50.9760 H         1 UNK         0.0600 
    187 H187       -3.6085  -10.5747  -49.7792 H         1 UNK         0.0600 
    188 H188       -1.8571  -10.4385  -49.8875 H         1 UNK         0.0600 
    189 H189       -0.5843  -12.5358  -49.7186 H         1 UNK         0.3000 
    190 H190       -2.1322  -21.5013  -45.6276 H         1 UNK         0.3000 
    191 H191       -4.6741  -22.2441  -46.5672 H         1 UNK         0.0600 
    192 H192       -3.7816  -21.6224  -43.7102 H         1 UNK         0.0600 
    193 H193       -5.4405  -21.6147  -44.2925 H         1 UNK         0.0600 
    194 H194       -4.2886  -20.4437  -44.9164 H         1 UNK         0.0600 
    195 H195       -2.5245  -23.9594  -44.2900 H         1 UNK         0.3000 
    196 H196       -4.3631  -26.0872  -43.7162 H         1 UNK         0.0600 
    197 H197       -2.3543  -27.1466  -42.6761 H         1 UNK         0.0600 
    198 H198       -2.5354  -25.4716  -42.1752 H         1 UNK         0.0600 
    199 H199       -1.3236  -25.9041  -43.3773 H         1 UNK         0.0600 
    200 H200       -1.4906  -25.8985  -45.9050 H         1 UNK         0.3000 
    201 H201       -1.8439  -28.6843  -46.6770 H         1 UNK         0.0600 
    202 H202        0.3849  -27.7168  -46.1677 H         1 UNK         0.0600 
    203 H203        0.2334  -26.6091  -47.5304 H         1 UNK         0.0600 
    204 H204        0.3212  -28.3436  -47.8082 H         1 UNK         0.0600 
    205 H205       -2.1878  -25.5143  -48.3591 H         1 UNK         0.3000 
    206 H206       -2.6562  -26.9587  -50.9406 H         1 UNK         0.0600 
    207 H207       -0.5785  -25.5627  -50.7444 H         1 UNK         0.0600 
    208 H208       -1.6823  -24.9699  -51.9725 H         1 UNK         0.0600 
    209 H209       -1.5764  -24.1462  -50.4203 H         1 UNK         0.0600 
    210 H210       -4.1241  -24.8436  -48.6596 H         1 UNK         0.3000 
    211 H211       -6.1355  -23.9283  -48.4311 H         1 UNK         0.0600 
    212 H212       -6.9815  -24.8764  -51.2165 H         1 UNK         0.0600 
    213 H213       -8.0100  -24.2140  -49.9624 H         1 UNK         0.0600 
    214 H214       -7.2291  -25.7686  -49.7159 H         1 UNK         0.0600 
    215 H215       -4.8014  -22.1332  -48.3169 H         1 UNK         0.3000 
    216 H216       -3.8322  -20.4018  -50.1521 H         1 UNK         0.0600 
    217 H217       -4.0746  -18.6629  -48.2743 H         1 UNK         0.0600 
    218 H218       -3.3292  -20.1661  -47.7899 H         1 UNK         0.0600 
    219 H219       -5.0152  -19.8433  -47.3839 H         1 UNK         0.0600 
    220 H220       -7.2474  -20.6248  -49.3339 H         1 UNK         0.3000 
    221 H221       -8.2494  -18.1902  -50.2959 H         1 UNK         0.0600 
    222 H222       -9.4836  -20.9978  -50.3833 H         1 UNK         0.0600 
    223 H223       -9.6010  -19.8528  -49.0457 H         1 UNK         0.0600 
    224 H224      -10.3733  -19.4925  -50.5809 H         1 UNK         0.0600 
    225 H225       -7.0108  -20.9374  -52.1081 H         1 UNK         0.3000 
    226 H226       -7.4739  -19.4516  -54.6740 H         1 UNK         0.0600 
    227 H227       -8.7050  -21.6110  -54.6734 H         1 UNK         0.0600 
    228 H228       -7.3499  -21.6746  -55.7905 H         1 UNK         0.0600 
    229 H229       -7.2353  -22.4759  -54.2267 H         1 UNK         0.0600 
    230 H230       -5.2286  -21.4057  -52.6606 H         1 UNK         0.3000 
    231 H231       -3.2022  -21.4319  -54.6783 H         1 UNK         0.0600 
    232 H232       -1.9884  -22.7938  -53.0085 H         1 UNK         0.0600 
    233 H233       -3.6579  -23.3190  -53.1485 H         1 UNK         0.0600 
    234 H234       -3.1463  -22.3520  -51.7637 H         1 UNK         0.0600 
    235 H235       -3.7661  -18.9834  -52.2910 H         1 UNK         0.3000 
    236 H236       -1.1584  -18.6053  -51.3190 H         1 UNK         0.0600 
    237 H237       -3.0511  -17.7445  -50.0993 H         1 UNK         0.0600 
    238 H238       -2.0948  -16.3579  -50.5500 H         1 UNK         0.0600 
    239 H239       -3.5578  -16.7182  -51.4459 H         1 UNK         0.0600 
    240 H240       -2.0902  -17.8048  -54.4793 H         1 UNK         0.3000 
    241 H241       -1.1217  -16.7354  -56.1490 H         1 UNK         0.0600 
    242 H242       -2.0058  -13.3738  -54.4173 H         1 UNK         0.3800 
    243 H243       -2.4311  -14.9714  -53.8596 H         1 UNK         0.3800 
    244 H244        1.3152  -16.2531  -56.1653 H         1 UNK         0.0800 
    245 H245        1.3962  -16.4535  -54.4388 H         1 UNK         0.0800 
    246 H246        3.0921  -19.8023  -54.9304 H         1 UNK         0.0800 
    247 H247        3.3734  -18.0894  -54.7910 H         1 UNK         0.0800 
@<TRIPOS>BOND
     1    1    2 1    
     2    1  127 1    
     3    1  128 1    
     4    1  129 1    
     5    2    3 2    
     6    2    4 am   BACKBONE|DICT|INTERRES
     7    4    5 1    
     8    4  130 1    
     9    5    6 1    
    10    5   65 1    
    11    5  131 1    
    12    6    7 1    
    13    6  132 1    
    14    6  133 1    
    15    7    8 1    
    16    8    9 1    
    17    8  134 1    
    18    8  135 1    
    19    9   10 ar   
    20    9   14 ar   
    21   10   11 ar   
    22   10  136 1    
    23   11   12 ar   
    24   11  126 1    
    25   12   13 ar   
    26   12  137 1    
    27   13   14 ar   
    28   13   15 1    
    29   14  138 1    
    30   15   16 1    
    31   15  139 1    
    32   15  140 1    
    33   16   17 1    
    34   17   18 1    
    35   17  141 1    
    36   17  142 1    
    37   18   19 1    
    38   18   67 1    
    39   18  143 1    
    40   19   20 am   BACKBONE|DICT|INTERRES
    41   19  144 1    
    42   20   21 2    
    43   20   22 1    
    44   22   23 1    
    45   22   24 1    
    46   22  145 1    
    47   23  146 1    
    48   23  147 1    
    49   23  148 1    
    50   24   25 am   BACKBONE|DICT|INTERRES
    51   24  149 1    
    52   25   26 2    
    53   25   27 1    
    54   27   28 1    
    55   27   29 1    
    56   27  150 1    
    57   28  151 1    
    58   28  152 1    
    59   28  153 1    
    60   29   30 am   BACKBONE|DICT|INTERRES
    61   29  154 1    
    62   30   31 2    
    63   30   32 1    
    64   32   33 1    
    65   32   34 1    
    66   32  155 1    
    67   33  156 1    
    68   33  157 1    
    69   33  158 1    
    70   34   35 am   BACKBONE|DICT|INTERRES
    71   34  159 1    
    72   35   36 2    
    73   35   37 1    
    74   37   38 1    
    75   37   39 1    
    76   37  160 1    
    77   38  161 1    
    78   38  162 1    
    79   38  163 1    
    80   39   40 am   BACKBONE|DICT|INTERRES
    81   39  164 1    
    82   40   41 2    
    83   40   42 1    
    84   42   43 1    
    85   42   44 1    
    86   42  165 1    
    87   43  166 1    
    88   43  167 1    
    89   43  168 1    
    90   44   45 am   BACKBONE|DICT|INTERRES
    91   44  169 1    
    92   45   46 2    
    93   45   47 1    
    94   47   48 1    
    95   47   49 1    
    96   47  170 1    
    97   48  171 1    
    98   48  172 1    
    99   48  173 1    
   100   49   50 am   BACKBONE|DICT|INTERRES
   101   49  174 1    
   102   50   51 2    
   103   50   52 1    
   104   52   53 1    
   105   52   54 1    
   106   52  175 1    
   107   53  176 1    
   108   53  177 1    
   109   53  178 1    
   110   54   55 am   BACKBONE|DICT|INTERRES
   111   54  179 1    
   112   55   56 2    
   113   55   57 1    
   114   57   58 1    
   115   57   59 1    
   116   57  180 1    
   117   58  181 1    
   118   58  182 1    
   119   58  183 1    
   120   59   60 am   BACKBONE|DICT|INTERRES
   121   59  184 1    
   122   60   61 2    
   123   60   62 1    
   124   62   63 1    
   125   62   64 1    
   126   62  185 1    
   127   63  186 1    
   128   63  187 1    
   129   63  188 1    
   130   64   65 am   BACKBONE|DICT|INTERRES
   131   64  189 1    
   132   65   66 2    
   133   67   68 2    
   134   67   69 am   BACKBONE|DICT|INTERRES
   135   69   70 1    
   136   69  190 1    
   137   70   71 1    
   138   70   72 1    
   139   70  191 1    
   140   71  192 1    
   141   71  193 1    
   142   71  194 1    
   143   72   73 2    
   144   72   74 am   BACKBONE|DICT|INTERRES
   145   74   75 1    
   146   74  195 1    
   147   75   76 1    
   148   75   77 1    
   149   75  196 1    
   150   76  197 1    
   151   76  198 1    
   152   76  199 1    
   153   77   78 2    
   154   77   79 am   BACKBONE|DICT|INTERRES
   155   79   80 1    
   156   79  200 1    
   157   80   81 1    
   158   80   82 1    
   159   80  201 1    
   160   81  202 1    
   161   81  203 1    
   162   81  204 1    
   163   82   83 2    
   164   82   84 am   BACKBONE|DICT|INTERRES
   165   84   85 1    
   166   84  205 1    
   167   85   86 1    
   168   85   87 1    
   169   85  206 1    
   170   86  207 1    
   171   86  208 1    
   172   86  209 1    
   173   87   88 2    
   174   87   89 am   BACKBONE|DICT|INTERRES
   175   89   90 1    
   176   89  210 1    
   177   90   91 1    
   178   90   92 1    
   179   90  211 1    
   180   91  212 1    
   181   91  213 1    
   182   91  214 1    
   183   92   93 2    
   184   92   94 am   BACKBONE|DICT|INTERRES
   185   94   95 1    
   186   94  215 1    
   187   95   96 1    
   188   95   97 1    
   189   95  216 1    
   190   96  217 1    
   191   96  218 1    
   192   96  219 1    
   193   97   98 2    
   194   97   99 am   BACKBONE|DICT|INTERRES
   195   99  100 1    
   196   99  220 1    
   197  100  101 1    
   198  100  102 1    
   199  100  221 1    
   200  101  222 1    
   201  101  223 1    
   202  101  224 1    
   203  102  103 2    
   204  102  104 am   BACKBONE|DICT|INTERRES
   205  104  105 1    
   206  104  225 1    
   207  105  106 1    
   208  105  107 1    
   209  105  226 1    
   210  106  227 1    
   211  106  228 1    
   212  106  229 1    
   213  107  108 2    
   214  107  109 am   BACKBONE|DICT|INTERRES
   215  109  110 1    
   216  109  230 1    
   217  110  111 1    
   218  110  112 1    
   219  110  231 1    
   220  111  232 1    
   221  111  233 1    
   222  111  234 1    
   223  112  113 2    
   224  112  114 am   BACKBONE|DICT|INTERRES
   225  114  115 1    
   226  114  235 1    
   227  115  116 1    
   228  115  117 1    
   229  115  236 1    
   230  116  237 1    
   231  116  238 1    
   232  116  239 1    
   233  117  118 2    
   234  117  119 am   BACKBONE|DICT|INTERRES
   235  119  120 1    
   236  119  240 1    
   237  120  121 1    
   238  120  124 1    
   239  120  241 1    
   240  121  122 am   BACKBONE|DICT|INTERRES
   241  121  123 2    
   242  122  242 1    
   243  122  243 1    
   244  124  125 1    
   245  124  244 1    
   246  124  245 1    
   247  125  126 1    
   248  126  246 1    
   249  126  247 1    
@<TRIPOS>SUBSTRUCTURE
     1 UNK         1 GROUP             0       ****    0 ROOT    
