@<TRIPOS>MOLECULE
3R540
247   249    1
SMALL
USER_CHARGES


@<TRIPOS>ATOM
      1 CA          1.2518  -14.1950  -49.4721 C.3       0 UNK        -0.1800 
      2 C           1.0784  -14.5681  -48.0077 C.2       0 UNK         0.5000 
      3 O           2.0670  -14.6993  -47.2848 O.2       0 UNK        -0.5000 
      4 N          -0.1751  -14.7208  -47.5617 N.am      1 UNK        -0.5000 
      5 CA         -0.5510  -15.2028  -46.2243 C.3       1 UNK         0.1400 
      6 C6         -2.0760  -15.4927  -46.1271 C.3       23 UNK        -0.0398 
      7 S7         -2.4101  -17.2146  -45.6318 S.3       23 UNK        -0.2404 
      8 C8         -2.7809  -17.9813  -47.2472 C.3       23 UNK        -0.0205 
      9 C9         -1.6230  -17.8966  -48.2360 C.ar      23 UNK        -0.0193 
     10 C10        -1.8363  -17.3844  -49.5197 C.ar      23 UNK        -0.1150 
     11 C11        -0.7837  -17.3030  -50.4359 C.ar      23 UNK        -0.0193 
     12 C12         0.4916  -17.7279  -50.0563 C.ar      23 UNK        -0.1150 
     13 C13         0.7248  -18.2259  -48.7723 C.ar      23 UNK        -0.0193 
     14 C14        -0.3415  -18.3247  -47.8729 C.ar      23 UNK        -0.1150 
     15 C15         2.1396  -18.5999  -48.3554 C.3       23 UNK        -0.0205 
     16 S16         2.3986  -20.4009  -48.2996 S.3       23 UNK        -0.2404 
     17 C17         2.0960  -20.7237  -46.5321 C.3       23 UNK        -0.0398 
     18 CA          1.4880  -22.1110  -46.2289 C.3       11 UNK         0.1400 
     19 N           1.5329  -22.3886  -44.7939 N.am      11 UNK        -0.5000 
     20 C           1.5893  -23.6088  -44.2460 C.2       10 UNK         0.5000 
     21 O           1.7082  -24.6458  -44.8978 O.2       10 UNK        -0.5000 
     22 CA          1.4814  -23.6843  -42.7091 C.3       10 UNK         0.1400 
     23 CB          2.8793  -23.7355  -42.0746 C.3       10 UNK        -0.1800 
     24 N           0.7340  -22.5652  -42.1275 N.am      10 UNK        -0.5000 
     25 C          -0.5844  -22.3746  -42.2772 C.2       9 UNK         0.5000 
     26 O          -1.3162  -23.1499  -42.8908 O.2       9 UNK        -0.5000 
     27 CA         -1.1726  -21.0750  -41.6918 C.3       9 UNK         0.1400 
     28 CB         -1.5978  -21.2849  -40.2315 C.3       9 UNK        -0.1800 
     29 N          -0.2666  -19.9250  -41.7688 N.am      9 UNK        -0.5000 
     30 C           0.2545  -19.4135  -42.8906 C.2       8 UNK         0.5000 
     31 O           0.0378  -19.8852  -44.0077 O.2       8 UNK        -0.5000 
     32 CA          1.1943  -18.2006  -42.7234 C.3       8 UNK         0.1400 
     33 CB          1.8886  -17.8025  -44.0369 C.3       8 UNK        -0.1800 
     34 N           0.5229  -17.0217  -42.1716 N.am      8 UNK        -0.5000 
     35 C           0.1457  -16.8676  -40.8975 C.2       7 UNK         0.5000 
     36 O           0.2938  -17.7336  -40.0323 O.2       7 UNK        -0.5000 
     37 CA         -0.3876  -15.4849  -40.5076 C.3       7 UNK         0.1400 
     38 CB         -1.4081  -15.5418  -39.3545 C.3       7 UNK        -0.1800 
     39 N           0.7770  -14.7033  -40.1193 N.am      7 UNK        -0.5000 
     40 C           0.8754  -13.3703  -40.1134 C.2       6 UNK         0.5000 
     41 O          -0.0611  -12.6065  -40.3501 O.2       6 UNK        -0.5000 
     42 CA          2.2787  -12.7979  -39.8166 C.3       6 UNK         0.1400 
     43 CB          2.4610  -12.5682  -38.3085 C.3       6 UNK        -0.1800 
     44 N           3.3664  -13.6535  -40.3118 N.am      6 UNK        -0.5000 
     45 C           3.5766  -13.9080  -41.6101 C.2       5 UNK         0.5000 
     46 O           2.9130  -13.3934  -42.5124 O.2       5 UNK        -0.5000 
     47 CA          4.6822  -14.9145  -41.9689 C.3       5 UNK         0.1400 
     48 CB          4.4216  -16.2959  -41.3378 C.3       5 UNK        -0.1800 
     49 N           4.6995  -15.0117  -43.4228 N.am      5 UNK        -0.5000 
     50 C           5.6546  -15.5155  -44.2069 C.2       4 UNK         0.5000 
     51 O           6.6726  -16.0662  -43.7861 O.2       4 UNK        -0.5000 
     52 CA          5.4401  -15.3538  -45.7259 C.3       4 UNK         0.1400 
     53 CB          4.8069  -16.6193  -46.3243 C.3       4 UNK        -0.1800 
     54 N           4.6053  -14.1985  -46.0735 N.am      4 UNK        -0.5000 
     55 C           4.9892  -12.9183  -45.9559 C.2       3 UNK         0.5000 
     56 O           6.0981  -12.5745  -45.5448 O.2       3 UNK        -0.5000 
     57 CA          3.9678  -11.8410  -46.3532 C.3       3 UNK         0.1400 
     58 CB          3.9102  -11.6922  -47.8819 C.3       3 UNK        -0.1800 
     59 N           2.6334  -12.1619  -45.8433 N.am      3 UNK        -0.5000 
     60 C           2.0041  -11.4908  -44.8662 C.2       2 UNK         0.5000 
     61 O           2.4835  -10.5020  -44.3082 O.2       2 UNK        -0.5000 
     62 CA          0.5972  -11.9757  -44.4503 C.3       2 UNK         0.1400 
     63 CB         -0.4057  -10.8092  -44.4170 C.3       2 UNK        -0.1800 
     64 N           0.0806  -12.9993  -45.3586 N.am      2 UNK        -0.5000 
     65 C          -0.0715  -14.2975  -45.0690 C.2       1 UNK         0.5000 
     66 O           0.1558  -14.7955  -43.9656 O.2       1 UNK        -0.5000 
     67 C           0.0411  -22.2624  -46.7423 C.2       11 UNK         0.5000 
     68 O          -0.1724  -22.8930  -47.7772 O.2       11 UNK        -0.5000 
     69 N          -0.9354  -21.7535  -45.9732 N.am      12 UNK        -0.5000 
     70 CA         -2.3729  -21.8863  -46.2343 C.3       12 UNK         0.1400 
     71 CB         -3.1617  -21.1352  -45.1510 C.3       12 UNK        -0.1800 
     72 C          -2.8448  -23.3513  -46.3143 C.2       12 UNK         0.5000 
     73 O          -3.7043  -23.6708  -47.1365 O.2       12 UNK        -0.5000 
     74 N          -2.2283  -24.2229  -45.5030 N.am      13 UNK        -0.5000 
     75 CA         -2.4367  -25.6726  -45.4673 C.3       13 UNK         0.1400 
     76 CB         -1.6144  -26.2658  -44.3128 C.3       13 UNK        -0.1800 
     77 C          -2.1242  -26.4101  -46.7881 C.2       13 UNK         0.5000 
     78 O          -2.5817  -27.5409  -46.9580 O.2       13 UNK        -0.5000 
     79 N          -1.3912  -25.7691  -47.7128 N.am      14 UNK        -0.5000 
     80 CA         -1.1715  -26.2586  -49.0774 C.3       14 UNK         0.1400 
     81 CB          0.0146  -25.5076  -49.7025 C.3       14 UNK        -0.1800 
     82 C          -2.4213  -26.1363  -49.9775 C.2       14 UNK         0.5000 
     83 O          -2.4303  -26.7178  -51.0629 O.2       14 UNK        -0.5000 
     84 N          -3.4423  -25.3920  -49.5195 N.am      15 UNK        -0.5000 
     85 CA         -4.7384  -25.1590  -50.1636 C.3       15 UNK         0.1400 
     86 CB         -5.5268  -26.4762  -50.3160 C.3       15 UNK        -0.1800 
     87 C          -4.6228  -24.3612  -51.4777 C.2       15 UNK         0.5000 
     88 O          -5.3788  -24.6006  -52.4205 O.2       15 UNK        -0.5000 
     89 N          -3.6930  -23.3952  -51.5058 N.am      16 UNK        -0.5000 
     90 CA         -3.4013  -22.5324  -52.6546 C.3       16 UNK         0.1400 
     91 CB         -2.1954  -21.6437  -52.3200 C.3       16 UNK        -0.1800 
     92 C          -4.5955  -21.6714  -53.1118 C.2       16 UNK         0.5000 
     93 O          -4.7048  -21.3615  -54.2991 O.2       16 UNK        -0.5000 
     94 N          -5.4795  -21.3117  -52.1714 N.am      17 UNK        -0.5000 
     95 CA         -6.7255  -20.5961  -52.4431 C.3       17 UNK         0.1400 
     96 CB         -7.2959  -20.0440  -51.1291 C.3       17 UNK        -0.1800 
     97 C          -7.7595  -21.4745  -53.1712 C.2       17 UNK         0.5000 
     98 O          -8.4036  -21.0015  -54.1070 O.2       17 UNK        -0.5000 
     99 N          -7.8693  -22.7471  -52.7621 N.am      18 UNK        -0.5000 
    100 CA        -8.7451  -23.7460  -53.3834 C.3       18 UNK         0.1400 
    101 CB        -8.9057  -24.9477  -52.4411 C.3       18 UNK        -0.1800 
    102 C         -8.2245  -24.1986  -54.7597 C.2       18 UNK         0.5000 
    103 O         -9.0232  -24.4579  -55.6600 O.2       18 UNK        -0.5000 
    104 N         -6.8930  -24.2353  -54.9094 N.am      19 UNK        -0.5000 
    105 CA        -6.1852  -24.4760  -56.1694 C.3       19 UNK         0.1400 
    106 CB        -4.7178  -24.8037  -55.8520 C.3       19 UNK        -0.1800 
    107 C         -6.2685  -23.2946  -57.1617 C.2       19 UNK         0.5000 
    108 O         -5.8528  -23.4491  -58.3105 O.2       19 UNK        -0.5000 
    109 N         -6.7852  -22.1442  -56.7019 N.am      20 UNK        -0.5000 
    110 CA        -6.9658  -20.8801  -57.4225 C.3       20 UNK         0.1400 
    111 CB        -7.9036  -21.0528  -58.6357 C.3       20 UNK        -0.1800 
    112 C         -5.6423  -20.1713  -57.7796 C.2       20 UNK         0.5000 
    113 O         -5.6286  -19.3121  -58.6624 O.2       20 UNK        -0.5000 
    114 N         -4.5618  -20.5055  -57.0626 N.am      21 UNK        -0.5000 
    115 CA        -3.2696  -19.8252  -57.1412 C.3       21 UNK         0.1400 
    116 CB        -2.1622  -20.7905  -56.6899 C.3       21 UNK        -0.1800 
    117 C         -3.2649  -18.5489  -56.2809 C.2       21 UNK         0.5000 
    118 O         -2.6820  -17.5426  -56.6863 O.2       21 UNK        -0.5000 
    119 N         -3.9370  -18.6187  -55.1255 N.am      22 UNK        -0.5000 
    120 CA        -4.0923  -17.5315  -54.1439 C.3       22 UNK         0.1400 
    121 C         -5.5767  -17.0985  -53.9581 C.2       22 UNK         0.5000 
    122 N         -6.4957  -17.4936  -54.8310 N.am      22 UNK        -0.7600 
    123 O         -5.9053  -16.3811  -53.0179 O.2       22 UNK        -0.5000 
    124 C124       -3.4109  -17.8907  -52.7964 C.3       23 UNK        -0.0398 
    125 S125       -1.5980  -18.0275  -52.9740 S.3       23 UNK        -0.2404 
    126 C126       -1.0071  -16.7414  -51.8312 C.3       23 UNK        -0.0205 
    127 H127        1.5674  -13.1562  -49.5628 H         1 UNK         0.0600 
    128 H128        0.3250  -14.3218  -50.0319 H         1 UNK         0.0600 
    129 H129        2.0115  -14.8277  -49.9310 H         1 UNK         0.0600 
    130 H130       -0.9386  -14.5905  -48.2091 H         1 UNK         0.3000 
    131 H131       -0.0027  -16.1367  -46.1007 H         1 UNK         0.0600 
    132 H132       -2.5790  -15.3018  -47.0760 H         1 UNK         0.0800 
    133 H133       -2.5788  -14.8377  -45.4126 H         1 UNK         0.0800 
    134 H134       -3.6763  -17.5120  -47.6575 H         1 UNK         0.0800 
    135 H135       -3.0321  -19.0296  -47.0966 H         1 UNK         0.0800 
    136 H136       -2.8223  -17.0496  -49.8072 H         1 UNK         0.1150 
    137 H137        1.3097  -17.6529  -50.7588 H         1 UNK         0.1150 
    138 H138       -0.1783  -18.7047  -46.8758 H         1 UNK         0.1150 
    139 H139        2.3671  -18.1492  -47.3888 H         1 UNK         0.0800 
    140 H140        2.8609  -18.1730  -49.0538 H         1 UNK         0.0800 
    141 H141        1.4707  -19.9378  -46.1159 H         1 UNK         0.0800 
    142 H142        3.0589  -20.6312  -46.0279 H         1 UNK         0.0800 
    143 H143        2.0983  -22.8576  -46.7422 H         1 UNK         0.0600 
    144 H144        1.3730  -21.5969  -44.1861 H         1 UNK         0.3000 
    145 H145        0.9579  -24.6103  -42.4612 H         1 UNK         0.0600 
    146 H146        3.4555  -24.5746  -42.4667 H         1 UNK         0.0600 
    147 H147        2.8175  -23.8628  -40.9937 H         1 UNK         0.0600 
    148 H148        3.4465  -22.8256  -42.2749 H         1 UNK         0.0600 
    149 H149        1.2626  -21.8838  -41.6030 H         1 UNK         0.3000 
    150 H150       -2.0627  -20.8257  -42.2712 H         1 UNK         0.0600 
    151 H151       -0.7424  -21.5014  -39.5904 H         1 UNK         0.0600 
    152 H152       -2.2954  -22.1190  -40.1433 H         1 UNK         0.0600 
    153 H153       -2.0979  -20.4005  -39.8359 H         1 UNK         0.0600 
    154 H154       -0.0668  -19.4366  -40.9006 H         1 UNK         0.3000 
    155 H155        1.9752  -18.5040  -42.0235 H         1 UNK         0.0600 
    156 H156        1.1685  -17.6011  -44.8287 H         1 UNK         0.0600 
    157 H157        2.5496  -18.5966  -44.3838 H         1 UNK         0.0600 
    158 H158        2.4979  -16.9085  -43.9067 H         1 UNK         0.0600 
    159 H159        0.3808  -16.2453  -42.8158 H         1 UNK         0.3000 
    160 H160       -0.8617  -15.0315  -41.3809 H         1 UNK         0.0600 
    161 H161       -0.9631  -15.9330  -38.4388 H         1 UNK         0.0600 
    162 H162       -2.2507  -16.1841  -39.6131 H         1 UNK         0.0600 
    163 H163       -1.8095  -14.5529  -39.1332 H         1 UNK         0.0600 
    164 H164        1.6072  -15.2440  -39.9216 H         1 UNK         0.3000 
    165 H165        2.3529  -11.8317  -40.3205 H         1 UNK         0.0600 
    166 H166        1.6786  -11.9172  -37.9160 H         1 UNK         0.0600 
    167 H167        2.4198  -13.5042  -37.7500 H         1 UNK         0.0600 
    168 H168        3.4172  -12.0902  -38.0947 H         1 UNK         0.0600 
    169 H169        3.9536  -14.0919  -39.6170 H         1 UNK         0.3000 
    170 H170        5.6398  -14.5185  -41.6258 H         1 UNK         0.0600 
    171 H171        3.4314  -16.6687  -41.5941 H         1 UNK         0.0600 
    172 H172        4.4839  -16.2519  -40.2503 H         1 UNK         0.0600 
    173 H173        5.1522  -17.0339  -41.6687 H         1 UNK         0.0600 
    174 H174        3.9223  -14.5236  -43.8539 H         1 UNK         0.3000 
    175 H175        6.4225  -15.2164  -46.1826 H         1 UNK         0.0600 
    176 H176        5.3879  -17.5082  -46.0754 H         1 UNK         0.0600 
    177 H177        3.7939  -16.7710  -45.9534 H         1 UNK         0.0600 
    178 H178        4.7554  -16.5568  -47.4115 H         1 UNK         0.0600 
    179 H179        3.6875  -14.4070  -46.4602 H         1 UNK         0.3000 
    180 H180        4.3163  -10.8912  -45.9425 H         1 UNK         0.0600 
    181 H181        3.6395  -12.6276  -48.3713 H         1 UNK         0.0600 
    182 H182        4.8792  -11.3865  -48.2783 H         1 UNK         0.0600 
    183 H183        3.1839  -10.9350  -48.1778 H         1 UNK         0.0600 
    184 H184        2.1982  -12.9959  -46.2199 H         1 UNK         0.3000 
    185 H185        0.6789  -12.3738  -43.4373 H         1 UNK         0.0600 
    186 H186       -0.0969  -10.0445  -43.7032 H         1 UNK         0.0600 
    187 H187       -0.5002  -10.3313  -45.3928 H         1 UNK         0.0600 
    188 H188       -1.3952  -11.1509  -44.1127 H         1 UNK         0.0600 
    189 H189       -0.1302  -12.6954  -46.2986 H         1 UNK         0.3000 
    190 H190       -0.6727  -21.2075  -45.1573 H         1 UNK         0.3000 
    191 H191       -2.5698  -21.4167  -47.1997 H         1 UNK         0.0600 
    192 H192       -2.7555  -20.1402  -44.9723 H         1 UNK         0.0600 
    193 H193       -4.2050  -21.0170  -45.4454 H         1 UNK         0.0600 
    194 H194       -3.1527  -21.6703  -44.2020 H         1 UNK         0.0600 
    195 H195       -1.5928  -23.8474  -44.8074 H         1 UNK         0.3000 
    196 H196       -3.4937  -25.8410  -45.2525 H         1 UNK         0.0600 
    197 H197       -1.7755  -27.3412  -44.2277 H         1 UNK         0.0600 
    198 H198       -1.8948  -25.8214  -43.3578 H         1 UNK         0.0600 
    199 H199       -0.5462  -26.1050  -44.4581 H         1 UNK         0.0600 
    200 H200       -1.0443  -24.8382  -47.5099 H         1 UNK         0.3000 
    201 H201       -0.9089  -27.3171  -49.0227 H         1 UNK         0.0600 
    202 H202        0.2912  -25.9479  -50.6612 H         1 UNK         0.0600 
    203 H203        0.8946  -25.5472  -49.0602 H         1 UNK         0.0600 
    204 H204       -0.2234  -24.4594  -49.8850 H         1 UNK         0.0600 
    205 H205       -3.3308  -24.9327  -48.6205 H         1 UNK         0.3000 
    206 H206       -5.3003  -24.5241  -49.4773 H         1 UNK         0.0600 
    207 H207       -5.5529  -27.0310  -49.3780 H         1 UNK         0.0600 
    208 H208       -6.5597  -26.2816  -50.6026 H         1 UNK         0.0600 
    209 H209       -5.0932  -27.1245  -51.0780 H         1 UNK         0.0600 
    210 H210       -3.1145  -23.2699  -50.6880 H         1 UNK         0.3000 
    211 H211       -3.1240  -23.1789  -53.4884 H         1 UNK         0.0600 
    212 H212       -1.9165  -21.0292  -53.1765 H         1 UNK         0.0600 
    213 H213       -1.3230  -22.2421  -52.0565 H         1 UNK         0.0600 
    214 H214       -2.4049  -20.9710  -51.4871 H         1 UNK         0.0600 
    215 H215       -5.3091  -21.5938  -51.2177 H         1 UNK         0.3000 
    216 H216       -6.4986  -19.7504  -53.0930 H         1 UNK         0.0600 
    217 H217       -6.5945  -19.3573  -50.6546 H         1 UNK         0.0600 
    218 H218       -7.5211  -20.8402  -50.4185 H         1 UNK         0.0600 
    219 H219       -8.2191  -19.4910  -51.3075 H         1 UNK         0.0600 
    220 H220       -7.2603  -23.0775  -52.0283 H         1 UNK         0.3000 
    221 H221       -9.7290  -23.2949  -53.5289 H         1 UNK         0.0600 
    222 H222       -7.9629  -25.4749  -52.2991 H         1 UNK         0.0600 
    223 H223       -9.2724  -24.6392  -51.4620 H         1 UNK         0.0600 
    224 H224       -9.6212  -25.6645  -52.8458 H         1 UNK         0.0600 
    225 H225       -6.3162  -24.0959  -54.0851 H         1 UNK         0.3000 
    226 H226       -6.6351  -25.3450  -56.6535 H         1 UNK         0.0600 
    227 H227       -4.6382  -25.6270  -55.1417 H         1 UNK         0.0600 
    228 H228       -4.1790  -25.0981  -56.7535 H         1 UNK         0.0600 
    229 H229       -4.1999  -23.9431  -55.4297 H         1 UNK         0.0600 
    230 H230       -7.0830  -22.1276  -55.7358 H         1 UNK         0.3000 
    231 H231       -7.4711  -20.2166  -56.7194 H         1 UNK         0.0600 
    232 H232       -7.4360  -21.6308  -59.4330 H         1 UNK         0.0600 
    233 H233       -8.1808  -20.0855  -59.0562 H         1 UNK         0.0600 
    234 H234       -8.8271  -21.5571  -58.3511 H         1 UNK         0.0600 
    235 H235       -4.6736  -21.1732  -56.3073 H         1 UNK         0.3000 
    236 H236       -3.0718  -19.5404  -58.1768 H         1 UNK         0.0600 
    237 H237       -2.3036  -21.1168  -55.6593 H         1 UNK         0.0600 
    238 H238       -2.1344  -21.6791  -57.3206 H         1 UNK         0.0600 
    239 H239       -1.1824  -20.3153  -56.7517 H         1 UNK         0.0600 
    240 H240       -4.3618  -19.5052  -54.8750 H         1 UNK         0.3000 
    241 H241       -3.6035  -16.6323  -54.5226 H         1 UNK         0.0600 
    242 H242       -6.2319  -18.0276  -55.6415 H         1 UNK         0.3800 
    243 H243       -7.4518  -17.1982  -54.7102 H         1 UNK         0.3800 
    244 H244       -3.6365  -17.1410  -52.0379 H         1 UNK         0.0800 
    245 H245       -3.7979  -18.8326  -52.4076 H         1 UNK         0.0800 
    246 H246       -0.0709  -16.3386  -52.2208 H         1 UNK         0.0800 
    247 H247       -1.7008  -15.9001  -51.8008 H         1 UNK         0.0800 
@<TRIPOS>BOND
     1    1    2 1    
     2    1  127 1    
     3    1  128 1    
     4    1  129 1    
     5    2    3 2    
     6    2    4 am   BACKBONE|DICT|INTERRES
     7    4    5 1    
     8    4  130 1    
     9    5    6 1    
    10    5   65 1    
    11    5  131 1    
    12    6    7 1    
    13    6  132 1    
    14    6  133 1    
    15    7    8 1    
    16    8    9 1    
    17    8  134 1    
    18    8  135 1    
    19    9   10 ar   
    20    9   14 ar   
    21   10   11 ar   
    22   10  136 1    
    23   11   12 ar   
    24   11  126 1    
    25   12   13 ar   
    26   12  137 1    
    27   13   14 ar   
    28   13   15 1    
    29   14  138 1    
    30   15   16 1    
    31   15  139 1    
    32   15  140 1    
    33   16   17 1    
    34   17   18 1    
    35   17  141 1    
    36   17  142 1    
    37   18   19 1    
    38   18   67 1    
    39   18  143 1    
    40   19   20 am   BACKBONE|DICT|INTERRES
    41   19  144 1    
    42   20   21 2    
    43   20   22 1    
    44   22   23 1    
    45   22   24 1    
    46   22  145 1    
    47   23  146 1    
    48   23  147 1    
    49   23  148 1    
    50   24   25 am   BACKBONE|DICT|INTERRES
    51   24  149 1    
    52   25   26 2    
    53   25   27 1    
    54   27   28 1    
    55   27   29 1    
    56   27  150 1    
    57   28  151 1    
    58   28  152 1    
    59   28  153 1    
    60   29   30 am   BACKBONE|DICT|INTERRES
    61   29  154 1    
    62   30   31 2    
    63   30   32 1    
    64   32   33 1    
    65   32   34 1    
    66   32  155 1    
    67   33  156 1    
    68   33  157 1    
    69   33  158 1    
    70   34   35 am   BACKBONE|DICT|INTERRES
    71   34  159 1    
    72   35   36 2    
    73   35   37 1    
    74   37   38 1    
    75   37   39 1    
    76   37  160 1    
    77   38  161 1    
    78   38  162 1    
    79   38  163 1    
    80   39   40 am   BACKBONE|DICT|INTERRES
    81   39  164 1    
    82   40   41 2    
    83   40   42 1    
    84   42   43 1    
    85   42   44 1    
    86   42  165 1    
    87   43  166 1    
    88   43  167 1    
    89   43  168 1    
    90   44   45 am   BACKBONE|DICT|INTERRES
    91   44  169 1    
    92   45   46 2    
    93   45   47 1    
    94   47   48 1    
    95   47   49 1    
    96   47  170 1    
    97   48  171 1    
    98   48  172 1    
    99   48  173 1    
   100   49   50 am   BACKBONE|DICT|INTERRES
   101   49  174 1    
   102   50   51 2    
   103   50   52 1    
   104   52   53 1    
   105   52   54 1    
   106   52  175 1    
   107   53  176 1    
   108   53  177 1    
   109   53  178 1    
   110   54   55 am   BACKBONE|DICT|INTERRES
   111   54  179 1    
   112   55   56 2    
   113   55   57 1    
   114   57   58 1    
   115   57   59 1    
   116   57  180 1    
   117   58  181 1    
   118   58  182 1    
   119   58  183 1    
   120   59   60 am   BACKBONE|DICT|INTERRES
   121   59  184 1    
   122   60   61 2    
   123   60   62 1    
   124   62   63 1    
   125   62   64 1    
   126   62  185 1    
   127   63  186 1    
   128   63  187 1    
   129   63  188 1    
   130   64   65 am   BACKBONE|DICT|INTERRES
   131   64  189 1    
   132   65   66 2    
   133   67   68 2    
   134   67   69 am   BACKBONE|DICT|INTERRES
   135   69   70 1    
   136   69  190 1    
   137   70   71 1    
   138   70   72 1    
   139   70  191 1    
   140   71  192 1    
   141   71  193 1    
   142   71  194 1    
   143   72   73 2    
   144   72   74 am   BACKBONE|DICT|INTERRES
   145   74   75 1    
   146   74  195 1    
   147   75   76 1    
   148   75   77 1    
   149   75  196 1    
   150   76  197 1    
   151   76  198 1    
   152   76  199 1    
   153   77   78 2    
   154   77   79 am   BACKBONE|DICT|INTERRES
   155   79   80 1    
   156   79  200 1    
   157   80   81 1    
   158   80   82 1    
   159   80  201 1    
   160   81  202 1    
   161   81  203 1    
   162   81  204 1    
   163   82   83 2    
   164   82   84 am   BACKBONE|DICT|INTERRES
   165   84   85 1    
   166   84  205 1    
   167   85   86 1    
   168   85   87 1    
   169   85  206 1    
   170   86  207 1    
   171   86  208 1    
   172   86  209 1    
   173   87   88 2    
   174   87   89 am   BACKBONE|DICT|INTERRES
   175   89   90 1    
   176   89  210 1    
   177   90   91 1    
   178   90   92 1    
   179   90  211 1    
   180   91  212 1    
   181   91  213 1    
   182   91  214 1    
   183   92   93 2    
   184   92   94 am   BACKBONE|DICT|INTERRES
   185   94   95 1    
   186   94  215 1    
   187   95   96 1    
   188   95   97 1    
   189   95  216 1    
   190   96  217 1    
   191   96  218 1    
   192   96  219 1    
   193   97   98 2    
   194   97   99 am   BACKBONE|DICT|INTERRES
   195   99  100 1    
   196   99  220 1    
   197  100  101 1    
   198  100  102 1    
   199  100  221 1    
   200  101  222 1    
   201  101  223 1    
   202  101  224 1    
   203  102  103 2    
   204  102  104 am   BACKBONE|DICT|INTERRES
   205  104  105 1    
   206  104  225 1    
   207  105  106 1    
   208  105  107 1    
   209  105  226 1    
   210  106  227 1    
   211  106  228 1    
   212  106  229 1    
   213  107  108 2    
   214  107  109 am   BACKBONE|DICT|INTERRES
   215  109  110 1    
   216  109  230 1    
   217  110  111 1    
   218  110  112 1    
   219  110  231 1    
   220  111  232 1    
   221  111  233 1    
   222  111  234 1    
   223  112  113 2    
   224  112  114 am   BACKBONE|DICT|INTERRES
   225  114  115 1    
   226  114  235 1    
   227  115  116 1    
   228  115  117 1    
   229  115  236 1    
   230  116  237 1    
   231  116  238 1    
   232  116  239 1    
   233  117  118 2    
   234  117  119 am   BACKBONE|DICT|INTERRES
   235  119  120 1    
   236  119  240 1    
   237  120  121 1    
   238  120  124 1    
   239  120  241 1    
   240  121  122 am   BACKBONE|DICT|INTERRES
   241  121  123 2    
   242  122  242 1    
   243  122  243 1    
   244  124  125 1    
   245  124  244 1    
   246  124  245 1    
   247  125  126 1    
   248  126  246 1    
   249  126  247 1    
@<TRIPOS>SUBSTRUCTURE
     1 UNK         1 GROUP             0       ****    0 ROOT    
