@<TRIPOS>MOLECULE
3R540
247   249    1
SMALL
USER_CHARGES


@<TRIPOS>ATOM
      1 CA         -1.9056  -12.6519  -43.3842 C.3       0 UNK        -0.1800 
      2 C          -1.2767  -12.5283  -44.7649 C.2       0 UNK         0.5000 
      3 O          -0.3856  -13.3047  -45.0903 O.2       0 UNK        -0.5000 
      4 N          -1.7389  -11.5603  -45.5664 N.am      1 UNK        -0.5000 
      5 CA         -1.2607  -11.2206  -46.9146 C.3       1 UNK         0.1400 
      6 C6         -1.5050  -12.3547  -47.9688 C.3       23 UNK        -0.0398 
      7 S7         -0.0804  -13.3839  -48.4944 S.3       23 UNK        -0.2404 
      8 C8         -0.4093  -14.9934  -47.7042 C.3       23 UNK        -0.0205 
      9 C9         -0.5176  -16.1214  -48.7210 C.ar      23 UNK        -0.0193 
     10 C10         0.5883  -16.4704  -49.5009 C.ar      23 UNK        -0.1150 
     11 C11         0.5237  -17.5239  -50.4153 C.ar      23 UNK        -0.0193 
     12 C12        -0.6743  -18.2361  -50.5405 C.ar      23 UNK        -0.1150 
     13 C13        -1.7869  -17.9135  -49.7567 C.ar      23 UNK        -0.0193 
     14 C14        -1.7048  -16.8472  -48.8553 C.ar      23 UNK        -0.1150 
     15 C15        -3.0650  -18.7408  -49.8531 C.3       23 UNK        -0.0205 
     16 S16        -2.7619  -20.5361  -49.7037 S.3       23 UNK        -0.2404 
     17 C17        -1.8687  -20.5854  -48.1147 C.3       23 UNK        -0.0398 
     18 CA         -1.4979  -22.0123  -47.6501 C.3       11 UNK         0.1400 
     19 N          -0.3625  -21.9939  -46.7241 N.am      11 UNK        -0.5000 
     20 C           0.2642  -23.0732  -46.2364 C.2       10 UNK         0.5000 
     21 O          -0.0137  -24.2280  -46.5548 O.2       10 UNK        -0.5000 
     22 CA          1.3396  -22.8238  -45.1629 C.3       10 UNK         0.1400 
     23 CB          2.6727  -22.4043  -45.7991 C.3       10 UNK        -0.1800 
     24 N           0.9170  -21.8242  -44.1802 N.am      10 UNK        -0.5000 
     25 C          -0.1209  -21.9866  -43.3460 C.2       9 UNK         0.5000 
     26 O          -0.7797  -23.0242  -43.2715 O.2       9 UNK        -0.5000 
     27 CA         -0.5238  -20.7729  -42.4897 C.3       9 UNK         0.1400 
     28 CB          0.3700  -20.6617  -41.2459 C.3       9 UNK        -0.1800 
     29 N          -0.4830  -19.5167  -43.2390 N.am      9 UNK        -0.5000 
     30 C          -1.2585  -19.2285  -44.2939 C.2       8 UNK         0.5000 
     31 O          -2.1374  -19.9767  -44.7182 O.2       8 UNK        -0.5000 
     32 CA         -0.9679  -17.9097  -45.0342 C.3       8 UNK         0.1400 
     33 CB         -1.6336  -16.7247  -44.3212 C.3       8 UNK        -0.1800 
     34 N           0.4676  -17.6643  -45.1885 N.am      8 UNK        -0.5000 
     35 C           1.2862  -18.4434  -45.9114 C.2       7 UNK         0.5000 
     36 O           0.9042  -19.4171  -46.5579 O.2       7 UNK        -0.5000 
     37 CA          2.7880  -18.1241  -45.8550 C.3       7 UNK         0.1400 
     38 CB          3.1636  -17.0558  -46.8886 C.3       7 UNK        -0.1800 
     39 N           3.1921  -17.6860  -44.5208 N.am      7 UNK        -0.5000 
     40 C           3.3356  -18.5136  -43.4759 C.2       6 UNK         0.5000 
     41 O           3.1802  -19.7334  -43.5472 O.2       6 UNK        -0.5000 
     42 CA          3.6638  -17.8672  -42.1152 C.3       6 UNK         0.1400 
     43 CB          5.1771  -17.6491  -41.9704 C.3       6 UNK        -0.1800 
     44 N           2.9701  -16.5947  -41.9075 N.am      6 UNK        -0.5000 
     45 C           1.6387  -16.4636  -41.8379 C.2       5 UNK         0.5000 
     46 O           0.8636  -17.4180  -41.8621 O.2       5 UNK        -0.5000 
     47 CA          1.0621  -15.0370  -41.7703 C.3       5 UNK         0.1400 
     48 CB          0.7166  -14.6673  -40.3205 C.3       5 UNK        -0.1800 
     49 N           1.9020  -13.9819  -42.3449 N.am      5 UNK        -0.5000 
     50 C           2.3672  -13.9368  -43.6016 C.2       4 UNK         0.5000 
     51 O           2.2936  -14.8804  -44.3929 O.2       4 UNK        -0.5000 
     52 CA          3.0001  -12.5932  -44.0112 C.3       4 UNK         0.1400 
     53 CB          4.3109  -12.3154  -43.2452 C.3       4 UNK        -0.1800 
     54 N           3.1715  -12.4426  -45.4587 N.am      4 UNK        -0.5000 
     55 C           4.0628  -13.0359  -46.2679 C.2       3 UNK         0.5000 
     56 O           4.9442  -13.8042  -45.8804 O.2       3 UNK        -0.5000 
     57 CA          3.9744  -12.7089  -47.7754 C.3       3 UNK         0.1400 
     58 CB          3.6817  -13.9726  -48.5954 C.3       3 UNK        -0.1800 
     59 N           2.9576  -11.7038  -48.0942 N.am      3 UNK        -0.5000 
     60 C           3.1326  -10.3788  -48.0040 C.2       2 UNK         0.5000 
     61 O           4.1991   -9.8521  -47.6856 O.2       2 UNK        -0.5000 
     62 CA          1.9084   -9.4884  -48.3036 C.3       2 UNK         0.1400 
     63 CB          1.9690   -8.9643  -49.7466 C.3       2 UNK        -0.1800 
     64 N           0.6150  -10.1491  -48.0932 N.am      2 UNK        -0.5000 
     65 C           0.1536  -10.5815  -46.9106 C.2       1 UNK         0.5000 
     66 O           0.7937  -10.4618  -45.8621 O.2       1 UNK        -0.5000 
     67 C          -2.7149  -22.7459  -47.0530 C.2       11 UNK         0.5000 
     68 O          -3.3050  -23.5903  -47.7262 O.2       11 UNK        -0.5000 
     69 N          -3.0503  -22.4443  -45.7912 N.am      12 UNK        -0.5000 
     70 CA         -4.1185  -23.0963  -45.0326 C.3       12 UNK         0.1400 
     71 CB         -4.3028  -22.3863  -43.6838 C.3       12 UNK        -0.1800 
     72 C          -3.8883  -24.6052  -44.8372 C.2       12 UNK         0.5000 
     73 O          -4.8414  -25.3782  -44.9315 O.2       12 UNK        -0.5000 
     74 N          -2.6319  -24.9962  -44.5929 N.am      13 UNK        -0.5000 
     75 CA         -2.2214  -26.3873  -44.4328 C.3       13 UNK         0.1400 
     76 CB         -0.8467  -26.4365  -43.7464 C.3       13 UNK        -0.1800 
     77 C          -2.2010  -27.1620  -45.7637 C.2       13 UNK         0.5000 
     78 O          -2.8000  -28.2349  -45.8488 O.2       13 UNK        -0.5000 
     79 N          -1.4860  -26.6299  -46.7634 N.am      14 UNK        -0.5000 
     80 CA         -1.1492  -27.3502  -47.9923 C.3       14 UNK         0.1400 
     81 CB          0.2134  -26.8552  -48.5026 C.3       14 UNK        -0.1800 
     82 C          -2.2016  -27.2196  -49.1048 C.2       14 UNK         0.5000 
     83 O          -2.3719  -28.1651  -49.8758 O.2       14 UNK        -0.5000 
     84 N          -2.8588  -26.0576  -49.1980 N.am      15 UNK        -0.5000 
     85 CA         -3.7373  -25.6877  -50.3120 C.3       15 UNK         0.1400 
     86 CB         -3.1177  -24.4773  -51.0333 C.3       15 UNK        -0.1800 
     87 C          -5.1755  -25.3829  -49.8580 C.2       15 UNK         0.5000 
     88 O          -5.9716  -24.9109  -50.6703 O.2       15 UNK        -0.5000 
     89 N          -5.4820  -25.6144  -48.5714 N.am      16 UNK        -0.5000 
     90 CA         -6.7569  -25.3204  -47.9007 C.3       16 UNK         0.1400 
     91 CB         -7.8742  -26.2397  -48.4368 C.3       16 UNK        -0.1800 
     92 C          -7.1435  -23.8235  -47.9495 C.2       16 UNK         0.5000 
     93 O          -8.3305  -23.4943  -47.9329 O.2       16 UNK        -0.5000 
     94 N          -6.1266  -22.9509  -48.0323 N.am      17 UNK        -0.5000 
     95 CA         -6.2009  -21.4993  -48.2301 C.3       17 UNK         0.1400 
     96 CB         -6.8645  -20.8026  -47.0235 C.3       17 UNK        -0.1800 
     97 C          -6.8312  -21.0969  -49.5829 C.2       17 UNK         0.5000 
     98 O          -7.3804  -19.9997  -49.6987 O.2       17 UNK        -0.5000 
     99 N          -6.7474  -21.9865  -50.5797 N.am      18 UNK        -0.5000 
    100 CA        -7.3280  -21.8280  -51.9063 C.3       18 UNK         0.1400 
    101 CB        -8.7327  -22.4672  -51.9224 C.3       18 UNK        -0.1800 
    102 C         -6.3548  -22.3908  -52.9577 C.2       18 UNK         0.5000 
    103 O         -5.1614  -22.0871  -52.8961 O.2       18 UNK        -0.5000 
    104 N         -6.8765  -23.1705  -53.9167 N.am      19 UNK        -0.5000 
    105 CA        -6.1883  -23.6998  -55.0979 C.3       19 UNK         0.1400 
    106 CB        -5.1125  -24.7345  -54.6948 C.3       19 UNK        -0.1800 
    107 C         -5.6718  -22.5452  -55.9826 C.2       19 UNK         0.5000 
    108 O         -6.4682  -21.6839  -56.3618 O.2       19 UNK        -0.5000 
    109 N         -4.3665  -22.5255  -56.2823 N.am      20 UNK        -0.5000 
    110 CA        -3.7012  -21.4353  -56.9992 C.3       20 UNK         0.1400 
    111 CB        -2.3204  -21.9165  -57.4709 C.3       20 UNK        -0.1800 
    112 C         -3.5597  -20.1534  -56.1536 C.2       20 UNK         0.5000 
    113 O         -3.4575  -19.0663  -56.7243 O.2       20 UNK        -0.5000 
    114 N         -3.5307  -20.3064  -54.8187 N.am      21 UNK        -0.5000 
    115 CA        -3.4558  -19.2588  -53.7906 C.3       21 UNK         0.1400 
    116 CB        -4.8149  -18.5369  -53.6848 C.3       21 UNK        -0.1800 
    117 C         -2.2743  -18.2745  -53.9588 C.2       21 UNK         0.5000 
    118 O         -2.3816  -17.1138  -53.5604 O.2       21 UNK        -0.5000 
    119 N         -1.1828  -18.7522  -54.5741 N.am      22 UNK        -0.5000 
    120 CA        -0.0071  -17.9708  -55.0005 C.3       22 UNK         0.1400 
    121 C         -0.3064  -16.8882  -56.0866 C.2       22 UNK         0.5000 
    122 N         -1.4110  -16.9683  -56.8203 N.am      22 UNK        -0.7600 
    123 O          0.4895  -15.9771  -56.2997 O.2       22 UNK        -0.5000 
    124 C124        0.8289  -17.4225  -53.8093 C.3       23 UNK        -0.0398 
    125 S125        1.5033  -18.7659  -52.7757 S.3       23 UNK        -0.2404 
    126 C126        1.7843  -17.8948  -51.1966 C.3       23 UNK        -0.0205 
    127 H127       -2.6845  -11.9063  -43.2233 H         1 UNK         0.0600 
    128 H128       -1.1443  -12.5223  -42.6149 H         1 UNK         0.0600 
    129 H129       -2.3484  -13.6404  -43.2623 H         1 UNK         0.0600 
    130 H130       -2.4556  -10.9451  -45.2082 H         1 UNK         0.3000 
    131 H131       -1.9177  -10.3985  -47.2033 H         1 UNK         0.0600 
    132 H132       -1.8719  -11.8887  -48.8843 H         1 UNK         0.0800 
    133 H133       -2.3278  -12.9963  -47.6525 H         1 UNK         0.0800 
    134 H134        0.4034  -15.2127  -47.0108 H         1 UNK         0.0800 
    135 H135       -1.3113  -14.9413  -47.0949 H         1 UNK         0.0800 
    136 H136        1.5110  -15.9225  -49.3892 H         1 UNK         0.1150 
    137 H137       -0.7408  -19.0694  -51.2242 H         1 UNK         0.1150 
    138 H138       -2.5586  -16.5948  -48.2426 H         1 UNK         0.1150 
    139 H139       -3.7749  -18.4452  -49.0791 H         1 UNK         0.0800 
    140 H140       -3.5492  -18.5344  -50.8068 H         1 UNK         0.0800 
    141 H141       -0.9532  -20.0115  -48.2563 H         1 UNK         0.0800 
    142 H142       -2.4433  -20.0492  -47.3582 H         1 UNK         0.0800 
    143 H143       -1.1704  -22.5816  -48.5227 H         1 UNK         0.0600 
    144 H144       -0.0241  -21.0758  -46.4479 H         1 UNK         0.3000 
    145 H145        1.5016  -23.7642  -44.6320 H         1 UNK         0.0600 
    146 H146        3.4459  -22.2712  -45.0421 H         1 UNK         0.0600 
    147 H147        3.0264  -23.1649  -46.4963 H         1 UNK         0.0600 
    148 H148        2.5835  -21.4701  -46.3526 H         1 UNK         0.0600 
    149 H149        1.4348  -20.9541  -44.1574 H         1 UNK         0.3000 
    150 H150       -1.5518  -20.9281  -42.1564 H         1 UNK         0.0600 
    151 H151        0.3455  -21.5833  -40.6630 H         1 UNK         0.0600 
    152 H152        0.0368  -19.8548  -40.5930 H         1 UNK         0.0600 
    153 H153        1.4094  -20.4676  -41.5121 H         1 UNK         0.0600 
    154 H154        0.1688  -18.8110  -42.9049 H         1 UNK         0.3000 
    155 H155       -1.3975  -17.9860  -46.0352 H         1 UNK         0.0600 
    156 H156       -2.7185  -16.8356  -44.3193 H         1 UNK         0.0600 
    157 H157       -1.4041  -15.7829  -44.8169 H         1 UNK         0.0600 
    158 H158       -1.3148  -16.6449  -43.2827 H         1 UNK         0.0600 
    159 H159        0.8629  -16.8793  -44.6886 H         1 UNK         0.3000 
    160 H160        3.3356  -19.0359  -46.1026 H         1 UNK         0.0600 
    161 H161        2.6259  -16.1251  -46.7129 H         1 UNK         0.0600 
    162 H162        2.9261  -17.3910  -47.8986 H         1 UNK         0.0600 
    163 H163        4.2307  -16.8350  -46.8597 H         1 UNK         0.0600 
    164 H164        3.2439  -16.6830  -44.3734 H         1 UNK         0.3000 
    165 H165        3.3408  -18.5582  -41.3336 H         1 UNK         0.0600 
    166 H166        5.4278  -17.2669  -40.9808 H         1 UNK         0.0600 
    167 H167        5.7204  -18.5856  -42.1036 H         1 UNK         0.0600 
    168 H168        5.5548  -16.9419  -42.7101 H         1 UNK         0.0600 
    169 H169        3.5354  -15.7588  -41.8939 H         1 UNK         0.3000 
    170 H170        0.1349  -15.0423  -42.3452 H         1 UNK         0.0600 
    171 H171        0.0660  -15.4178  -39.8692 H         1 UNK         0.0600 
    172 H172        1.6114  -14.5930  -39.7011 H         1 UNK         0.0600 
    173 H173        0.1909  -13.7136  -40.2700 H         1 UNK         0.0600 
    174 H174        2.0327  -13.1682  -41.7620 H         1 UNK         0.3000 
    175 H175        2.2841  -11.8177  -43.7345 H         1 UNK         0.0600 
    176 H176        5.0371  -13.1187  -43.3713 H         1 UNK         0.0600 
    177 H177        4.7745  -11.3872  -43.5796 H         1 UNK         0.0600 
    178 H178        4.1271  -12.2148  -42.1752 H         1 UNK         0.0600 
    179 H179        2.4680  -11.8581  -45.8939 H         1 UNK         0.3000 
    180 H180        4.9527  -12.3321  -48.0808 H         1 UNK         0.0600 
    181 H181        2.7286  -14.4089  -48.3046 H         1 UNK         0.0600 
    182 H182        4.4524  -14.7292  -48.4440 H         1 UNK         0.0600 
    183 H183        3.6430  -13.7559  -49.6630 H         1 UNK         0.0600 
    184 H184        2.0431  -12.0532  -48.3480 H         1 UNK         0.3000 
    185 H185        1.9582   -8.6321  -47.6278 H         1 UNK         0.0600 
    186 H186        2.9072   -8.4400  -49.9336 H         1 UNK         0.0600 
    187 H187        1.8962   -9.7755  -50.4721 H         1 UNK         0.0600 
    188 H188        1.1607   -8.2604  -49.9459 H         1 UNK         0.0600 
    189 H189        0.0452  -10.2790  -48.9167 H         1 UNK         0.3000 
    190 H190       -2.5531  -21.6926  -45.3189 H         1 UNK         0.3000 
    191 H191       -5.0450  -22.9818  -45.5931 H         1 UNK         0.0600 
    192 H192       -4.5390  -21.3312  -43.8236 H         1 UNK         0.0600 
    193 H193       -5.1219  -22.8311  -43.1174 H         1 UNK         0.0600 
    194 H194       -3.4059  -22.4494  -43.0681 H         1 UNK         0.0600 
    195 H195       -1.9136  -24.2889  -44.4807 H         1 UNK         0.3000 
    196 H196       -2.9380  -26.8809  -43.7728 H         1 UNK         0.0600 
    197 H197       -0.5159  -27.4663  -43.6060 H         1 UNK         0.0600 
    198 H198       -0.8829  -25.9689  -42.7623 H         1 UNK         0.0600 
    199 H199       -0.0827  -25.9218  -44.3298 H         1 UNK         0.0600 
    200 H200       -1.0198  -25.7348  -46.6218 H         1 UNK         0.3000 
    201 H201       -1.0447  -28.4130  -47.7625 H         1 UNK         0.0600 
    202 H202        0.9868  -26.9752  -47.7438 H         1 UNK         0.0600 
    203 H203        0.1799  -25.8016  -48.7828 H         1 UNK         0.0600 
    204 H204        0.5298  -27.4179  -49.3819 H         1 UNK         0.0600 
    205 H205       -2.6952  -25.3290  -48.5101 H         1 UNK         0.3000 
    206 H206       -3.8143  -26.5028  -51.0340 H         1 UNK         0.0600 
    207 H207       -2.1113  -24.7007  -51.3868 H         1 UNK         0.0600 
    208 H208       -3.7089  -24.1922  -51.9024 H         1 UNK         0.0600 
    209 H209       -3.0584  -23.6044  -50.3834 H         1 UNK         0.0600 
    210 H210       -4.7487  -25.9770  -47.9787 H         1 UNK         0.3000 
    211 H211       -6.6151  -25.5616  -46.8477 H         1 UNK         0.0600 
    212 H212       -8.1309  -26.0057  -49.4704 H         1 UNK         0.0600 
    213 H213       -8.7838  -26.1375  -47.8438 H         1 UNK         0.0600 
    214 H214       -7.5773  -27.2875  -48.3935 H         1 UNK         0.0600 
    215 H215       -5.1848  -23.3346  -48.0368 H         1 UNK         0.3000 
    216 H216       -5.1696  -21.1529  -48.2665 H         1 UNK         0.0600 
    217 H217       -6.7859  -19.7182  -47.1078 H         1 UNK         0.0600 
    218 H218       -6.3847  -21.0842  -46.0870 H         1 UNK         0.0600 
    219 H219       -7.9242  -21.0462  -46.9457 H         1 UNK         0.0600 
    220 H220       -6.2690  -22.8681  -50.4266 H         1 UNK         0.3000 
    221 H221       -7.4317  -20.7661  -52.1374 H         1 UNK         0.0600 
    222 H222       -8.6868  -23.5418  -51.7394 H         1 UNK         0.0600 
    223 H223       -9.3674  -22.0310  -51.1507 H         1 UNK         0.0600 
    224 H224       -9.2373  -22.3039  -52.8752 H         1 UNK         0.0600 
    225 H225       -7.8708  -23.3442  -53.8859 H         1 UNK         0.3000 
    226 H226       -6.9433  -24.2224  -55.6866 H         1 UNK         0.0600 
    227 H227       -5.5346  -25.5007  -54.0442 H         1 UNK         0.0600 
    228 H228       -4.7114  -25.2444  -55.5714 H         1 UNK         0.0600 
    229 H229       -4.2769  -24.2795  -54.1641 H         1 UNK         0.0600 
    230 H230       -3.7790  -23.2707  -55.9376 H         1 UNK         0.3000 
    231 H231       -4.2955  -21.1857  -57.8807 H         1 UNK         0.0600 
    232 H232       -1.6822  -22.1970  -56.6321 H         1 UNK         0.0600 
    233 H233       -1.8039  -21.1346  -58.0294 H         1 UNK         0.0600 
    234 H234       -2.4080  -22.7803  -58.1302 H         1 UNK         0.0600 
    235 H235       -3.6623  -21.2409  -54.4526 H         1 UNK         0.3000 
    236 H236       -3.2819  -19.7794  -52.8482 H         1 UNK         0.0600 
    237 H237       -5.6255  -19.2478  -53.5253 H         1 UNK         0.0600 
    238 H238       -4.8301  -17.8391  -52.8471 H         1 UNK         0.0600 
    239 H239       -5.0391  -17.9702  -54.5890 H         1 UNK         0.0600 
    240 H240       -1.1925  -19.7184  -54.8646 H         1 UNK         0.3000 
    241 H241        0.6286  -18.6848  -55.5253 H         1 UNK         0.0600 
    242 H242       -1.5849  -16.2699  -57.5252 H         1 UNK         0.3800 
    243 H243       -2.0860  -17.7157  -56.6821 H         1 UNK         0.3800 
    244 H244        1.6791  -16.8385  -54.1649 H         1 UNK         0.0800 
    245 H245        0.2298  -16.7469  -53.1976 H         1 UNK         0.0800 
    246 H246        2.3975  -18.5333  -50.5597 H         1 UNK         0.0800 
    247 H247        2.3763  -17.0002  -51.3969 H         1 UNK         0.0800 
@<TRIPOS>BOND
     1    1    2 1    
     2    1  127 1    
     3    1  128 1    
     4    1  129 1    
     5    2    3 2    
     6    2    4 am   BACKBONE|DICT|INTERRES
     7    4    5 1    
     8    4  130 1    
     9    5    6 1    
    10    5   65 1    
    11    5  131 1    
    12    6    7 1    
    13    6  132 1    
    14    6  133 1    
    15    7    8 1    
    16    8    9 1    
    17    8  134 1    
    18    8  135 1    
    19    9   10 ar   
    20    9   14 ar   
    21   10   11 ar   
    22   10  136 1    
    23   11   12 ar   
    24   11  126 1    
    25   12   13 ar   
    26   12  137 1    
    27   13   14 ar   
    28   13   15 1    
    29   14  138 1    
    30   15   16 1    
    31   15  139 1    
    32   15  140 1    
    33   16   17 1    
    34   17   18 1    
    35   17  141 1    
    36   17  142 1    
    37   18   19 1    
    38   18   67 1    
    39   18  143 1    
    40   19   20 am   BACKBONE|DICT|INTERRES
    41   19  144 1    
    42   20   21 2    
    43   20   22 1    
    44   22   23 1    
    45   22   24 1    
    46   22  145 1    
    47   23  146 1    
    48   23  147 1    
    49   23  148 1    
    50   24   25 am   BACKBONE|DICT|INTERRES
    51   24  149 1    
    52   25   26 2    
    53   25   27 1    
    54   27   28 1    
    55   27   29 1    
    56   27  150 1    
    57   28  151 1    
    58   28  152 1    
    59   28  153 1    
    60   29   30 am   BACKBONE|DICT|INTERRES
    61   29  154 1    
    62   30   31 2    
    63   30   32 1    
    64   32   33 1    
    65   32   34 1    
    66   32  155 1    
    67   33  156 1    
    68   33  157 1    
    69   33  158 1    
    70   34   35 am   BACKBONE|DICT|INTERRES
    71   34  159 1    
    72   35   36 2    
    73   35   37 1    
    74   37   38 1    
    75   37   39 1    
    76   37  160 1    
    77   38  161 1    
    78   38  162 1    
    79   38  163 1    
    80   39   40 am   BACKBONE|DICT|INTERRES
    81   39  164 1    
    82   40   41 2    
    83   40   42 1    
    84   42   43 1    
    85   42   44 1    
    86   42  165 1    
    87   43  166 1    
    88   43  167 1    
    89   43  168 1    
    90   44   45 am   BACKBONE|DICT|INTERRES
    91   44  169 1    
    92   45   46 2    
    93   45   47 1    
    94   47   48 1    
    95   47   49 1    
    96   47  170 1    
    97   48  171 1    
    98   48  172 1    
    99   48  173 1    
   100   49   50 am   BACKBONE|DICT|INTERRES
   101   49  174 1    
   102   50   51 2    
   103   50   52 1    
   104   52   53 1    
   105   52   54 1    
   106   52  175 1    
   107   53  176 1    
   108   53  177 1    
   109   53  178 1    
   110   54   55 am   BACKBONE|DICT|INTERRES
   111   54  179 1    
   112   55   56 2    
   113   55   57 1    
   114   57   58 1    
   115   57   59 1    
   116   57  180 1    
   117   58  181 1    
   118   58  182 1    
   119   58  183 1    
   120   59   60 am   BACKBONE|DICT|INTERRES
   121   59  184 1    
   122   60   61 2    
   123   60   62 1    
   124   62   63 1    
   125   62   64 1    
   126   62  185 1    
   127   63  186 1    
   128   63  187 1    
   129   63  188 1    
   130   64   65 am   BACKBONE|DICT|INTERRES
   131   64  189 1    
   132   65   66 2    
   133   67   68 2    
   134   67   69 am   BACKBONE|DICT|INTERRES
   135   69   70 1    
   136   69  190 1    
   137   70   71 1    
   138   70   72 1    
   139   70  191 1    
   140   71  192 1    
   141   71  193 1    
   142   71  194 1    
   143   72   73 2    
   144   72   74 am   BACKBONE|DICT|INTERRES
   145   74   75 1    
   146   74  195 1    
   147   75   76 1    
   148   75   77 1    
   149   75  196 1    
   150   76  197 1    
   151   76  198 1    
   152   76  199 1    
   153   77   78 2    
   154   77   79 am   BACKBONE|DICT|INTERRES
   155   79   80 1    
   156   79  200 1    
   157   80   81 1    
   158   80   82 1    
   159   80  201 1    
   160   81  202 1    
   161   81  203 1    
   162   81  204 1    
   163   82   83 2    
   164   82   84 am   BACKBONE|DICT|INTERRES
   165   84   85 1    
   166   84  205 1    
   167   85   86 1    
   168   85   87 1    
   169   85  206 1    
   170   86  207 1    
   171   86  208 1    
   172   86  209 1    
   173   87   88 2    
   174   87   89 am   BACKBONE|DICT|INTERRES
   175   89   90 1    
   176   89  210 1    
   177   90   91 1    
   178   90   92 1    
   179   90  211 1    
   180   91  212 1    
   181   91  213 1    
   182   91  214 1    
   183   92   93 2    
   184   92   94 am   BACKBONE|DICT|INTERRES
   185   94   95 1    
   186   94  215 1    
   187   95   96 1    
   188   95   97 1    
   189   95  216 1    
   190   96  217 1    
   191   96  218 1    
   192   96  219 1    
   193   97   98 2    
   194   97   99 am   BACKBONE|DICT|INTERRES
   195   99  100 1    
   196   99  220 1    
   197  100  101 1    
   198  100  102 1    
   199  100  221 1    
   200  101  222 1    
   201  101  223 1    
   202  101  224 1    
   203  102  103 2    
   204  102  104 am   BACKBONE|DICT|INTERRES
   205  104  105 1    
   206  104  225 1    
   207  105  106 1    
   208  105  107 1    
   209  105  226 1    
   210  106  227 1    
   211  106  228 1    
   212  106  229 1    
   213  107  108 2    
   214  107  109 am   BACKBONE|DICT|INTERRES
   215  109  110 1    
   216  109  230 1    
   217  110  111 1    
   218  110  112 1    
   219  110  231 1    
   220  111  232 1    
   221  111  233 1    
   222  111  234 1    
   223  112  113 2    
   224  112  114 am   BACKBONE|DICT|INTERRES
   225  114  115 1    
   226  114  235 1    
   227  115  116 1    
   228  115  117 1    
   229  115  236 1    
   230  116  237 1    
   231  116  238 1    
   232  116  239 1    
   233  117  118 2    
   234  117  119 am   BACKBONE|DICT|INTERRES
   235  119  120 1    
   236  119  240 1    
   237  120  121 1    
   238  120  124 1    
   239  120  241 1    
   240  121  122 am   BACKBONE|DICT|INTERRES
   241  121  123 2    
   242  122  242 1    
   243  122  243 1    
   244  124  125 1    
   245  124  244 1    
   246  124  245 1    
   247  125  126 1    
   248  126  246 1    
   249  126  247 1    
@<TRIPOS>SUBSTRUCTURE
     1 UNK         1 GROUP             0       ****    0 ROOT    
