@<TRIPOS>MOLECULE
3R540
247   249    1
SMALL
USER_CHARGES


@<TRIPOS>ATOM
      1 CA         -0.8048  -10.4768  -49.7240 C.3       0 UNK        -0.1800 
      2 C          -0.7831  -11.7443  -48.8810 C.2       0 UNK         0.5000 
      3 O          -1.0633  -11.6836  -47.6845 O.2       0 UNK        -0.5000 
      4 N          -0.4541  -12.8830  -49.5066 N.am      1 UNK        -0.5000 
      5 CA         -0.3621  -14.2194  -48.9013 C.3       1 UNK         0.1400 
      6 C6         -1.7214  -14.7686  -48.3715 C.3       23 UNK        -0.0398 
      7 S7         -2.9105  -15.1339  -49.7096 S.3       23 UNK        -0.2404 
      8 C8         -2.8734  -16.9589  -49.7581 C.3       23 UNK        -0.0205 
      9 C9         -1.6705  -17.4845  -50.5286 C.ar      23 UNK        -0.0193 
     10 C10        -1.8101  -17.9082  -51.8536 C.ar      23 UNK        -0.1150 
     11 C11        -0.7101  -18.3791  -52.5799 C.ar      23 UNK        -0.0193 
     12 C12         0.5508  -18.3803  -51.9687 C.ar      23 UNK        -0.1150 
     13 C13         0.7041  -17.9560  -50.6464 C.ar      23 UNK        -0.0193 
     14 C14        -0.4140  -17.5401  -49.9226 C.ar      23 UNK        -0.1150 
     15 C15         2.0866  -17.9105  -50.0180 C.3       23 UNK        -0.0205 
     16 S16         2.5676  -19.5157  -49.3205 S.3       23 UNK        -0.2404 
     17 C17         1.7230  -19.4882  -47.7048 C.3       23 UNK        -0.0398 
     18 CA          0.9514  -20.7991  -47.4235 C.3       11 UNK         0.1400 
     19 N           0.9543  -21.1437  -46.0007 N.am      11 UNK        -0.5000 
     20 C           0.6405  -22.3542  -45.5208 C.2       10 UNK         0.5000 
     21 O           0.3046  -23.3018  -46.2316 O.2       10 UNK        -0.5000 
     22 CA          0.6832  -22.5296  -43.9926 C.3       10 UNK         0.1400 
     23 CB          2.1267  -22.7272  -43.5068 C.3       10 UNK        -0.1800 
     24 N           0.0768  -21.4059  -43.2800 N.am      10 UNK        -0.5000 
     25 C          -1.2232  -21.0850  -43.3407 C.2       9 UNK         0.5000 
     26 O          -2.0572  -21.7246  -43.9830 O.2       9 UNK        -0.5000 
     27 CA         -1.6516  -19.8016  -42.6037 C.3       9 UNK         0.1400 
     28 CB         -1.7427  -20.0356  -41.0886 C.3       9 UNK        -0.1800 
     29 N          -0.7618  -18.6716  -42.8780 N.am      9 UNK        -0.5000 
     30 C          -0.5628  -18.1551  -44.0991 C.2       8 UNK         0.5000 
     31 O          -1.1203  -18.5606  -45.1154 O.2       8 UNK        -0.5000 
     32 CA          0.4570  -17.0179  -44.2217 C.3       8 UNK         0.1400 
     33 CB         -0.2063  -15.6824  -43.8521 C.3       8 UNK        -0.1800 
     34 N           1.6639  -17.2407  -43.4249 N.am      8 UNK        -0.5000 
     35 C           2.4990  -18.2769  -43.5930 C.2       7 UNK         0.5000 
     36 O           2.3572  -19.1385  -44.4598 O.2       7 UNK        -0.5000 
     37 CA          3.6483  -18.4129  -42.5803 C.3       7 UNK         0.1400 
     38 CB          4.7059  -17.3185  -42.7891 C.3       7 UNK        -0.1800 
     39 N           3.1693  -18.3788  -41.1989 N.am      7 UNK        -0.5000 
     40 C           2.3125  -19.2596  -40.6596 C.2       6 UNK         0.5000 
     41 O           1.8795  -20.2477  -41.2526 O.2       6 UNK        -0.5000 
     42 CA          1.8235  -18.9654  -39.2276 C.3       6 UNK         0.1400 
     43 CB          2.7116  -19.6808  -38.1991 C.3       6 UNK        -0.1800 
     44 N           1.7683  -17.5358  -38.9061 N.am      6 UNK        -0.5000 
     45 C           1.0096  -16.6324  -39.5422 C.2       5 UNK         0.5000 
     46 O           0.2566  -16.9221  -40.4767 O.2       5 UNK        -0.5000 
     47 CA          1.1282  -15.1662  -39.0851 C.3       5 UNK         0.1400 
     48 CB          2.4370  -14.8420  -38.3330 C.3       5 UNK        -0.1800 
     49 N           1.0140  -14.3171  -40.2624 N.am      5 UNK        -0.5000 
     50 C           0.5460  -13.0707  -40.3139 C.2       4 UNK         0.5000 
     51 O           0.2028  -12.4286  -39.3191 O.2       4 UNK        -0.5000 
     52 CA          0.4448  -12.4513  -41.7256 C.3       4 UNK         0.1400 
     53 CB         -0.3171  -11.1136  -41.7272 C.3       4 UNK        -0.1800 
     54 N           1.7389  -12.2468  -42.3837 N.am      4 UNK        -0.5000 
     55 C           2.5743  -13.1906  -42.8382 C.2       3 UNK         0.5000 
     56 O           2.4206  -14.4021  -42.6648 O.2       3 UNK        -0.5000 
     57 CA          3.7921  -12.6951  -43.6361 C.3       3 UNK         0.1400 
     58 CB          5.1026  -13.0527  -42.9180 C.3       3 UNK        -0.1800 
     59 N           3.8059  -13.2689  -44.9824 N.am      3 UNK        -0.5000 
     60 C           2.9568  -12.9409  -45.9672 C.2       2 UNK         0.5000 
     61 O           2.0982  -12.0633  -45.8530 O.2       2 UNK        -0.5000 
     62 CA          3.1441  -13.6598  -47.3249 C.3       2 UNK         0.1400 
     63 CB          3.7464  -15.0799  -47.1957 C.3       2 UNK        -0.1800 
     64 N           1.9216  -13.6796  -48.1420 N.am      2 UNK        -0.5000 
     65 C           0.7799  -14.3269  -47.8616 C.2       1 UNK         0.5000 
     66 O           0.6258  -15.0181  -46.8578 O.2       1 UNK        -0.5000 
     67 C          -0.4730  -20.7996  -48.0190 C.2       11 UNK         0.5000 
     68 O          -0.6634  -21.3111  -49.1204 O.2       11 UNK        -0.5000 
     69 N          -1.4632  -20.3028  -47.2619 N.am      12 UNK        -0.5000 
     70 CA         -2.8830  -20.3686  -47.6102 C.3       12 UNK         0.1400 
     71 CB         -3.7148  -19.5419  -46.6195 C.3       12 UNK        -0.1800 
     72 C          -3.4097  -21.8111  -47.6741 C.2       12 UNK         0.5000 
     73 O          -4.1726  -22.1277  -48.5867 O.2       12 UNK        -0.5000 
     74 N          -2.9755  -22.6679  -46.7381 N.am      13 UNK        -0.5000 
     75 CA         -3.2815  -24.0996  -46.7336 C.3       13 UNK         0.1400 
     76 CB         -2.8187  -24.7358  -45.4147 C.3       13 UNK        -0.1800 
     77 C          -2.6787  -24.8268  -47.9499 C.2       13 UNK         0.5000 
     78 O          -3.3829  -25.6007  -48.5994 O.2       13 UNK        -0.5000 
     79 N          -1.4166  -24.5133  -48.2807 N.am      14 UNK        -0.5000 
     80 CA         -0.7242  -24.9880  -49.4843 C.3       14 UNK         0.1400 
     81 CB          0.7511  -24.5641  -49.4303 C.3       14 UNK        -0.1800 
     82 C          -1.3848  -24.5059  -50.7925 C.2       14 UNK         0.5000 
     83 O          -1.3809  -25.2369  -51.7822 O.2       14 UNK        -0.5000 
     84 N          -1.9902  -23.3120  -50.7539 N.am      15 UNK        -0.5000 
     85 CA         -2.8047  -22.7224  -51.8154 C.3       15 UNK         0.1400 
     86 CB         -2.8073  -21.1953  -51.6521 C.3       15 UNK        -0.1800 
     87 C          -4.2473  -23.2669  -51.8770 C.2       15 UNK         0.5000 
     88 O          -5.0649  -22.6801  -52.5885 O.2       15 UNK        -0.5000 
     89 N          -4.5374  -24.3538  -51.1457 N.am      16 UNK        -0.5000 
     90 CA         -5.8155  -25.0653  -51.0598 C.3       16 UNK         0.1400 
     91 CB         -6.2060  -25.6766  -52.4216 C.3       16 UNK        -0.1800 
     92 C          -6.9235  -24.2024  -50.4274 C.2       16 UNK         0.5000 
     93 O          -8.0149  -24.0821  -50.9843 O.2       16 UNK        -0.5000 
     94 N          -6.5982  -23.6159  -49.2668 N.am      17 UNK        -0.5000 
     95 CA         -7.4088  -22.6826  -48.4775 C.3       17 UNK         0.1400 
     96 CB         -8.7296  -23.3276  -48.0061 C.3       17 UNK        -0.1800 
     97 C          -7.5978  -21.3412  -49.2114 C.2       17 UNK         0.5000 
     98 O          -8.7168  -20.8353  -49.3147 O.2       17 UNK        -0.5000 
     99 N          -6.4732  -20.8029  -49.7069 N.am      18 UNK        -0.5000 
    100 CA        -6.3384  -19.5464  -50.4506 C.3       18 UNK         0.1400 
    101 CB        -6.6184  -18.3370  -49.5345 C.3       18 UNK        -0.1800 
    102 C         -7.1559  -19.5216  -51.7607 C.2       18 UNK         0.5000 
    103 O         -7.7314  -18.4919  -52.1157 O.2       18 UNK        -0.5000 
    104 N         -7.1645  -20.6545  -52.4753 N.am      19 UNK        -0.5000 
    105 CA        -7.8117  -20.8286  -53.7790 C.3       19 UNK         0.1400 
    106 CB        -8.3401  -22.2684  -53.8767 C.3       19 UNK        -0.1800 
    107 C         -6.8635  -20.5051  -54.9535 C.2       19 UNK         0.5000 
    108 O         -7.2216  -20.7529  -56.1055 O.2       19 UNK        -0.5000 
    109 N         -5.6716  -19.9736  -54.6400 N.am      20 UNK        -0.5000 
    110 CA        -4.5764  -19.6104  -55.5452 C.3       20 UNK         0.1400 
    111 CB        -5.0184  -18.5500  -56.5754 C.3       20 UNK        -0.1800 
    112 C         -3.8852  -20.8295  -56.1936 C.2       20 UNK         0.5000 
    113 O         -3.2441  -20.6874  -57.2352 O.2       20 UNK        -0.5000 
    114 N         -3.9907  -22.0036  -55.5551 N.am      21 UNK        -0.5000 
    115 CA        -3.4546  -23.2773  -56.0459 C.3       21 UNK         0.1400 
    116 CB        -4.3691  -24.4145  -55.5576 C.3       21 UNK        -0.1800 
    117 C         -1.9809  -23.5232  -55.6496 C.2       21 UNK         0.5000 
    118 O         -1.5283  -24.6674  -55.7003 O.2       21 UNK        -0.5000 
    119 N         -1.2586  -22.4687  -55.2449 N.am      22 UNK        -0.5000 
    120 CA         0.1452  -22.5278  -54.7998 C.3       22 UNK         0.1400 
    121 C          1.1936  -22.8148  -55.9180 C.2       22 UNK         0.5000 
    122 N          0.8436  -22.7403  -57.1966 N.am      22 UNK        -0.7600 
    123 O          2.3435  -23.1234  -55.6169 O.2       22 UNK        -0.5000 
    124 C124        0.5344  -21.2927  -53.9437 C.3       23 UNK        -0.0398 
    125 S125        0.4518  -19.6986  -54.8398 S.3       23 UNK        -0.2404 
    126 C126       -0.9444  -18.8576  -54.0152 C.3       23 UNK        -0.0205 
    127 H127       -0.0968   -9.7498  -49.3262 H         1 UNK         0.0600 
    128 H128       -1.7994  -10.0312  -49.7054 H         1 UNK         0.0600 
    129 H129       -0.5410  -10.6748  -50.7632 H         1 UNK         0.0600 
    130 H130       -0.2522  -12.8499  -50.4962 H         1 UNK         0.3000 
    131 H131       -0.0437  -14.8683  -49.7166 H         1 UNK         0.0600 
    132 H132       -1.5872  -15.6788  -47.7865 H         1 UNK         0.0800 
    133 H133       -2.1821  -14.0594  -47.6838 H         1 UNK         0.0800 
    134 H134       -2.8793  -17.3641  -48.7460 H         1 UNK         0.0800 
    135 H135       -3.7941  -17.3090  -50.2258 H         1 UNK         0.0800 
    136 H136       -2.7835  -17.8756  -52.3225 H         1 UNK         0.1150 
    137 H137        1.4254  -18.7069  -52.5111 H         1 UNK         0.1150 
    138 H138       -0.2983  -17.2258  -48.8965 H         1 UNK         0.1150 
    139 H139        2.8191  -17.6267  -50.7752 H         1 UNK         0.0800 
    140 H140        2.1371  -17.1387  -49.2484 H         1 UNK         0.0800 
    141 H141        1.0829  -18.6120  -47.5949 H         1 UNK         0.0800 
    142 H142        2.5207  -19.3588  -46.9744 H         1 UNK         0.0800 
    143 H143        1.4918  -21.6095  -47.9180 H         1 UNK         0.0600 
    144 H144        1.2601  -20.4202  -45.3548 H         1 UNK         0.3000 
    145 H145        0.1157  -23.4294  -43.7460 H         1 UNK         0.0600 
    146 H146        2.1559  -22.9372  -42.4374 H         1 UNK         0.0600 
    147 H147        2.6005  -23.5664  -44.0174 H         1 UNK         0.0600 
    148 H148        2.7377  -21.8421  -43.6885 H         1 UNK         0.0600 
    149 H149        0.6994  -20.8391  -42.7109 H         1 UNK         0.3000 
    150 H150       -2.6461  -19.5299  -42.9636 H         1 UNK         0.0600 
    151 H151       -2.4658  -20.8195  -40.8603 H         1 UNK         0.0600 
    152 H152       -2.0634  -19.1334  -40.5673 H         1 UNK         0.0600 
    153 H153       -0.7856  -20.3432  -40.6688 H         1 UNK         0.0600 
    154 H154       -0.2770  -18.2562  -42.0904 H         1 UNK         0.3000 
    155 H155        0.7632  -16.9781  -45.2675 H         1 UNK         0.0600 
    156 H156       -0.3866  -15.6004  -42.7805 H         1 UNK         0.0600 
    157 H157        0.4085  -14.8406  -44.1655 H         1 UNK         0.0600 
    158 H158       -1.1659  -15.5682  -44.3583 H         1 UNK         0.0600 
    159 H159        1.8723  -16.5457  -42.7208 H         1 UNK         0.3000 
    160 H160        4.1235  -19.3821  -42.7461 H         1 UNK         0.0600 
    161 H161        4.3094  -16.3283  -42.5668 H         1 UNK         0.0600 
    162 H162        5.0596  -17.3074  -43.8210 H         1 UNK         0.0600 
    163 H163        5.5734  -17.4823  -42.1498 H         1 UNK         0.0600 
    164 H164        3.4653  -17.5967  -40.6347 H         1 UNK         0.3000 
    165 H165        0.8110  -19.3629  -39.1381 H         1 UNK         0.0600 
    166 H166        2.3250  -19.5546  -37.1876 H         1 UNK         0.0600 
    167 H167        2.7531  -20.7527  -38.3979 H         1 UNK         0.0600 
    168 H168        3.7348  -19.3035  -38.2184 H         1 UNK         0.0600 
    169 H169        2.3625  -17.2212  -38.1528 H         1 UNK         0.3000 
    170 H170        0.2817  -14.9732  -38.4233 H         1 UNK         0.0600 
    171 H171        3.3158  -15.0732  -38.9364 H         1 UNK         0.0600 
    172 H172        2.4874  -13.7848  -38.0716 H         1 UNK         0.0600 
    173 H173        2.5111  -15.3991  -37.3985 H         1 UNK         0.0600 
    174 H174        1.3133  -14.7384  -41.1370 H         1 UNK         0.3000 
    175 H175       -0.1313  -13.1492  -42.3354 H         1 UNK         0.0600 
    176 H176       -0.4639  -10.7447  -42.7426 H         1 UNK         0.0600 
    177 H177        0.2151  -10.3457  -41.1643 H         1 UNK         0.0600 
    178 H178       -1.3056  -11.2246  -41.2796 H         1 UNK         0.0600 
    179 H179        1.9778  -11.2828  -42.5641 H         1 UNK         0.3000 
    180 H180        3.7434  -11.6078  -43.7269 H         1 UNK         0.0600 
    181 H181        5.2391  -14.1311  -42.8355 H         1 UNK         0.0600 
    182 H182        5.1180  -12.6423  -41.9075 H         1 UNK         0.0600 
    183 H183        5.9649  -12.6462  -43.4466 H         1 UNK         0.0600 
    184 H184        4.4679  -14.0130  -45.1429 H         1 UNK         0.3000 
    185 H185        3.8591  -13.0541  -47.8832 H         1 UNK         0.0600 
    186 H186        4.7640  -15.0471  -46.8057 H         1 UNK         0.0600 
    187 H187        3.1593  -15.7153  -46.5311 H         1 UNK         0.0600 
    188 H188        3.7991  -15.5731  -48.1662 H         1 UNK         0.0600 
    189 H189        1.9416  -13.1005  -48.9691 H         1 UNK         0.3000 
    190 H190       -1.2397  -19.8482  -46.3782 H         1 UNK         0.3000 
    191 H191       -3.0020  -19.9274  -48.6012 H         1 UNK         0.0600 
    192 H192       -3.4229  -18.4921  -46.6366 H         1 UNK         0.0600 
    193 H193       -4.7766  -19.5888  -46.8639 H         1 UNK         0.0600 
    194 H194       -3.5971  -19.9036  -45.5973 H         1 UNK         0.0600 
    195 H195       -2.3875  -22.3225  -45.9875 H         1 UNK         0.3000 
    196 H196       -4.3668  -24.2057  -46.7906 H         1 UNK         0.0600 
    197 H197       -3.0726  -25.7960  -45.3839 H         1 UNK         0.0600 
    198 H198       -3.3001  -24.2611  -44.5595 H         1 UNK         0.0600 
    199 H199       -1.7411  -24.6534  -45.2779 H         1 UNK         0.0600 
    200 H200       -0.8907  -23.8989  -47.6652 H         1 UNK         0.3000 
    201 H201       -0.7642  -26.0791  -49.4783 H         1 UNK         0.0600 
    202 H202        1.2364  -24.9359  -48.5277 H         1 UNK         0.0600 
    203 H203        0.8608  -23.4801  -49.4467 H         1 UNK         0.0600 
    204 H204        1.3017  -24.9609  -50.2840 H         1 UNK         0.0600 
    205 H205       -1.8652  -22.7435  -49.9227 H         1 UNK         0.3000 
    206 H206       -2.3362  -22.9584  -52.7698 H         1 UNK         0.0600 
    207 H207       -3.3509  -20.8881  -50.7613 H         1 UNK         0.0600 
    208 H208       -1.7942  -20.8075  -51.5623 H         1 UNK         0.0600 
    209 H209       -3.2740  -20.7056  -52.5064 H         1 UNK         0.0600 
    210 H210       -3.8064  -24.7261  -50.5522 H         1 UNK         0.3000 
    211 H211       -5.6523  -25.8955  -50.3711 H         1 UNK         0.0600 
    212 H212       -6.4157  -24.9127  -53.1688 H         1 UNK         0.0600 
    213 H213       -7.0998  -26.2944  -52.3289 H         1 UNK         0.0600 
    214 H214       -5.4106  -26.3132  -52.8089 H         1 UNK         0.0600 
    215 H215       -5.6391  -23.7077  -48.9555 H         1 UNK         0.3000 
    216 H216       -6.8251  -22.4578  -47.5835 H         1 UNK         0.0600 
    217 H217       -9.2493  -22.6748  -47.3039 H         1 UNK         0.0600 
    218 H218       -8.5464  -24.2729  -47.4955 H         1 UNK         0.0600 
    219 H219       -9.4120  -23.5193  -48.8342 H         1 UNK         0.0600 
    220 H220       -5.6106  -21.3122  -49.5335 H         1 UNK         0.3000 
    221 H221       -5.2930  -19.4838  -50.7532 H         1 UNK         0.0600 
    222 H222       -7.6588  -18.3066  -49.2102 H         1 UNK         0.0600 
    223 H223       -5.9899  -18.3622  -48.6448 H         1 UNK         0.0600 
    224 H224       -6.4094  -17.3981  -50.0487 H         1 UNK         0.0600 
    225 H225       -6.6255  -21.4506  -52.1494 H         1 UNK         0.3000 
    226 H226       -8.6652  -20.1524  -53.8569 H         1 UNK         0.0600 
    227 H227       -9.0137  -22.4975  -53.0509 H         1 UNK         0.0600 
    228 H228       -8.8974  -22.4239  -54.8011 H         1 UNK         0.0600 
    229 H229       -7.5269  -22.9932  -53.8574 H         1 UNK         0.0600 
    230 H230       -5.4918  -19.8337  -53.6574 H         1 UNK         0.3000 
    231 H231       -3.8259  -19.1372  -54.9144 H         1 UNK         0.0600 
    232 H232       -5.7022  -18.9621  -57.3176 H         1 UNK         0.0600 
    233 H233       -4.1596  -18.1487  -57.1147 H         1 UNK         0.0600 
    234 H234       -5.5150  -17.7101  -56.0896 H         1 UNK         0.0600 
    235 H235       -4.5210  -22.0445  -54.6931 H         1 UNK         0.3000 
    236 H236       -3.4913  -23.2762  -57.1372 H         1 UNK         0.0600 
    237 H237       -5.4165  -24.2076  -55.7788 H         1 UNK         0.0600 
    238 H238       -4.1164  -25.3568  -56.0451 H         1 UNK         0.0600 
    239 H239       -4.2765  -24.5714  -54.4839 H         1 UNK         0.0600 
    240 H240       -1.6747  -21.5519  -55.2937 H         1 UNK         0.3000 
    241 H241        0.2124  -23.3888  -54.1313 H         1 UNK         0.0600 
    242 H242       -0.0940  -22.4791  -57.4562 H         1 UNK         0.3800 
    243 H243        1.5276  -22.9331  -57.9114 H         1 UNK         0.3800 
    244 H244       -0.1013  -21.2477  -53.0604 H         1 UNK         0.0800 
    245 H245        1.5476  -21.4075  -53.5548 H         1 UNK         0.0800 
    246 H246       -1.2297  -17.9973  -54.6219 H         1 UNK         0.0800 
    247 H247       -1.7912  -19.5407  -54.0221 H         1 UNK         0.0800 
@<TRIPOS>BOND
     1    1    2 1    
     2    1  127 1    
     3    1  128 1    
     4    1  129 1    
     5    2    3 2    
     6    2    4 am   BACKBONE|DICT|INTERRES
     7    4    5 1    
     8    4  130 1    
     9    5    6 1    
    10    5   65 1    
    11    5  131 1    
    12    6    7 1    
    13    6  132 1    
    14    6  133 1    
    15    7    8 1    
    16    8    9 1    
    17    8  134 1    
    18    8  135 1    
    19    9   10 ar   
    20    9   14 ar   
    21   10   11 ar   
    22   10  136 1    
    23   11   12 ar   
    24   11  126 1    
    25   12   13 ar   
    26   12  137 1    
    27   13   14 ar   
    28   13   15 1    
    29   14  138 1    
    30   15   16 1    
    31   15  139 1    
    32   15  140 1    
    33   16   17 1    
    34   17   18 1    
    35   17  141 1    
    36   17  142 1    
    37   18   19 1    
    38   18   67 1    
    39   18  143 1    
    40   19   20 am   BACKBONE|DICT|INTERRES
    41   19  144 1    
    42   20   21 2    
    43   20   22 1    
    44   22   23 1    
    45   22   24 1    
    46   22  145 1    
    47   23  146 1    
    48   23  147 1    
    49   23  148 1    
    50   24   25 am   BACKBONE|DICT|INTERRES
    51   24  149 1    
    52   25   26 2    
    53   25   27 1    
    54   27   28 1    
    55   27   29 1    
    56   27  150 1    
    57   28  151 1    
    58   28  152 1    
    59   28  153 1    
    60   29   30 am   BACKBONE|DICT|INTERRES
    61   29  154 1    
    62   30   31 2    
    63   30   32 1    
    64   32   33 1    
    65   32   34 1    
    66   32  155 1    
    67   33  156 1    
    68   33  157 1    
    69   33  158 1    
    70   34   35 am   BACKBONE|DICT|INTERRES
    71   34  159 1    
    72   35   36 2    
    73   35   37 1    
    74   37   38 1    
    75   37   39 1    
    76   37  160 1    
    77   38  161 1    
    78   38  162 1    
    79   38  163 1    
    80   39   40 am   BACKBONE|DICT|INTERRES
    81   39  164 1    
    82   40   41 2    
    83   40   42 1    
    84   42   43 1    
    85   42   44 1    
    86   42  165 1    
    87   43  166 1    
    88   43  167 1    
    89   43  168 1    
    90   44   45 am   BACKBONE|DICT|INTERRES
    91   44  169 1    
    92   45   46 2    
    93   45   47 1    
    94   47   48 1    
    95   47   49 1    
    96   47  170 1    
    97   48  171 1    
    98   48  172 1    
    99   48  173 1    
   100   49   50 am   BACKBONE|DICT|INTERRES
   101   49  174 1    
   102   50   51 2    
   103   50   52 1    
   104   52   53 1    
   105   52   54 1    
   106   52  175 1    
   107   53  176 1    
   108   53  177 1    
   109   53  178 1    
   110   54   55 am   BACKBONE|DICT|INTERRES
   111   54  179 1    
   112   55   56 2    
   113   55   57 1    
   114   57   58 1    
   115   57   59 1    
   116   57  180 1    
   117   58  181 1    
   118   58  182 1    
   119   58  183 1    
   120   59   60 am   BACKBONE|DICT|INTERRES
   121   59  184 1    
   122   60   61 2    
   123   60   62 1    
   124   62   63 1    
   125   62   64 1    
   126   62  185 1    
   127   63  186 1    
   128   63  187 1    
   129   63  188 1    
   130   64   65 am   BACKBONE|DICT|INTERRES
   131   64  189 1    
   132   65   66 2    
   133   67   68 2    
   134   67   69 am   BACKBONE|DICT|INTERRES
   135   69   70 1    
   136   69  190 1    
   137   70   71 1    
   138   70   72 1    
   139   70  191 1    
   140   71  192 1    
   141   71  193 1    
   142   71  194 1    
   143   72   73 2    
   144   72   74 am   BACKBONE|DICT|INTERRES
   145   74   75 1    
   146   74  195 1    
   147   75   76 1    
   148   75   77 1    
   149   75  196 1    
   150   76  197 1    
   151   76  198 1    
   152   76  199 1    
   153   77   78 2    
   154   77   79 am   BACKBONE|DICT|INTERRES
   155   79   80 1    
   156   79  200 1    
   157   80   81 1    
   158   80   82 1    
   159   80  201 1    
   160   81  202 1    
   161   81  203 1    
   162   81  204 1    
   163   82   83 2    
   164   82   84 am   BACKBONE|DICT|INTERRES
   165   84   85 1    
   166   84  205 1    
   167   85   86 1    
   168   85   87 1    
   169   85  206 1    
   170   86  207 1    
   171   86  208 1    
   172   86  209 1    
   173   87   88 2    
   174   87   89 am   BACKBONE|DICT|INTERRES
   175   89   90 1    
   176   89  210 1    
   177   90   91 1    
   178   90   92 1    
   179   90  211 1    
   180   91  212 1    
   181   91  213 1    
   182   91  214 1    
   183   92   93 2    
   184   92   94 am   BACKBONE|DICT|INTERRES
   185   94   95 1    
   186   94  215 1    
   187   95   96 1    
   188   95   97 1    
   189   95  216 1    
   190   96  217 1    
   191   96  218 1    
   192   96  219 1    
   193   97   98 2    
   194   97   99 am   BACKBONE|DICT|INTERRES
   195   99  100 1    
   196   99  220 1    
   197  100  101 1    
   198  100  102 1    
   199  100  221 1    
   200  101  222 1    
   201  101  223 1    
   202  101  224 1    
   203  102  103 2    
   204  102  104 am   BACKBONE|DICT|INTERRES
   205  104  105 1    
   206  104  225 1    
   207  105  106 1    
   208  105  107 1    
   209  105  226 1    
   210  106  227 1    
   211  106  228 1    
   212  106  229 1    
   213  107  108 2    
   214  107  109 am   BACKBONE|DICT|INTERRES
   215  109  110 1    
   216  109  230 1    
   217  110  111 1    
   218  110  112 1    
   219  110  231 1    
   220  111  232 1    
   221  111  233 1    
   222  111  234 1    
   223  112  113 2    
   224  112  114 am   BACKBONE|DICT|INTERRES
   225  114  115 1    
   226  114  235 1    
   227  115  116 1    
   228  115  117 1    
   229  115  236 1    
   230  116  237 1    
   231  116  238 1    
   232  116  239 1    
   233  117  118 2    
   234  117  119 am   BACKBONE|DICT|INTERRES
   235  119  120 1    
   236  119  240 1    
   237  120  121 1    
   238  120  124 1    
   239  120  241 1    
   240  121  122 am   BACKBONE|DICT|INTERRES
   241  121  123 2    
   242  122  242 1    
   243  122  243 1    
   244  124  125 1    
   245  124  244 1    
   246  124  245 1    
   247  125  126 1    
   248  126  246 1    
   249  126  247 1    
@<TRIPOS>SUBSTRUCTURE
     1 UNK         1 GROUP             0       ****    0 ROOT    
