@<TRIPOS>MOLECULE
3R540
247   249    1
SMALL
USER_CHARGES


@<TRIPOS>ATOM
      1 CA         -1.4848  -12.0101  -45.3723 C.3       0 UNK        -0.1800 
      2 C          -1.9902  -13.4045  -45.7432 C.2       0 UNK         0.5000 
      3 O          -2.4422  -14.1309  -44.8605 O.2       0 UNK        -0.5000 
      4 N          -1.9564  -13.8204  -47.0185 N.am      1 UNK        -0.5000 
      5 CA         -1.3980  -13.1182  -48.1808 C.3       1 UNK         0.1400 
      6 C6         -1.7326  -13.8568  -49.4999 C.3       23 UNK        -0.0398 
      7 S7         -3.4559  -13.6328  -50.0748 S.3       23 UNK        -0.2404 
      8 C8         -4.4731  -14.6392  -48.9326 C.3       23 UNK        -0.0205 
      9 C9         -4.0707  -16.1064  -48.7766 C.ar      23 UNK        -0.0193 
     10 C10        -3.3131  -16.7855  -49.7373 C.ar      23 UNK        -0.1150 
     11 C11        -2.9396  -18.1178  -49.5481 C.ar      23 UNK        -0.0193 
     12 C12        -3.3552  -18.7879  -48.3971 C.ar      23 UNK        -0.1150 
     13 C13        -4.1423  -18.1399  -47.4410 C.ar      23 UNK        -0.0193 
     14 C14        -4.4894  -16.7990  -47.6356 C.ar      23 UNK        -0.1150 
     15 C15        -4.5724  -18.8651  -46.1733 C.3       23 UNK        -0.0205 
     16 S16        -5.2365  -20.5314  -46.4958 S.3       23 UNK        -0.2404 
     17 C17        -4.5999  -21.4371  -45.0456 C.3       23 UNK        -0.0398 
     18 CA         -3.1406  -21.9362  -45.2377 C.3       11 UNK         0.1400 
     19 N          -2.3794  -22.0164  -43.9815 N.am      11 UNK        -0.5000 
     20 C          -2.7014  -22.6754  -42.8578 C.2       10 UNK         0.5000 
     21 O          -3.7129  -23.3674  -42.7446 O.2       10 UNK        -0.5000 
     22 CA         -1.7188  -22.5697  -41.6782 C.3       10 UNK         0.1400 
     23 CB         -0.6097  -23.6250  -41.8150 C.3       10 UNK        -0.1800 
     24 N          -1.1132  -21.2397  -41.6107 N.am      10 UNK        -0.5000 
     25 C          -1.5430  -20.2405  -40.8258 C.2       9 UNK         0.5000 
     26 O          -2.4332  -20.3655  -39.9840 O.2       9 UNK        -0.5000 
     27 CA         -0.8863  -18.8571  -41.0297 C.3       9 UNK         0.1400 
     28 CB          0.3436  -18.7024  -40.1227 C.3       9 UNK        -0.1800 
     29 N          -0.4870  -18.6153  -42.4165 N.am      9 UNK        -0.5000 
     30 C          -1.3309  -18.5569  -43.4564 C.2       8 UNK         0.5000 
     31 O          -2.5544  -18.5428  -43.3323 O.2       8 UNK        -0.5000 
     32 CA         -0.7127  -18.5861  -44.8699 C.3       8 UNK         0.1400 
     33 CB         -0.7905  -17.2051  -45.5357 C.3       8 UNK        -0.1800 
     34 N           0.6712  -19.0682  -44.9013 N.am      8 UNK        -0.5000 
     35 C           1.0862  -20.2961  -44.5578 C.2       7 UNK         0.5000 
     36 O           0.3229  -21.1854  -44.1804 O.2       7 UNK        -0.5000 
     37 CA          2.5988  -20.5641  -44.6106 C.3       7 UNK         0.1400 
     38 CB          3.0131  -21.0709  -45.9977 C.3       7 UNK        -0.1800 
     39 N           3.3656  -19.3609  -44.2917 N.am      7 UNK        -0.5000 
     40 C           3.7099  -18.9859  -43.0529 C.2       6 UNK         0.5000 
     41 O           3.4416  -19.6371  -42.0433 O.2       6 UNK        -0.5000 
     42 CA          4.4748  -17.6549  -42.9151 C.3       6 UNK         0.1400 
     43 CB          5.9897  -17.8943  -43.0016 C.3       6 UNK        -0.1800 
     44 N           4.0881  -16.6627  -43.9201 N.am      6 UNK        -0.5000 
     45 C           2.9042  -16.0358  -43.9449 C.2       5 UNK         0.5000 
     46 O           2.0216  -16.2097  -43.1040 O.2       5 UNK        -0.5000 
     47 CA          2.6518  -15.0737  -45.1230 C.3       5 UNK         0.1400 
     48 CB          3.1485  -13.6627  -44.7737 C.3       5 UNK        -0.1800 
     49 N           3.2296  -15.4845  -46.4112 N.am      5 UNK        -0.5000 
     50 C           3.0204  -16.6611  -47.0196 C.2       4 UNK         0.5000 
     51 O           2.4460  -17.6076  -46.4837 O.2       4 UNK        -0.5000 
     52 CA          3.5217  -16.7952  -48.4657 C.3       4 UNK         0.1400 
     53 CB          3.0079  -18.0755  -49.1584 C.3       4 UNK        -0.1800 
     54 N           3.1367  -15.6159  -49.2397 N.am      4 UNK        -0.5000 
     55 C           3.7672  -15.1985  -50.3465 C.2       3 UNK         0.5000 
     56 O           4.7703  -15.7467  -50.8072 O.2       3 UNK        -0.5000 
     57 CA          3.1933  -13.9631  -51.0707 C.3       3 UNK         0.1400 
     58 CB          2.2400  -14.4050  -52.1928 C.3       3 UNK        -0.1800 
     59 N           2.4856  -13.0261  -50.1964 N.am      3 UNK        -0.5000 
     60 C           3.0258  -12.3410  -49.1783 C.2       2 UNK         0.5000 
     61 O           4.2141  -12.4063  -48.8626 O.2       2 UNK        -0.5000 
     62 CA          2.0756  -11.4389  -48.3633 C.3       2 UNK         0.1400 
     63 CB          2.2320   -9.9721  -48.7943 C.3       2 UNK        -0.1800 
     64 N           0.6565  -11.8074  -48.4451 N.am      2 UNK        -0.5000 
     65 C           0.1319  -12.9749  -48.0477 C.2       1 UNK         0.5000 
     66 O           0.8023  -13.9210  -47.6309 O.2       1 UNK        -0.5000 
     67 C          -3.0467  -23.2325  -46.0727 C.2       11 UNK         0.5000 
     68 O          -2.8178  -23.1696  -47.2842 O.2       11 UNK        -0.5000 
     69 N          -3.1465  -24.3901  -45.4061 N.am      12 UNK        -0.5000 
     70 CA         -2.9101  -25.7230  -45.9641 C.3       12 UNK         0.1400 
     71 CB         -3.1963  -26.7799  -44.8883 C.3       12 UNK        -0.1800 
     72 C          -1.4849  -25.8858  -46.5245 C.2       12 UNK         0.5000 
     73 O          -1.3088  -26.4787  -47.5885 O.2       12 UNK        -0.5000 
     74 N          -0.5058  -25.3080  -45.8162 N.am      13 UNK        -0.5000 
     75 CA          0.9049  -25.2918  -46.2000 C.3       13 UNK         0.1400 
     76 CB          1.7407  -24.8749  -44.9791 C.3       13 UNK        -0.1800 
     77 C           1.2068  -24.3583  -47.3879 C.2       13 UNK         0.5000 
     78 O           2.1901  -24.5865  -48.0927 O.2       13 UNK        -0.5000 
     79 N           0.3883  -23.3113  -47.5677 N.am      14 UNK        -0.5000 
     80 CA          0.5886  -22.2829  -48.5864 C.3       14 UNK         0.1400 
     81 CB         -0.1460  -20.9971  -48.1796 C.3       14 UNK        -0.1800 
     82 C           0.1443  -22.7595  -49.9762 C.2       14 UNK         0.5000 
     83 O           0.9390  -22.7038  -50.9151 O.2       14 UNK        -0.5000 
     84 N          -1.1098  -23.2177  -50.0822 N.am      15 UNK        -0.5000 
     85 CA         -1.7156  -23.6587  -51.3397 C.3       15 UNK         0.1400 
     86 CB         -1.9977  -22.4566  -52.2690 C.3       15 UNK        -0.1800 
     87 C          -2.9682  -24.5080  -51.0765 C.2       15 UNK         0.5000 
     88 O          -4.0116  -24.2630  -51.6810 O.2       15 UNK        -0.5000 
     89 N          -2.8621  -25.4858  -50.1631 N.am      16 UNK        -0.5000 
     90 CA         -3.9080  -26.4671  -49.8293 C.3       16 UNK         0.1400 
     91 CB         -4.1098  -27.4534  -50.9991 C.3       16 UNK        -0.1800 
     92 C          -5.2325  -25.8247  -49.3561 C.2       16 UNK         0.5000 
     93 O          -6.3125  -26.3425  -49.6447 O.2       16 UNK        -0.5000 
     94 N          -5.1075  -24.6953  -48.6447 N.am      17 UNK        -0.5000 
     95 CA         -6.1723  -23.8528  -48.0977 C.3       17 UNK         0.1400 
     96 CB         -7.0847  -24.6361  -47.1301 C.3       17 UNK        -0.1800 
     97 C          -6.9532  -23.0359  -49.1491 C.2       17 UNK         0.5000 
     98 O          -7.9813  -22.4496  -48.8055 O.2       17 UNK        -0.5000 
     99 N          -6.4545  -22.9631  -50.3922 N.am      18 UNK        -0.5000 
    100 CA        -6.9573  -22.0474  -51.4132 C.3       18 UNK         0.1400 
    101 CB        -6.6610  -22.6099  -52.8127 C.3       18 UNK        -0.1800 
    102 C         -6.3006  -20.6709  -51.2213 C.2       18 UNK         0.5000 
    103 O         -5.0729  -20.5689  -51.2719 O.2       18 UNK        -0.5000 
    104 N         -7.1243  -19.6382  -51.0069 N.am      19 UNK        -0.5000 
    105 CA        -6.6792  -18.2501  -50.8941 C.3       19 UNK         0.1400 
    106 CB        -7.8225  -17.3945  -50.3284 C.3       19 UNK        -0.1800 
    107 C         -6.2070  -17.7007  -52.2535 C.2       19 UNK         0.5000 
    108 O         -6.7233  -18.1107  -53.2954 O.2       19 UNK        -0.5000 
    109 N         -5.2254  -16.7914  -52.2111 N.am      20 UNK        -0.5000 
    110 CA        -4.5590  -16.0856  -53.3185 C.3       20 UNK         0.1400 
    111 CB        -5.5652  -15.2321  -54.1133 C.3       20 UNK        -0.1800 
    112 C         -3.7113  -16.9663  -54.2647 C.2       20 UNK         0.5000 
    113 O         -2.7965  -16.4444  -54.9031 O.2       20 UNK        -0.5000 
    114 N         -3.9918  -18.2748  -54.3252 N.am      21 UNK        -0.5000 
    115 CA        -3.3619  -19.2722  -55.1981 C.3       21 UNK         0.1400 
    116 CB        -4.0658  -20.6198  -54.9768 C.3       21 UNK        -0.1800 
    117 C         -1.8368  -19.4257  -55.0219 C.2       21 UNK         0.5000 
    118 O         -1.1584  -19.8552  -55.9557 O.2       21 UNK        -0.5000 
    119 N         -1.3301  -19.0601  -53.8403 N.am      22 UNK        -0.5000 
    120 CA         0.0985  -18.9789  -53.5089 C.3       22 UNK         0.1400 
    121 C          0.8273  -17.7238  -54.0774 C.2       22 UNK         0.5000 
    122 N          0.1362  -16.7409  -54.6452 N.am      22 UNK        -0.7600 
    123 O          2.0516  -17.6513  -54.0204 O.2       22 UNK        -0.5000 
    124 C124        0.3352  -19.1553  -51.9862 C.3       23 UNK        -0.0398 
    125 S125       -0.5484  -17.9467  -50.9402 S.3       23 UNK        -0.2404 
    126 C126       -2.1032  -18.8358  -50.5933 C.3       23 UNK        -0.0205 
    127 H127       -1.7971  -11.2581  -46.0960 H         1 UNK         0.0600 
    128 H128       -0.3964  -12.0040  -45.3028 H         1 UNK         0.0600 
    129 H129       -1.8815  -11.7109  -44.4011 H         1 UNK         0.0600 
    130 H130       -2.2816  -14.7559  -47.2135 H         1 UNK         0.3000 
    131 H131       -1.8392  -12.1210  -48.2253 H         1 UNK         0.0600 
    132 H132       -1.4796  -14.9142  -49.4207 H         1 UNK         0.0800 
    133 H133       -1.1121  -13.4785  -50.3159 H         1 UNK         0.0800 
    134 H134       -5.5052  -14.6090  -49.2883 H         1 UNK         0.0800 
    135 H135       -4.4815  -14.1499  -47.9564 H         1 UNK         0.0800 
    136 H136       -2.9810  -16.2798  -50.6320 H         1 UNK         0.1150 
    137 H137       -3.0776  -19.8213  -48.2484 H         1 UNK         0.1150 
    138 H138       -5.0817  -16.2879  -46.8892 H         1 UNK         0.1150 
    139 H139       -3.6989  -18.9368  -45.5308 H         1 UNK         0.0800 
    140 H140       -5.3181  -18.2901  -45.6215 H         1 UNK         0.0800 
    141 H141       -5.2749  -22.2641  -44.8173 H         1 UNK         0.0800 
    142 H142       -4.6591  -20.7667  -44.1862 H         1 UNK         0.0800 
    143 H143       -2.6072  -21.1820  -45.8165 H         1 UNK         0.0600 
    144 H144       -1.4654  -21.5716  -44.0074 H         1 UNK         0.3000 
    145 H145       -2.2729  -22.7796  -40.7610 H         1 UNK         0.0600 
    146 H146        0.0632  -23.5990  -40.9578 H         1 UNK         0.0600 
    147 H147       -1.0297  -24.6304  -41.8676 H         1 UNK         0.0600 
    148 H148       -0.0105  -23.4712  -42.7123 H         1 UNK         0.0600 
    149 H149       -0.3929  -21.0447  -42.2961 H         1 UNK         0.3000 
    150 H150       -1.6181  -18.0957  -40.7524 H         1 UNK         0.0600 
    151 H151        0.0755  -18.8393  -39.0744 H         1 UNK         0.0600 
    152 H152        0.7829  -17.7091  -40.2194 H         1 UNK         0.0600 
    153 H153        1.1156  -19.4346  -40.3633 H         1 UNK         0.0600 
    154 H154        0.5042  -18.5759  -42.6065 H         1 UNK         0.3000 
    155 H155       -1.3054  -19.2760  -45.4708 H         1 UNK         0.0600 
    156 H156       -0.2428  -16.4557  -44.9652 H         1 UNK         0.0600 
    157 H157       -1.8249  -16.8669  -45.6096 H         1 UNK         0.0600 
    158 H158       -0.3845  -17.2255  -46.5475 H         1 UNK         0.0600 
    159 H159        1.3581  -18.4248  -45.2889 H         1 UNK         0.3000 
    160 H160        2.8273  -21.3467  -43.8839 H         1 UNK         0.0600 
    161 H161        2.7364  -20.3699  -46.7852 H         1 UNK         0.0600 
    162 H162        2.5327  -22.0224  -46.2176 H         1 UNK         0.0600 
    163 H163        4.0895  -21.2334  -46.0549 H         1 UNK         0.0600 
    164 H164        3.5477  -18.7288  -45.0611 H         1 UNK         0.3000 
    165 H165        4.2509  -17.2461  -41.9273 H         1 UNK         0.0600 
    166 H166        6.5454  -16.9722  -42.8296 H         1 UNK         0.0600 
    167 H167        6.3148  -18.6134  -42.2484 H         1 UNK         0.0600 
    168 H168        6.2811  -18.2861  -43.9770 H         1 UNK         0.0600 
    169 H169        4.7547  -16.4633  -44.6514 H         1 UNK         0.3000 
    170 H170        1.5709  -15.0191  -45.2635 H         1 UNK         0.0600 
    171 H171        2.7301  -13.3227  -43.8251 H         1 UNK         0.0600 
    172 H172        4.2356  -13.6279  -44.6869 H         1 UNK         0.0600 
    173 H173        2.8473  -12.9427  -45.5330 H         1 UNK         0.0600 
    174 H174        3.7168  -14.7663  -46.9273 H         1 UNK         0.3000 
    175 H175        4.6113  -16.8457  -48.4100 H         1 UNK         0.0600 
    176 H176        1.9179  -18.1079  -49.1769 H         1 UNK         0.0600 
    177 H177        3.3623  -18.1472  -50.1868 H         1 UNK         0.0600 
    178 H178        3.3550  -18.9682  -48.6377 H         1 UNK         0.0600 
    179 H179        2.3335  -15.1003  -48.8961 H         1 UNK         0.3000 
    180 H180        4.0316  -13.4277  -51.5222 H         1 UNK         0.0600 
    181 H181        1.3718  -14.9365  -51.7988 H         1 UNK         0.0600 
    182 H182        2.7433  -15.0769  -52.8901 H         1 UNK         0.0600 
    183 H183        1.8810  -13.5515  -52.7689 H         1 UNK         0.0600 
    184 H184        1.5033  -12.8952  -50.3822 H         1 UNK         0.3000 
    185 H185        2.3759  -11.5152  -47.3171 H         1 UNK         0.0600 
    186 H186        3.2714   -9.6490  -48.7168 H         1 UNK         0.0600 
    187 H187        1.9178   -9.8209  -49.8283 H         1 UNK         0.0600 
    188 H188        1.6412   -9.3089  -48.1618 H         1 UNK         0.0600 
    189 H189        0.0387  -11.0888  -48.7962 H         1 UNK         0.3000 
    190 H190       -3.3628  -24.3375  -44.4152 H         1 UNK         0.3000 
    191 H191       -3.6124  -25.8798  -46.7806 H         1 UNK         0.0600 
    192 H192       -4.2298  -26.7219  -44.5459 H         1 UNK         0.0600 
    193 H193       -2.5483  -26.6582  -44.0193 H         1 UNK         0.0600 
    194 H194       -3.0398  -27.7869  -45.2777 H         1 UNK         0.0600 
    195 H195       -0.7470  -24.8407  -44.9556 H         1 UNK         0.3000 
    196 H196        1.1960  -26.3041  -46.4887 H         1 UNK         0.0600 
    197 H197        2.8065  -24.8900  -45.2115 H         1 UNK         0.0600 
    198 H198        1.5825  -25.5532  -44.1403 H         1 UNK         0.0600 
    199 H199        1.4933  -23.8655  -44.6473 H         1 UNK         0.0600 
    200 H200       -0.4267  -23.2231  -46.9799 H         1 UNK         0.3000 
    201 H201        1.6542  -22.0482  -48.6399 H         1 UNK         0.0600 
    202 H202        0.1861  -20.6433  -47.2076 H         1 UNK         0.0600 
    203 H203       -1.2237  -21.1430  -48.1289 H         1 UNK         0.0600 
    204 H204        0.0521  -20.1958  -48.8913 H         1 UNK         0.0600 
    205 H205       -1.7021  -23.2371  -49.2598 H         1 UNK         0.3000 
    206 H206       -1.0112  -24.3195  -51.8489 H         1 UNK         0.0600 
    207 H207       -1.0794  -21.9576  -52.5724 H         1 UNK         0.0600 
    208 H208       -2.4910  -22.7761  -53.1876 H         1 UNK         0.0600 
    209 H209       -2.6423  -21.7212  -51.7877 H         1 UNK         0.0600 
    210 H210       -1.9806  -25.6130  -49.6812 H         1 UNK         0.3000 
    211 H211       -3.5348  -27.0445  -48.9834 H         1 UNK         0.0600 
    212 H212       -4.5412  -26.9630  -51.8723 H         1 UNK         0.0600 
    213 H213       -4.7799  -28.2662  -50.7162 H         1 UNK         0.0600 
    214 H214       -3.1649  -27.9054  -51.3008 H         1 UNK         0.0600 
    215 H215       -4.1722  -24.3378  -48.4893 H         1 UNK         0.3000 
    216 H216       -5.6521  -23.1117  -47.4965 H         1 UNK         0.0600 
    217 H217       -7.7411  -23.9599  -46.5810 H         1 UNK         0.0600 
    218 H218       -6.4986  -25.1847  -46.3923 H         1 UNK         0.0600 
    219 H219       -7.7208  -25.3488  -47.6557 H         1 UNK         0.0600 
    220 H220       -5.5933  -23.4492  -50.6185 H         1 UNK         0.3000 
    221 H221       -8.0412  -21.9528  -51.3183 H         1 UNK         0.0600 
    222 H222       -5.5905  -22.6710  -53.0086 H         1 UNK         0.0600 
    223 H223       -7.0812  -23.6083  -52.9353 H         1 UNK         0.0600 
    224 H224       -7.0951  -21.9735  -53.5849 H         1 UNK         0.0600 
    225 H225       -8.1213  -19.7945  -50.9970 H         1 UNK         0.3000 
    226 H226       -5.8459  -18.2195  -50.1892 H         1 UNK         0.0600 
    227 H227       -8.1383  -17.7570  -49.3497 H         1 UNK         0.0600 
    228 H228       -7.5084  -16.3574  -50.2026 H         1 UNK         0.0600 
    229 H229       -8.6924  -17.3974  -50.9870 H         1 UNK         0.0600 
    230 H230       -4.8681  -16.5538  -51.2958 H         1 UNK         0.3000 
    231 H231       -3.8574  -15.3980  -52.8436 H         1 UNK         0.0600 
    232 H232       -5.0532  -14.6167  -54.8542 H         1 UNK         0.0600 
    233 H233       -6.1153  -14.5581  -53.4562 H         1 UNK         0.0600 
    234 H234       -6.2896  -15.8469  -54.6479 H         1 UNK         0.0600 
    235 H235       -4.8045  -18.5875  -53.8072 H         1 UNK         0.3000 
    236 H236       -3.5355  -18.9591  -56.2295 H         1 UNK         0.0600 
    237 H237       -3.6286  -21.4025  -55.5984 H         1 UNK         0.0600 
    238 H238       -3.9897  -20.9418  -53.9378 H         1 UNK         0.0600 
    239 H239       -5.1248  -20.5582  -55.2285 H         1 UNK         0.0600 
    240 H240       -1.9615  -18.6882  -53.1488 H         1 UNK         0.3000 
    241 H241        0.5855  -19.8274  -53.9932 H         1 UNK         0.0600 
    242 H242        0.6303  -15.9459  -55.0158 H         1 UNK         0.3800 
    243 H243       -0.8763  -16.7727  -54.7129 H         1 UNK         0.3800 
    244 H244        0.0449  -20.1594  -51.6822 H         1 UNK         0.0800 
    245 H245        1.3999  -19.0890  -51.7564 H         1 UNK         0.0800 
    246 H246       -2.6997  -18.9290  -51.5001 H         1 UNK         0.0800 
    247 H247       -1.8797  -19.8526  -50.2702 H         1 UNK         0.0800 
@<TRIPOS>BOND
     1    1    2 1    
     2    1  127 1    
     3    1  128 1    
     4    1  129 1    
     5    2    3 2    
     6    2    4 am   BACKBONE|DICT|INTERRES
     7    4    5 1    
     8    4  130 1    
     9    5    6 1    
    10    5   65 1    
    11    5  131 1    
    12    6    7 1    
    13    6  132 1    
    14    6  133 1    
    15    7    8 1    
    16    8    9 1    
    17    8  134 1    
    18    8  135 1    
    19    9   10 ar   
    20    9   14 ar   
    21   10   11 ar   
    22   10  136 1    
    23   11   12 ar   
    24   11  126 1    
    25   12   13 ar   
    26   12  137 1    
    27   13   14 ar   
    28   13   15 1    
    29   14  138 1    
    30   15   16 1    
    31   15  139 1    
    32   15  140 1    
    33   16   17 1    
    34   17   18 1    
    35   17  141 1    
    36   17  142 1    
    37   18   19 1    
    38   18   67 1    
    39   18  143 1    
    40   19   20 am   BACKBONE|DICT|INTERRES
    41   19  144 1    
    42   20   21 2    
    43   20   22 1    
    44   22   23 1    
    45   22   24 1    
    46   22  145 1    
    47   23  146 1    
    48   23  147 1    
    49   23  148 1    
    50   24   25 am   BACKBONE|DICT|INTERRES
    51   24  149 1    
    52   25   26 2    
    53   25   27 1    
    54   27   28 1    
    55   27   29 1    
    56   27  150 1    
    57   28  151 1    
    58   28  152 1    
    59   28  153 1    
    60   29   30 am   BACKBONE|DICT|INTERRES
    61   29  154 1    
    62   30   31 2    
    63   30   32 1    
    64   32   33 1    
    65   32   34 1    
    66   32  155 1    
    67   33  156 1    
    68   33  157 1    
    69   33  158 1    
    70   34   35 am   BACKBONE|DICT|INTERRES
    71   34  159 1    
    72   35   36 2    
    73   35   37 1    
    74   37   38 1    
    75   37   39 1    
    76   37  160 1    
    77   38  161 1    
    78   38  162 1    
    79   38  163 1    
    80   39   40 am   BACKBONE|DICT|INTERRES
    81   39  164 1    
    82   40   41 2    
    83   40   42 1    
    84   42   43 1    
    85   42   44 1    
    86   42  165 1    
    87   43  166 1    
    88   43  167 1    
    89   43  168 1    
    90   44   45 am   BACKBONE|DICT|INTERRES
    91   44  169 1    
    92   45   46 2    
    93   45   47 1    
    94   47   48 1    
    95   47   49 1    
    96   47  170 1    
    97   48  171 1    
    98   48  172 1    
    99   48  173 1    
   100   49   50 am   BACKBONE|DICT|INTERRES
   101   49  174 1    
   102   50   51 2    
   103   50   52 1    
   104   52   53 1    
   105   52   54 1    
   106   52  175 1    
   107   53  176 1    
   108   53  177 1    
   109   53  178 1    
   110   54   55 am   BACKBONE|DICT|INTERRES
   111   54  179 1    
   112   55   56 2    
   113   55   57 1    
   114   57   58 1    
   115   57   59 1    
   116   57  180 1    
   117   58  181 1    
   118   58  182 1    
   119   58  183 1    
   120   59   60 am   BACKBONE|DICT|INTERRES
   121   59  184 1    
   122   60   61 2    
   123   60   62 1    
   124   62   63 1    
   125   62   64 1    
   126   62  185 1    
   127   63  186 1    
   128   63  187 1    
   129   63  188 1    
   130   64   65 am   BACKBONE|DICT|INTERRES
   131   64  189 1    
   132   65   66 2    
   133   67   68 2    
   134   67   69 am   BACKBONE|DICT|INTERRES
   135   69   70 1    
   136   69  190 1    
   137   70   71 1    
   138   70   72 1    
   139   70  191 1    
   140   71  192 1    
   141   71  193 1    
   142   71  194 1    
   143   72   73 2    
   144   72   74 am   BACKBONE|DICT|INTERRES
   145   74   75 1    
   146   74  195 1    
   147   75   76 1    
   148   75   77 1    
   149   75  196 1    
   150   76  197 1    
   151   76  198 1    
   152   76  199 1    
   153   77   78 2    
   154   77   79 am   BACKBONE|DICT|INTERRES
   155   79   80 1    
   156   79  200 1    
   157   80   81 1    
   158   80   82 1    
   159   80  201 1    
   160   81  202 1    
   161   81  203 1    
   162   81  204 1    
   163   82   83 2    
   164   82   84 am   BACKBONE|DICT|INTERRES
   165   84   85 1    
   166   84  205 1    
   167   85   86 1    
   168   85   87 1    
   169   85  206 1    
   170   86  207 1    
   171   86  208 1    
   172   86  209 1    
   173   87   88 2    
   174   87   89 am   BACKBONE|DICT|INTERRES
   175   89   90 1    
   176   89  210 1    
   177   90   91 1    
   178   90   92 1    
   179   90  211 1    
   180   91  212 1    
   181   91  213 1    
   182   91  214 1    
   183   92   93 2    
   184   92   94 am   BACKBONE|DICT|INTERRES
   185   94   95 1    
   186   94  215 1    
   187   95   96 1    
   188   95   97 1    
   189   95  216 1    
   190   96  217 1    
   191   96  218 1    
   192   96  219 1    
   193   97   98 2    
   194   97   99 am   BACKBONE|DICT|INTERRES
   195   99  100 1    
   196   99  220 1    
   197  100  101 1    
   198  100  102 1    
   199  100  221 1    
   200  101  222 1    
   201  101  223 1    
   202  101  224 1    
   203  102  103 2    
   204  102  104 am   BACKBONE|DICT|INTERRES
   205  104  105 1    
   206  104  225 1    
   207  105  106 1    
   208  105  107 1    
   209  105  226 1    
   210  106  227 1    
   211  106  228 1    
   212  106  229 1    
   213  107  108 2    
   214  107  109 am   BACKBONE|DICT|INTERRES
   215  109  110 1    
   216  109  230 1    
   217  110  111 1    
   218  110  112 1    
   219  110  231 1    
   220  111  232 1    
   221  111  233 1    
   222  111  234 1    
   223  112  113 2    
   224  112  114 am   BACKBONE|DICT|INTERRES
   225  114  115 1    
   226  114  235 1    
   227  115  116 1    
   228  115  117 1    
   229  115  236 1    
   230  116  237 1    
   231  116  238 1    
   232  116  239 1    
   233  117  118 2    
   234  117  119 am   BACKBONE|DICT|INTERRES
   235  119  120 1    
   236  119  240 1    
   237  120  121 1    
   238  120  124 1    
   239  120  241 1    
   240  121  122 am   BACKBONE|DICT|INTERRES
   241  121  123 2    
   242  122  242 1    
   243  122  243 1    
   244  124  125 1    
   245  124  244 1    
   246  124  245 1    
   247  125  126 1    
   248  126  246 1    
   249  126  247 1    
@<TRIPOS>SUBSTRUCTURE
     1 UNK         1 GROUP             0       ****    0 ROOT    
