@<TRIPOS>MOLECULE
3R540
247   249    1
SMALL
USER_CHARGES


@<TRIPOS>ATOM
      1 CA          4.1256  -15.0421  -46.6694 C.3       0 UNK        -0.1800 
      2 C           3.1054  -14.0245  -46.1830 C.2       0 UNK         0.5000 
      3 O           3.2455  -13.4929  -45.0826 O.2       0 UNK        -0.5000 
      4 N           2.0820  -13.7391  -46.9995 N.am      1 UNK        -0.5000 
      5 CA          0.9569  -12.8445  -46.6804 C.3       1 UNK         0.1400 
      6 C6         -0.1866  -12.9484  -47.7172 C.3       23 UNK        -0.0398 
      7 S7         -0.8786  -14.6349  -47.8097 S.3       23 UNK        -0.2404 
      8 C8         -0.6447  -15.0175  -49.5739 C.3       23 UNK        -0.0205 
      9 C9         -1.1523  -16.4106  -49.9143 C.ar      23 UNK        -0.0193 
     10 C10        -2.5274  -16.6618  -49.9623 C.ar      23 UNK        -0.1150 
     11 C11        -3.0052  -17.9391  -50.2672 C.ar      23 UNK        -0.0193 
     12 C12        -2.0974  -18.9646  -50.5363 C.ar      23 UNK        -0.1150 
     13 C13        -0.7205  -18.7275  -50.5006 C.ar      23 UNK        -0.0193 
     14 C14        -0.2533  -17.4471  -50.1888 C.ar      23 UNK        -0.1150 
     15 C15         0.2567  -19.8562  -50.8026 C.3       23 UNK        -0.0205 
     16 S16         0.9072  -20.6277  -49.2866 S.3       23 UNK        -0.2404 
     17 C17        -0.6302  -21.2115  -48.4979 C.3       23 UNK        -0.0398 
     18 CA         -0.4600  -22.5319  -47.7136 C.3       11 UNK         0.1400 
     19 N           0.5631  -22.4343  -46.6697 N.am      11 UNK        -0.5000 
     20 C           1.3013  -23.4607  -46.2252 C.2       10 UNK         0.5000 
     21 O           1.1726  -24.6144  -46.6357 O.2       10 UNK        -0.5000 
     22 CA          2.3495  -23.1604  -45.1329 C.3       10 UNK         0.1400 
     23 CB          3.7418  -22.9977  -45.7611 C.3       10 UNK        -0.1800 
     24 N           2.0465  -21.9665  -44.3407 N.am      10 UNK        -0.5000 
     25 C           1.0067  -21.8459  -43.5041 C.2       9 UNK         0.5000 
     26 O           0.2205  -22.7615  -43.2637 O.2       9 UNK        -0.5000 
     27 CA          0.7764  -20.4605  -42.8672 C.3       9 UNK         0.1400 
     28 CB          1.4191  -20.3920  -41.4741 C.3       9 UNK        -0.1800 
     29 N           1.2610  -19.3321  -43.6699 N.am      9 UNK        -0.5000 
     30 C           0.8756  -19.0320  -44.9170 C.2       8 UNK         0.5000 
     31 O           0.0954  -19.7259  -45.5698 O.2       8 UNK        -0.5000 
     32 CA          1.4509  -17.7310  -45.5109 C.3       8 UNK         0.1400 
     33 CB          1.1277  -17.5672  -47.0040 C.3       8 UNK        -0.1800 
     34 N           0.9499  -16.5625  -44.7884 N.am      8 UNK        -0.5000 
     35 C           1.4170  -16.1333  -43.6094 C.2       7 UNK         0.5000 
     36 O           2.3693  -16.6683  -43.0341 O.2       7 UNK        -0.5000 
     37 CA          0.7168  -14.8982  -43.0017 C.3       7 UNK         0.1400 
     38 CB         -0.8228  -14.9887  -43.0591 C.3       7 UNK        -0.1800 
     39 N           1.1699  -14.5897  -41.6446 N.am      7 UNK        -0.5000 
     40 C           1.0480  -15.3323  -40.5338 C.2       6 UNK         0.5000 
     41 O           0.4341  -16.3984  -40.4723 O.2       6 UNK        -0.5000 
     42 CA          1.7206  -14.7736  -39.2681 C.3       6 UNK         0.1400 
     43 CB          3.2255  -15.0869  -39.2787 C.3       6 UNK        -0.1800 
     44 N           1.5345  -13.3252  -39.1778 N.am      6 UNK        -0.5000 
     45 C           0.7465  -12.7025  -38.2914 C.2       5 UNK         0.5000 
     46 O           0.1572  -13.2747  -37.3734 O.2       5 UNK        -0.5000 
     47 CA          0.5702  -11.1788  -38.4660 C.3       5 UNK         0.1400 
     48 CB          1.6082  -10.4175  -37.6276 C.3       5 UNK        -0.1800 
     49 N           0.6693  -10.7408  -39.8605 N.am      5 UNK        -0.5000 
     50 C          -0.1839  -11.0874  -40.8343 C.2       4 UNK         0.5000 
     51 O          -1.2162  -11.7287  -40.6363 O.2       4 UNK        -0.5000 
     52 CA          0.1727  -10.6708  -42.2760 C.3       4 UNK         0.1400 
     53 CB         -0.6752   -9.4613  -42.6996 C.3       4 UNK        -0.1800 
     54 N           1.5850  -10.3660  -42.5409 N.am      4 UNK        -0.5000 
     55 C           2.6445  -11.1547  -42.3110 C.2       3 UNK         0.5000 
     56 O           2.5896  -12.2066  -41.6720 O.2       3 UNK        -0.5000 
     57 CA          3.9694  -10.6982  -42.9456 C.3       3 UNK         0.1400 
     58 CB          5.1369  -11.6508  -42.6305 C.3       3 UNK        -0.1800 
     59 N           3.7883  -10.6361  -44.3938 N.am      3 UNK        -0.5000 
     60 C           3.5428   -9.5248  -45.1017 C.2       2 UNK         0.5000 
     61 O           3.5324   -8.3951  -44.6121 O.2       2 UNK        -0.5000 
     62 CA          3.2110   -9.7040  -46.5985 C.3       2 UNK         0.1400 
     63 CB          4.4804   -9.5612  -47.4515 C.3       2 UNK        -0.1800 
     64 N           2.5791  -10.9919  -46.8941 N.am      2 UNK        -0.5000 
     65 C           1.3675  -11.3705  -46.4603 C.2       1 UNK         0.5000 
     66 O           0.5935  -10.6150  -45.8730 O.2       1 UNK        -0.5000 
     67 C          -1.8259  -22.9899  -47.1618 C.2       11 UNK         0.5000 
     68 O          -2.7374  -23.2103  -47.9604 O.2       11 UNK        -0.5000 
     69 N          -1.9613  -23.1398  -45.8334 N.am      12 UNK        -0.5000 
     70 CA         -3.1975  -23.5294  -45.1416 C.3       12 UNK         0.1400 
     71 CB         -2.9575  -23.5061  -43.6254 C.3       12 UNK        -0.1800 
     72 C          -3.7725  -24.8934  -45.5756 C.2       12 UNK         0.5000 
     73 O          -4.9736  -25.1231  -45.4231 O.2       12 UNK        -0.5000 
     74 N          -2.9226  -25.7551  -46.1491 N.am      13 UNK        -0.5000 
     75 CA         -3.2884  -26.9911  -46.8342 C.3       13 UNK         0.1400 
     76 CB         -2.0266  -27.8612  -46.9763 C.3       13 UNK        -0.1800 
     77 C          -3.9590  -26.7005  -48.1951 C.2       13 UNK         0.5000 
     78 O          -3.3563  -26.9373  -49.2426 O.2       13 UNK        -0.5000 
     79 N          -5.1912  -26.1756  -48.1467 N.am      14 UNK        -0.5000 
     80 CA         -6.1038  -25.9266  -49.2685 C.3       14 UNK         0.1400 
     81 CB         -6.6135  -27.2679  -49.8376 C.3       14 UNK        -0.1800 
     82 C          -5.5161  -25.0066  -50.3596 C.2       14 UNK         0.5000 
     83 O          -5.5389  -25.3610  -51.5385 O.2       14 UNK        -0.5000 
     84 N          -4.9828  -23.8475  -49.9460 N.am      15 UNK        -0.5000 
     85 CA         -4.3436  -22.8300  -50.7935 C.3       15 UNK         0.1400 
     86 CB         -5.3702  -22.1751  -51.7405 C.3       15 UNK        -0.1800 
     87 C          -3.1081  -23.3880  -51.5297 C.2       15 UNK         0.5000 
     88 O          -2.9705  -23.2193  -52.7452 O.2       15 UNK        -0.5000 
     89 N          -2.2582  -24.0749  -50.7527 N.am      16 UNK        -0.5000 
     90 CA         -1.0589  -24.8079  -51.1662 C.3       16 UNK         0.1400 
     91 CB          0.0332  -23.8303  -51.6486 C.3       16 UNK        -0.1800 
     92 C          -1.3834  -25.9108  -52.1939 C.2       16 UNK         0.5000 
     93 O          -0.8029  -25.9362  -53.2783 O.2       16 UNK        -0.5000 
     94 N          -2.3426  -26.7797  -51.8435 N.am      17 UNK        -0.5000 
     95 CA         -2.9018  -27.8595  -52.6655 C.3       17 UNK         0.1400 
     96 CB         -1.8652  -28.9847  -52.8624 C.3       17 UNK        -0.1800 
     97 C          -3.4977  -27.3403  -53.9921 C.2       17 UNK         0.5000 
     98 O          -3.2522  -27.9110  -55.0564 O.2       17 UNK        -0.5000 
     99 N          -4.2528  -26.2386  -53.8869 N.am      18 UNK        -0.5000 
    100 CA        -4.9035  -25.4786  -54.9546 C.3       18 UNK         0.1400 
    101 CB        -6.0002  -26.3208  -55.6381 C.3       18 UNK        -0.1800 
    102 C         -3.9329  -24.8278  -55.9640 C.2       18 UNK         0.5000 
    103 O         -4.3616  -24.4745  -57.0632 O.2       18 UNK        -0.5000 
    104 N         -2.6588  -24.6434  -55.5855 N.am      19 UNK        -0.5000 
    105 CA        -1.6616  -23.9499  -56.4039 C.3       19 UNK         0.1400 
    106 CB        -0.2465  -24.2610  -55.8974 C.3       19 UNK        -0.1800 
    107 C         -1.9008  -22.4313  -56.4389 C.2       19 UNK         0.5000 
    108 O         -1.7640  -21.8235  -57.5016 O.2       19 UNK        -0.5000 
    109 N         -2.2723  -21.8505  -55.2887 N.am      20 UNK        -0.5000 
    110 CA        -2.6562  -20.4415  -55.1818 C.3       20 UNK         0.1400 
    111 CB        -2.3474  -19.9377  -53.7676 C.3       20 UNK        -0.1800 
    112 C         -4.1389  -20.2248  -55.5368 C.2       20 UNK         0.5000 
    113 O         -4.4887  -19.1517  -56.0285 O.2       20 UNK        -0.5000 
    114 N         -4.9651  -21.2594  -55.3081 N.am      21 UNK        -0.5000 
    115 CA        -6.3880  -21.3606  -55.6578 C.3       21 UNK         0.1400 
    116 CB        -6.5560  -21.4567  -57.1883 C.3       21 UNK        -0.1800 
    117 C         -7.2598  -20.2531  -55.0253 C.2       21 UNK         0.5000 
    118 O         -8.1244  -19.6820  -55.6928 O.2       21 UNK        -0.5000 
    119 N         -7.0072  -19.9689  -53.7418 N.am      22 UNK        -0.5000 
    120 CA        -7.6857  -18.9230  -52.9551 C.3       22 UNK         0.1400 
    121 C         -9.1774  -19.2145  -52.6108 C.2       22 UNK         0.5000 
    122 N         -9.6776  -20.4328  -52.7779 N.am      22 UNK        -0.7600 
    123 O         -9.8957  -18.3141  -52.1849 O.2       22 UNK        -0.5000 
    124 C124       -6.9010  -18.5696  -51.6652 C.3       23 UNK        -0.0398 
    125 S125       -5.1662  -18.1022  -51.9787 S.3       23 UNK        -0.2404 
    126 C126       -4.4979  -18.2223  -50.2929 C.3       23 UNK        -0.0205 
    127 H127        3.8621  -15.4465  -47.6469 H         1 UNK         0.0600 
    128 H128        4.1897  -15.8704  -45.9640 H         1 UNK         0.0600 
    129 H129        5.1097  -14.5797  -46.7442 H         1 UNK         0.0600 
    130 H130        2.0244  -14.2011  -47.8953 H         1 UNK         0.3000 
    131 H131        0.5523  -13.1790  -45.7239 H         1 UNK         0.0600 
    132 H132        0.1596  -12.6284  -48.7015 H         1 UNK         0.0800 
    133 H133       -1.0073  -12.2789  -47.4523 H         1 UNK         0.0800 
    134 H134        0.4120  -14.9235  -49.8284 H         1 UNK         0.0800 
    135 H135       -1.1777  -14.2822  -50.1787 H         1 UNK         0.0800 
    136 H136       -3.2245  -15.8628  -49.7517 H         1 UNK         0.1150 
    137 H137       -2.4682  -19.9501  -50.7755 H         1 UNK         0.1150 
    138 H138        0.8111  -17.2624  -50.1529 H         1 UNK         0.1150 
    139 H139       -0.2196  -20.6212  -51.4176 H         1 UNK         0.0800 
    140 H140        1.0911  -19.4706  -51.3899 H         1 UNK         0.0800 
    141 H141       -1.3751  -21.3568  -49.2804 H         1 UNK         0.0800 
    142 H142       -1.0110  -20.4158  -47.8557 H         1 UNK         0.0800 
    143 H143       -0.1483  -23.2956  -48.4289 H         1 UNK         0.0600 
    144 H144        0.6848  -21.5124  -46.2627 H         1 UNK         0.3000 
    145 H145        2.3751  -24.0181  -44.4575 H         1 UNK         0.0600 
    146 H146        3.7801  -22.1427  -46.4376 H         1 UNK         0.0600 
    147 H147        4.5065  -22.8576  -44.9969 H         1 UNK         0.0600 
    148 H148        4.0172  -23.8831  -46.3358 H         1 UNK         0.0600 
    149 H149        2.6411  -21.1633  -44.4813 H         1 UNK         0.3000 
    150 H150       -0.3021  -20.3359  -42.7517 H         1 UNK         0.0600 
    151 H151        1.0567  -21.1986  -40.8353 H         1 UNK         0.0600 
    152 H152        1.1803  -19.4517  -40.9759 H         1 UNK         0.0600 
    153 H153        2.5051  -20.4770  -41.5282 H         1 UNK         0.0600 
    154 H154        1.8679  -18.6680  -43.2005 H         1 UNK         0.3000 
    155 H155        2.5376  -17.7748  -45.4136 H         1 UNK         0.0600 
    156 H156        1.5666  -18.3783  -47.5833 H         1 UNK         0.0600 
    157 H157        1.5321  -16.6371  -47.4005 H         1 UNK         0.0600 
    158 H158        0.0530  -17.5718  -47.1906 H         1 UNK         0.0600 
    159 H159        0.1537  -16.0983  -45.2006 H         1 UNK         0.3000 
    160 H160        1.0238  -14.0432  -43.6031 H         1 UNK         0.0600 
    161 H161       -1.2842  -14.1370  -42.5584 H         1 UNK         0.0600 
    162 H162       -1.1931  -15.8966  -42.5818 H         1 UNK         0.0600 
    163 H163       -1.1849  -14.9864  -44.0876 H         1 UNK         0.0600 
    164 H164        1.7430  -13.7504  -41.5865 H         1 UNK         0.3000 
    165 H165        1.2760  -15.2753  -38.4061 H         1 UNK         0.0600 
    166 H166        3.7318  -14.6078  -40.1180 H         1 UNK         0.0600 
    167 H167        3.7040  -14.7460  -38.3605 H         1 UNK         0.0600 
    168 H168        3.3999  -16.1606  -39.3589 H         1 UNK         0.0600 
    169 H169        1.9547  -12.7731  -39.9187 H         1 UNK         0.3000 
    170 H170       -0.4250  -10.9170  -38.1006 H         1 UNK         0.0600 
    171 H171        2.6255  -10.6231  -37.9632 H         1 UNK         0.0600 
    172 H172        1.4468   -9.3407  -37.6816 H         1 UNK         0.0600 
    173 H173        1.5454  -10.7021  -36.5764 H         1 UNK         0.0600 
    174 H174        1.4895  -10.2103  -40.1141 H         1 UNK         0.3000 
    175 H175       -0.0923  -11.5120  -42.9197 H         1 UNK         0.0600 
    176 H176       -0.4264   -8.5739  -42.1164 H         1 UNK         0.0600 
    177 H177       -0.5275   -9.2232  -43.7531 H         1 UNK         0.0600 
    178 H178       -1.7392   -9.6585  -42.5611 H         1 UNK         0.0600 
    179 H179        1.7491   -9.5250  -43.0766 H         1 UNK         0.3000 
    180 H180        4.2148   -9.7148  -42.5399 H         1 UNK         0.0600 
    181 H181        4.9454  -12.6602  -42.9975 H         1 UNK         0.0600 
    182 H182        5.3072  -11.7182  -41.5553 H         1 UNK         0.0600 
    183 H183        6.0633  -11.3005  -43.0855 H         1 UNK         0.0600 
    184 H184        3.7009  -11.5377  -44.8527 H         1 UNK         0.3000 
    185 H185        2.5153   -8.9112  -46.8812 H         1 UNK         0.0600 
    186 H186        4.2493   -9.6158  -48.5155 H         1 UNK         0.0600 
    187 H187        4.9638   -8.5996  -47.2740 H         1 UNK         0.0600 
    188 H188        5.2081  -10.3414  -47.2244 H         1 UNK         0.0600 
    189 H189        3.1471  -11.6768  -47.3708 H         1 UNK         0.3000 
    190 H190       -1.1613  -22.9484  -45.2450 H         1 UNK         0.3000 
    191 H191       -3.9516  -22.7763  -45.3782 H         1 UNK         0.0600 
    192 H192       -2.1904  -24.2231  -43.3302 H         1 UNK         0.0600 
    193 H193       -2.6403  -22.5182  -43.2908 H         1 UNK         0.0600 
    194 H194       -3.8684  -23.7556  -43.0796 H         1 UNK         0.0600 
    195 H195       -1.9601  -25.4654  -46.2406 H         1 UNK         0.3000 
    196 H196       -4.0062  -27.5383  -46.2195 H         1 UNK         0.0600 
    197 H197       -1.6086  -28.1108  -46.0009 H         1 UNK         0.0600 
    198 H198       -1.2504  -27.3571  -47.5538 H         1 UNK         0.0600 
    199 H199       -2.2547  -28.8008  -47.4812 H         1 UNK         0.0600 
    200 H200       -5.5468  -25.9354  -47.2270 H         1 UNK         0.3000 
    201 H201       -6.9635  -25.3968  -48.8560 H         1 UNK         0.0600 
    202 H202       -7.3713  -27.1055  -50.6051 H         1 UNK         0.0600 
    203 H203       -7.0689  -27.8792  -49.0585 H         1 UNK         0.0600 
    204 H204       -5.8083  -27.8476  -50.2905 H         1 UNK         0.0600 
    205 H205       -4.9332  -23.6735  -48.9509 H         1 UNK         0.3000 
    206 H206       -3.9776  -22.0521  -50.1221 H         1 UNK         0.0600 
    207 H207       -5.7191  -22.8667  -52.5077 H         1 UNK         0.0600 
    208 H208       -4.9310  -21.3160  -52.2450 H         1 UNK         0.0600 
    209 H209       -6.2407  -21.8197  -51.1895 H         1 UNK         0.0600 
    210 H210       -2.5005  -24.1428  -49.7701 H         1 UNK         0.3000 
    211 H211       -0.6806  -25.3161  -50.2779 H         1 UNK         0.0600 
    212 H212        0.2946  -23.1180  -50.8683 H         1 UNK         0.0600 
    213 H213        0.9459  -24.3639  -51.9157 H         1 UNK         0.0600 
    214 H214       -0.2827  -23.2636  -52.5245 H         1 UNK         0.0600 
    215 H215       -2.7548  -26.6930  -50.9147 H         1 UNK         0.3000 
    216 H216       -3.7358  -28.2737  -52.0971 H         1 UNK         0.0600 
    217 H217       -2.3095  -29.8397  -53.3731 H         1 UNK         0.0600 
    218 H218       -1.0146  -28.6531  -53.4588 H         1 UNK         0.0600 
    219 H219       -1.4852  -29.3408  -51.9049 H         1 UNK         0.0600 
    220 H220       -4.4359  -25.8787  -52.9523 H         1 UNK         0.3000 
    221 H221       -5.4007  -24.6477  -54.4526 H         1 UNK         0.0600 
    222 H222       -5.5777  -27.1386  -56.2222 H         1 UNK         0.0600 
    223 H223       -6.6823  -26.7490  -54.9035 H         1 UNK         0.0600 
    224 H224       -6.5988  -25.7110  -56.3158 H         1 UNK         0.0600 
    225 H225       -2.3635  -24.9579  -54.6691 H         1 UNK         0.3000 
    226 H226       -1.7375  -24.3250  -57.4268 H         1 UNK         0.0600 
    227 H227       -0.0548  -25.3341  -55.8967 H         1 UNK         0.0600 
    228 H228        0.5063  -23.7964  -56.5352 H         1 UNK         0.0600 
    229 H229       -0.0902  -23.8899  -54.8844 H         1 UNK         0.0600 
    230 H230       -2.3691  -22.4190  -54.4514 H         1 UNK         0.3000 
    231 H231       -2.0598  -19.8490  -55.8791 H         1 UNK         0.0600 
    232 H232       -2.6155  -18.8861  -53.6582 H         1 UNK         0.0600 
    233 H233       -1.2846  -20.0262  -53.5447 H         1 UNK         0.0600 
    234 H234       -2.8972  -20.4976  -53.0138 H         1 UNK         0.0600 
    235 H235       -4.5538  -22.0837  -54.8962 H         1 UNK         0.3000 
    236 H236       -6.7404  -22.3013  -55.2324 H         1 UNK         0.0600 
    237 H237       -5.9526  -22.2649  -57.6013 H         1 UNK         0.0600 
    238 H238       -7.5934  -21.6588  -57.4574 H         1 UNK         0.0600 
    239 H239       -6.2618  -20.5323  -57.6863 H         1 UNK         0.0600 
    240 H240       -6.2600  -20.4591  -53.2757 H         1 UNK         0.3000 
    241 H241       -7.6996  -18.0257  -53.5769 H         1 UNK         0.0600 
    242 H242      -10.6454  -20.6058  -52.5552 H         1 UNK         0.3800 
    243 H243       -9.1038  -21.1807  -53.1313 H         1 UNK         0.3800 
    244 H244       -7.3774  -17.7365  -51.1449 H         1 UNK         0.0800 
    245 H245       -6.9200  -19.4129  -50.9730 H         1 UNK         0.0800 
    246 H246       -4.6882  -19.2200  -49.8942 H         1 UNK         0.0800 
    247 H247       -5.0264  -17.5231  -49.6429 H         1 UNK         0.0800 
@<TRIPOS>BOND
     1    1    2 1    
     2    1  127 1    
     3    1  128 1    
     4    1  129 1    
     5    2    3 2    
     6    2    4 am   BACKBONE|DICT|INTERRES
     7    4    5 1    
     8    4  130 1    
     9    5    6 1    
    10    5   65 1    
    11    5  131 1    
    12    6    7 1    
    13    6  132 1    
    14    6  133 1    
    15    7    8 1    
    16    8    9 1    
    17    8  134 1    
    18    8  135 1    
    19    9   10 ar   
    20    9   14 ar   
    21   10   11 ar   
    22   10  136 1    
    23   11   12 ar   
    24   11  126 1    
    25   12   13 ar   
    26   12  137 1    
    27   13   14 ar   
    28   13   15 1    
    29   14  138 1    
    30   15   16 1    
    31   15  139 1    
    32   15  140 1    
    33   16   17 1    
    34   17   18 1    
    35   17  141 1    
    36   17  142 1    
    37   18   19 1    
    38   18   67 1    
    39   18  143 1    
    40   19   20 am   BACKBONE|DICT|INTERRES
    41   19  144 1    
    42   20   21 2    
    43   20   22 1    
    44   22   23 1    
    45   22   24 1    
    46   22  145 1    
    47   23  146 1    
    48   23  147 1    
    49   23  148 1    
    50   24   25 am   BACKBONE|DICT|INTERRES
    51   24  149 1    
    52   25   26 2    
    53   25   27 1    
    54   27   28 1    
    55   27   29 1    
    56   27  150 1    
    57   28  151 1    
    58   28  152 1    
    59   28  153 1    
    60   29   30 am   BACKBONE|DICT|INTERRES
    61   29  154 1    
    62   30   31 2    
    63   30   32 1    
    64   32   33 1    
    65   32   34 1    
    66   32  155 1    
    67   33  156 1    
    68   33  157 1    
    69   33  158 1    
    70   34   35 am   BACKBONE|DICT|INTERRES
    71   34  159 1    
    72   35   36 2    
    73   35   37 1    
    74   37   38 1    
    75   37   39 1    
    76   37  160 1    
    77   38  161 1    
    78   38  162 1    
    79   38  163 1    
    80   39   40 am   BACKBONE|DICT|INTERRES
    81   39  164 1    
    82   40   41 2    
    83   40   42 1    
    84   42   43 1    
    85   42   44 1    
    86   42  165 1    
    87   43  166 1    
    88   43  167 1    
    89   43  168 1    
    90   44   45 am   BACKBONE|DICT|INTERRES
    91   44  169 1    
    92   45   46 2    
    93   45   47 1    
    94   47   48 1    
    95   47   49 1    
    96   47  170 1    
    97   48  171 1    
    98   48  172 1    
    99   48  173 1    
   100   49   50 am   BACKBONE|DICT|INTERRES
   101   49  174 1    
   102   50   51 2    
   103   50   52 1    
   104   52   53 1    
   105   52   54 1    
   106   52  175 1    
   107   53  176 1    
   108   53  177 1    
   109   53  178 1    
   110   54   55 am   BACKBONE|DICT|INTERRES
   111   54  179 1    
   112   55   56 2    
   113   55   57 1    
   114   57   58 1    
   115   57   59 1    
   116   57  180 1    
   117   58  181 1    
   118   58  182 1    
   119   58  183 1    
   120   59   60 am   BACKBONE|DICT|INTERRES
   121   59  184 1    
   122   60   61 2    
   123   60   62 1    
   124   62   63 1    
   125   62   64 1    
   126   62  185 1    
   127   63  186 1    
   128   63  187 1    
   129   63  188 1    
   130   64   65 am   BACKBONE|DICT|INTERRES
   131   64  189 1    
   132   65   66 2    
   133   67   68 2    
   134   67   69 am   BACKBONE|DICT|INTERRES
   135   69   70 1    
   136   69  190 1    
   137   70   71 1    
   138   70   72 1    
   139   70  191 1    
   140   71  192 1    
   141   71  193 1    
   142   71  194 1    
   143   72   73 2    
   144   72   74 am   BACKBONE|DICT|INTERRES
   145   74   75 1    
   146   74  195 1    
   147   75   76 1    
   148   75   77 1    
   149   75  196 1    
   150   76  197 1    
   151   76  198 1    
   152   76  199 1    
   153   77   78 2    
   154   77   79 am   BACKBONE|DICT|INTERRES
   155   79   80 1    
   156   79  200 1    
   157   80   81 1    
   158   80   82 1    
   159   80  201 1    
   160   81  202 1    
   161   81  203 1    
   162   81  204 1    
   163   82   83 2    
   164   82   84 am   BACKBONE|DICT|INTERRES
   165   84   85 1    
   166   84  205 1    
   167   85   86 1    
   168   85   87 1    
   169   85  206 1    
   170   86  207 1    
   171   86  208 1    
   172   86  209 1    
   173   87   88 2    
   174   87   89 am   BACKBONE|DICT|INTERRES
   175   89   90 1    
   176   89  210 1    
   177   90   91 1    
   178   90   92 1    
   179   90  211 1    
   180   91  212 1    
   181   91  213 1    
   182   91  214 1    
   183   92   93 2    
   184   92   94 am   BACKBONE|DICT|INTERRES
   185   94   95 1    
   186   94  215 1    
   187   95   96 1    
   188   95   97 1    
   189   95  216 1    
   190   96  217 1    
   191   96  218 1    
   192   96  219 1    
   193   97   98 2    
   194   97   99 am   BACKBONE|DICT|INTERRES
   195   99  100 1    
   196   99  220 1    
   197  100  101 1    
   198  100  102 1    
   199  100  221 1    
   200  101  222 1    
   201  101  223 1    
   202  101  224 1    
   203  102  103 2    
   204  102  104 am   BACKBONE|DICT|INTERRES
   205  104  105 1    
   206  104  225 1    
   207  105  106 1    
   208  105  107 1    
   209  105  226 1    
   210  106  227 1    
   211  106  228 1    
   212  106  229 1    
   213  107  108 2    
   214  107  109 am   BACKBONE|DICT|INTERRES
   215  109  110 1    
   216  109  230 1    
   217  110  111 1    
   218  110  112 1    
   219  110  231 1    
   220  111  232 1    
   221  111  233 1    
   222  111  234 1    
   223  112  113 2    
   224  112  114 am   BACKBONE|DICT|INTERRES
   225  114  115 1    
   226  114  235 1    
   227  115  116 1    
   228  115  117 1    
   229  115  236 1    
   230  116  237 1    
   231  116  238 1    
   232  116  239 1    
   233  117  118 2    
   234  117  119 am   BACKBONE|DICT|INTERRES
   235  119  120 1    
   236  119  240 1    
   237  120  121 1    
   238  120  124 1    
   239  120  241 1    
   240  121  122 am   BACKBONE|DICT|INTERRES
   241  121  123 2    
   242  122  242 1    
   243  122  243 1    
   244  124  125 1    
   245  124  244 1    
   246  124  245 1    
   247  125  126 1    
   248  126  246 1    
   249  126  247 1    
@<TRIPOS>SUBSTRUCTURE
     1 UNK         1 GROUP             0       ****    0 ROOT    
