@<TRIPOS>MOLECULE
3R540
247   249    1
SMALL
USER_CHARGES


@<TRIPOS>ATOM
      1 CA         -0.9231  -11.7035  -45.6649 C.3       0 UNK        -0.1800 
      2 C           0.4098  -11.3788  -46.3234 C.2       0 UNK         0.5000 
      3 O           0.4964  -10.4154  -47.0860 O.2       0 UNK        -0.5000 
      4 N           1.4436  -12.1811  -46.0423 N.am      1 UNK        -0.5000 
      5 CA          2.8056  -11.9886  -46.5522 C.3       1 UNK         0.1400 
      6 C6          3.6491  -13.2918  -46.5176 C.3       23 UNK        -0.0398 
      7 S7          2.7811  -14.7469  -47.1806 S.3       23 UNK        -0.2404 
      8 C8          3.2487  -14.7225  -48.9326 C.3       23 UNK        -0.0205 
      9 C9          2.5479  -15.8580  -49.6574 C.ar      23 UNK        -0.0193 
     10 C10         1.3058  -15.6479  -50.2649 C.ar      23 UNK        -0.1150 
     11 C11         0.6265  -16.7073  -50.8741 C.ar      23 UNK        -0.0193 
     12 C12         1.2079  -17.9776  -50.8818 C.ar      23 UNK        -0.1150 
     13 C13         2.4427  -18.2023  -50.2685 C.ar      23 UNK        -0.0193 
     14 C14         3.1141  -17.1359  -49.6662 C.ar      23 UNK        -0.1150 
     15 C15         3.0260  -19.6059  -50.2182 C.3       23 UNK        -0.0205 
     16 S16         2.5296  -20.4790  -48.6973 S.3       23 UNK        -0.2404 
     17 C17         0.7189  -20.5468  -48.9091 C.3       23 UNK        -0.0398 
     18 CA          0.0660  -21.6971  -48.1166 C.3       11 UNK         0.1400 
     19 N           0.1228  -21.4955  -46.6657 N.am      11 UNK        -0.5000 
     20 C          -0.1851  -22.4404  -45.7665 C.2       10 UNK         0.5000 
     21 O          -0.5051  -23.5895  -46.0695 O.2       10 UNK        -0.5000 
     22 CA         -0.1923  -22.0238  -44.2853 C.3       10 UNK         0.1400 
     23 CB          1.2336  -21.9831  -43.7161 C.3       10 UNK        -0.1800 
     24 N          -0.8549  -20.7372  -44.0700 N.am      10 UNK        -0.5000 
     25 C          -2.1530  -20.5049  -44.3138 C.2       9 UNK         0.5000 
     26 O          -2.9406  -21.3718  -44.6935 O.2       9 UNK        -0.5000 
     27 CA         -2.6453  -19.0536  -44.1556 C.3       9 UNK         0.1400 
     28 CB         -2.9319  -18.7281  -42.6827 C.3       9 UNK        -0.1800 
     29 N          -1.7066  -18.0733  -44.7034 N.am      9 UNK        -0.5000 
     30 C          -1.3497  -18.0015  -45.9945 C.2       8 UNK         0.5000 
     31 O          -1.8071  -18.7300  -46.8725 O.2       8 UNK        -0.5000 
     32 CA         -0.2593  -16.9796  -46.3550 C.3       8 UNK         0.1400 
     33 CB         -0.8626  -15.5755  -46.5129 C.3       8 UNK        -0.1800 
     34 N           0.8149  -16.9615  -45.3613 N.am      8 UNK        -0.5000 
     35 C           1.6509  -17.9872  -45.1439 C.2       7 UNK         0.5000 
     36 O           1.6107  -19.0461  -45.7693 O.2       7 UNK        -0.5000 
     37 CA          2.6501  -17.8307  -43.9835 C.3       7 UNK         0.1400 
     38 CB          3.8628  -16.9833  -44.3956 C.3       7 UNK        -0.1800 
     39 N           2.0252  -17.2464  -42.7972 N.am      7 UNK        -0.5000 
     40 C           1.0895  -17.8631  -42.0601 C.2       6 UNK         0.5000 
     41 O           0.6944  -19.0074  -42.2785 O.2       6 UNK        -0.5000 
     42 CA          0.4583  -17.0553  -40.9104 C.3       6 UNK         0.1400 
     43 CB          1.2528  -17.2598  -39.6120 C.3       6 UNK        -0.1800 
     44 N           0.3626  -15.6227  -41.1926 N.am      6 UNK        -0.5000 
     45 C          -0.3352  -15.0743  -42.1979 C.2       5 UNK         0.5000 
     46 O          -1.0149  -15.7265  -42.9906 O.2       5 UNK        -0.5000 
     47 CA         -0.2166  -13.5472  -42.3720 C.3       5 UNK         0.1400 
     48 CB         -1.4252  -12.8332  -41.7510 C.3       5 UNK        -0.1800 
     49 N           1.0195  -13.0002  -41.8023 N.am      5 UNK        -0.5000 
     50 C           2.2373  -13.2095  -42.3179 C.2       4 UNK         0.5000 
     51 O           2.4341  -13.8175  -43.3736 O.2       4 UNK        -0.5000 
     52 CA          3.4271  -12.7344  -41.4729 C.3       4 UNK         0.1400 
     53 CB          3.6981  -13.7555  -40.3474 C.3       4 UNK        -0.1800 
     54 N           4.5951  -12.5975  -42.3376 N.am      4 UNK        -0.5000 
     55 C           5.7812  -12.0786  -41.9958 C.2       3 UNK         0.5000 
     56 O           6.0424  -11.6296  -40.8791 O.2       3 UNK        -0.5000 
     57 CA          6.8529  -12.0376  -43.1010 C.3       3 UNK         0.1400 
     58 CB          7.2886  -13.4560  -43.5063 C.3       3 UNK        -0.1800 
     59 N           6.3857  -11.3152  -44.2830 N.am      3 UNK        -0.5000 
     60 C           6.1878   -9.9896  -44.3427 C.2       2 UNK         0.5000 
     61 O           6.4739   -9.2112  -43.4323 O.2       2 UNK        -0.5000 
     62 CA          5.5473   -9.4407  -45.6356 C.3       2 UNK         0.1400 
     63 CB          6.6322   -8.9919  -46.6265 C.3       2 UNK        -0.1800 
     64 N           4.6590  -10.4024  -46.2978 N.am      2 UNK        -0.5000 
     65 C           3.5251  -10.8753  -45.7615 C.2       1 UNK         0.5000 
     66 O           3.0870  -10.5038  -44.6690 O.2       1 UNK        -0.5000 
     67 C          -1.3711  -21.9439  -48.6197 C.2       11 UNK         0.5000 
     68 O          -1.5521  -22.7552  -49.5260 O.2       11 UNK        -0.5000 
     69 N          -2.3708  -21.2659  -48.0398 N.am      12 UNK        -0.5000 
     70 CA         -3.7879  -21.4827  -48.3385 C.3       12 UNK         0.1400 
     71 CB         -4.6449  -20.3895  -47.6850 C.3       12 UNK        -0.1800 
     72 C          -4.2591  -22.8810  -47.9093 C.2       12 UNK         0.5000 
     73 O          -4.9494  -23.5476  -48.6808 O.2       12 UNK        -0.5000 
     74 N          -3.8436  -23.3168  -46.7117 N.am      13 UNK        -0.5000 
     75 CA         -4.0944  -24.6567  -46.1808 C.3       13 UNK         0.1400 
     76 CB         -3.6442  -24.7268  -44.7141 C.3       13 UNK        -0.1800 
     77 C          -3.4232  -25.7583  -47.0211 C.2       13 UNK         0.5000 
     78 O          -4.0751  -26.7521  -47.3438 O.2       13 UNK        -0.5000 
     79 N          -2.1576  -25.5406  -47.4092 N.am      14 UNK        -0.5000 
     80 CA         -1.3901  -26.4198  -48.2978 C.3       14 UNK         0.1400 
     81 CB          0.0605  -25.9234  -48.3839 C.3       14 UNK        -0.1800 
     82 C          -2.0050  -26.5409  -49.7059 C.2       14 UNK         0.5000 
     83 O          -1.9625  -27.6187  -50.2993 O.2       14 UNK        -0.5000 
     84 N          -2.6117  -25.4491  -50.1877 N.am      15 UNK        -0.5000 
     85 CA         -3.3816  -25.3736  -51.4287 C.3       15 UNK         0.1400 
     86 CB         -3.3176  -23.9326  -51.9630 C.3       15 UNK        -0.1800 
     87 C          -4.8396  -25.8624  -51.2792 C.2       15 UNK         0.5000 
     88 O          -5.6455  -25.5935  -52.1674 O.2       15 UNK        -0.5000 
     89 N          -5.1678  -26.5600  -50.1799 N.am      16 UNK        -0.5000 
     90 CA         -6.4628  -27.1807  -49.8783 C.3       16 UNK         0.1400 
     91 CB         -6.7505  -28.3395  -50.8565 C.3       16 UNK        -0.1800 
     92 C          -7.6099  -26.1532  -49.8006 C.2       16 UNK         0.5000 
     93 O          -8.6354  -26.3110  -50.4653 O.2       16 UNK        -0.5000 
     94 N          -7.3879  -25.1099  -48.9895 N.am      17 UNK        -0.5000 
     95 CA         -8.2330  -23.9255  -48.8086 C.3       17 UNK         0.1400 
     96 CB         -9.6412  -24.2915  -48.2924 C.3       17 UNK        -0.1800 
     97 C          -8.2396  -23.0394  -50.0699 C.2       17 UNK         0.5000 
     98 O          -9.2973  -22.5844  -50.5090 O.2       17 UNK        -0.5000 
     99 N          -7.0327  -22.8096  -50.6070 N.am      18 UNK        -0.5000 
    100 CA        -6.7122  -21.9701  -51.7637 C.3       18 UNK         0.1400 
    101 CB        -6.9146  -20.4806  -51.4156 C.3       18 UNK        -0.1800 
    102 C         -7.4365  -22.4014  -53.0585 C.2       18 UNK         0.5000 
    103 O         -8.0738  -21.5793  -53.7214 O.2       18 UNK        -0.5000 
    104 N         -7.3277  -23.6909  -53.3990 N.am      19 UNK        -0.5000 
    105 CA        -7.8218  -24.2621  -54.6464 C.3       19 UNK         0.1400 
    106 CB        -8.2802  -25.7076  -54.3926 C.3       19 UNK        -0.1800 
    107 C         -6.7055  -24.2063  -55.7035 C.2       19 UNK         0.5000 
    108 O         -5.6653  -24.8422  -55.5250 O.2       19 UNK        -0.5000 
    109 N         -6.9414  -23.4411  -56.7796 N.am      20 UNK        -0.5000 
    110 CA        -6.0819  -23.2607  -57.9632 C.3       20 UNK         0.1400 
    111 CB        -5.9097  -24.5944  -58.7202 C.3       20 UNK        -0.1800 
    112 C         -4.7247  -22.5633  -57.7028 C.2       20 UNK         0.5000 
    113 O         -3.8883  -22.5034  -58.6057 O.2       20 UNK        -0.5000 
    114 N         -4.5382  -22.0193  -56.4984 N.am      21 UNK        -0.5000 
    115 CA        -3.3750  -21.2799  -56.0221 C.3       21 UNK         0.1400 
    116 CB        -2.2058  -22.2428  -55.7431 C.3       21 UNK        -0.1800 
    117 C         -3.8029  -20.5545  -54.7400 C.2       21 UNK         0.5000 
    118 O         -4.8004  -20.9495  -54.1338 O.2       21 UNK        -0.5000 
    119 N         -3.0571  -19.5212  -54.3330 N.am      22 UNK        -0.5000 
    120 CA        -3.3496  -18.7504  -53.1104 C.3       22 UNK         0.1400 
    121 C         -3.0020  -19.4727  -51.7718 C.2       22 UNK         0.5000 
    122 N         -2.3159  -20.6107  -51.7894 N.am      22 UNK        -0.7600 
    123 O         -3.3826  -19.0002  -50.7063 O.2       22 UNK        -0.5000 
    124 C124       -2.7991  -17.3017  -53.1877 C.3       23 UNK        -0.0398 
    125 S125       -0.9774  -17.1725  -53.1223 S.3       23 UNK        -0.2404 
    126 C126       -0.7725  -16.5029  -51.4372 C.3       23 UNK        -0.0205 
    127 H127       -0.9866  -11.2269  -44.6867 H         1 UNK         0.0600 
    128 H128       -1.0512  -12.7776  -45.5408 H         1 UNK         0.0600 
    129 H129       -1.7492  -11.3400  -46.2762 H         1 UNK         0.0600 
    130 H130        1.3429  -12.9317  -45.3733 H         1 UNK         0.3000 
    131 H131        2.7353  -11.6658  -47.5932 H         1 UNK         0.0600 
    132 H132        4.5832  -13.1632  -47.0666 H         1 UNK         0.0800 
    133 H133        3.9366  -13.5382  -45.4950 H         1 UNK         0.0800 
    134 H134        4.3309  -14.8221  -49.0293 H         1 UNK         0.0800 
    135 H135        2.9767  -13.7625  -49.3740 H         1 UNK         0.0800 
    136 H136        0.8536  -14.6667  -50.2293 H         1 UNK         0.1150 
    137 H137        0.6766  -18.8007  -51.3379 H         1 UNK         0.1150 
    138 H138        4.0599  -17.3077  -49.1717 H         1 UNK         0.1150 
    139 H139        2.7136  -20.1811  -51.0913 H         1 UNK         0.0800 
    140 H140        4.1150  -19.5563  -50.2592 H         1 UNK         0.0800 
    141 H141        0.5174  -20.6715  -49.9744 H         1 UNK         0.0800 
    142 H142        0.2897  -19.5859  -48.6191 H         1 UNK         0.0800 
    143 H143        0.6287  -22.6067  -48.3359 H         1 UNK         0.0600 
    144 H144        0.4308  -20.5830  -46.3429 H         1 UNK         0.3000 
    145 H145       -0.7526  -22.7809  -43.7328 H         1 UNK         0.0600 
    146 H146        1.2242  -21.7718  -42.6468 H         1 UNK         0.0600 
    147 H147        1.7360  -22.9412  -43.8541 H         1 UNK         0.0600 
    148 H148        1.8422  -21.2203  -44.2016 H         1 UNK         0.0600 
    149 H149       -0.2792  -19.9846  -43.7057 H         1 UNK         0.3000 
    150 H150       -3.5804  -18.9581  -44.7109 H         1 UNK         0.0600 
    151 H151       -3.6876  -19.4013  -42.2762 H         1 UNK         0.0600 
    152 H152       -3.3051  -17.7102  -42.5676 H         1 UNK         0.0600 
    153 H153       -2.0391  -18.8296  -42.0665 H         1 UNK         0.0600 
    154 H154       -1.3114  -17.4004  -44.0540 H         1 UNK         0.3000 
    155 H155        0.1749  -17.2717  -47.3143 H         1 UNK         0.0600 
    156 H156       -1.3137  -15.2216  -45.5862 H         1 UNK         0.0600 
    157 H157       -1.6415  -15.5741  -47.2764 H         1 UNK         0.0600 
    158 H158       -0.1115  -14.8500  -46.8212 H         1 UNK         0.0600 
    159 H159        0.8916  -16.1391  -44.7822 H         1 UNK         0.3000 
    160 H160        3.0102  -18.8283  -43.7225 H         1 UNK         0.0600 
    161 H161        3.5847  -15.9467  -44.5819 H         1 UNK         0.0600 
    162 H162        4.3197  -17.3701  -45.3075 H         1 UNK         0.0600 
    163 H163        4.6278  -16.9874  -43.6193 H         1 UNK         0.0600 
    164 H164        2.2728  -16.2930  -42.5750 H         1 UNK         0.3000 
    165 H165       -0.5542  -17.4324  -40.7558 H         1 UNK         0.0600 
    166 H166        0.7707  -16.7608  -38.7712 H         1 UNK         0.0600 
    167 H167        1.3248  -18.3190  -39.3614 H         1 UNK         0.0600 
    168 H168        2.2691  -16.8722  -39.6958 H         1 UNK         0.0600 
    169 H169        0.8814  -15.0082  -40.5843 H         1 UNK         0.3000 
    170 H170       -0.2141  -13.3480  -43.4432 H         1 UNK         0.0600 
    171 H171       -2.3584  -13.2025  -42.1786 H         1 UNK         0.0600 
    172 H172       -1.4742  -12.9869  -40.6723 H         1 UNK         0.0600 
    173 H173       -1.3869  -11.7597  -41.9371 H         1 UNK         0.0600 
    174 H174        0.9301  -12.4892  -40.9355 H         1 UNK         0.3000 
    175 H175        3.1889  -11.7584  -41.0456 H         1 UNK         0.0600 
    176 H176        4.5020  -13.4288  -39.6885 H         1 UNK         0.0600 
    177 H177        3.9743  -14.7309  -40.7503 H         1 UNK         0.0600 
    178 H178        2.8178  -13.8966  -39.7195 H         1 UNK         0.0600 
    179 H179        4.4390  -12.9263  -43.2806 H         1 UNK         0.3000 
    180 H180        7.7270  -11.5177  -42.7027 H         1 UNK         0.0600 
    181 H181        6.4737  -14.0213  -43.9603 H         1 UNK         0.0600 
    182 H182        7.6348  -14.0194  -42.6388 H         1 UNK         0.0600 
    183 H183        8.1115  -13.4245  -44.2206 H         1 UNK         0.0600 
    184 H184        6.1456  -11.8691  -45.0901 H         1 UNK         0.3000 
    185 H185        4.9524   -8.5668  -45.3616 H         1 UNK         0.0600 
    186 H186        7.2960   -8.2555  -46.1713 H         1 UNK         0.0600 
    187 H187        7.2485   -9.8292  -46.9564 H         1 UNK         0.0600 
    188 H188        6.1930   -8.5282  -47.5100 H         1 UNK         0.0600 
    189 H189        4.9564  -10.7332  -47.2046 H         1 UNK         0.3000 
    190 H190       -2.1506  -20.5305  -47.3732 H         1 UNK         0.3000 
    191 H191       -3.9222  -21.4093  -49.4190 H         1 UNK         0.0600 
    192 H192       -4.5564  -20.3973  -46.5991 H         1 UNK         0.0600 
    193 H193       -5.6990  -20.5228  -47.9311 H         1 UNK         0.0600 
    194 H194       -4.3517  -19.4003  -48.0374 H         1 UNK         0.0600 
    195 H195       -3.3156  -22.6830  -46.1184 H         1 UNK         0.3000 
    196 H196       -5.1724  -24.8279  -46.2106 H         1 UNK         0.0600 
    197 H197       -3.8469  -25.7109  -44.2899 H         1 UNK         0.0600 
    198 H198       -4.1739  -23.9939  -44.1052 H         1 UNK         0.0600 
    199 H199       -2.5761  -24.5368  -44.6084 H         1 UNK         0.0600 
    200 H200       -1.6728  -24.7197  -47.0544 H         1 UNK         0.3000 
    201 H201       -1.3839  -27.4166  -47.8522 H         1 UNK         0.0600 
    202 H202        0.5251  -25.8864  -47.3985 H         1 UNK         0.0600 
    203 H203        0.1171  -24.9259  -48.8195 H         1 UNK         0.0600 
    204 H204        0.6643  -26.5870  -49.0040 H         1 UNK         0.0600 
    205 H205       -2.5469  -24.5886  -49.6552 H         1 UNK         0.3000 
    206 H206       -2.9129  -26.0210  -52.1723 H         1 UNK         0.0600 
    207 H207       -2.2874  -23.6345  -52.1572 H         1 UNK         0.0600 
    208 H208       -3.8648  -23.8236  -52.9007 H         1 UNK         0.0600 
    209 H209       -3.7378  -23.2263  -51.2479 H         1 UNK         0.0600 
    210 H210       -4.4599  -26.6805  -49.4658 H         1 UNK         0.3000 
    211 H211       -6.3704  -27.6119  -48.8805 H         1 UNK         0.0600 
    212 H212       -6.8924  -27.9847  -51.8779 H         1 UNK         0.0600 
    213 H213       -7.6554  -28.8761  -50.5692 H         1 UNK         0.0600 
    214 H214       -5.9338  -29.0612  -50.8627 H         1 UNK         0.0600 
    215 H215       -6.4675  -25.0354  -48.5722 H         1 UNK         0.3000 
    216 H216       -7.7520  -23.3327  -48.0291 H         1 UNK         0.0600 
    217 H217      -10.1944  -23.3946  -48.0121 H         1 UNK         0.0600 
    218 H218       -9.5847  -24.9271  -47.4088 H         1 UNK         0.0600 
    219 H219      -10.2329  -24.8126  -49.0450 H         1 UNK         0.0600 
    220 H220       -6.2379  -23.2362  -50.1410 H         1 UNK         0.3000 
    221 H221       -5.6491  -22.1122  -51.9519 H         1 UNK         0.0600 
    222 H222       -7.9593  -20.2500  -51.2060 H         1 UNK         0.0600 
    223 H223       -6.3238  -20.1969  -50.5444 H         1 UNK         0.0600 
    224 H224       -6.5969  -19.8420  -52.2405 H         1 UNK         0.0600 
    225 H225       -6.7474  -24.3133  -52.8379 H         1 UNK         0.3000 
    226 H226       -8.6878  -23.6983  -54.9996 H         1 UNK         0.0600 
    227 H227       -9.0638  -25.7444  -53.6354 H         1 UNK         0.0600 
    228 H228       -8.6817  -26.1542  -55.3028 H         1 UNK         0.0600 
    229 H229       -7.4601  -26.3402  -54.0506 H         1 UNK         0.0600 
    230 H230       -7.8118  -22.9273  -56.8078 H         1 UNK         0.3000 
    231 H231       -6.6309  -22.5861  -58.6216 H         1 UNK         0.0600 
    232 H232       -6.8739  -25.0586  -58.9271 H         1 UNK         0.0600 
    233 H233       -5.3079  -25.3066  -58.1552 H         1 UNK         0.0600 
    234 H234       -5.4144  -24.4406  -59.6796 H         1 UNK         0.0600 
    235 H235       -5.2766  -22.0851  -55.8076 H         1 UNK         0.3000 
    236 H236       -3.0851  -20.5392  -56.7699 H         1 UNK         0.0600 
    237 H237       -1.3383  -21.7072  -55.3562 H         1 UNK         0.0600 
    238 H238       -2.4799  -23.0021  -55.0094 H         1 UNK         0.0600 
    239 H239       -1.8877  -22.7565  -56.6502 H         1 UNK         0.0600 
    240 H240       -2.2347  -19.2485  -54.8520 H         1 UNK         0.3000 
    241 H241       -4.4352  -18.6375  -53.0745 H         1 UNK         0.0600 
    242 H242       -2.1266  -21.1010  -50.9291 H         1 UNK         0.3800 
    243 H243       -2.0049  -20.9977  -52.6642 H         1 UNK         0.3800 
    244 H244       -3.1330  -16.8360  -54.1158 H         1 UNK         0.0800 
    245 H245       -3.2384  -16.6957  -52.3935 H         1 UNK         0.0800 
    246 H246       -1.4731  -16.9915  -50.7588 H         1 UNK         0.0800 
    247 H247       -1.0371  -15.4444  -51.4472 H         1 UNK         0.0800 
@<TRIPOS>BOND
     1    1    2 1    
     2    1  127 1    
     3    1  128 1    
     4    1  129 1    
     5    2    3 2    
     6    2    4 am   BACKBONE|DICT|INTERRES
     7    4    5 1    
     8    4  130 1    
     9    5    6 1    
    10    5   65 1    
    11    5  131 1    
    12    6    7 1    
    13    6  132 1    
    14    6  133 1    
    15    7    8 1    
    16    8    9 1    
    17    8  134 1    
    18    8  135 1    
    19    9   10 ar   
    20    9   14 ar   
    21   10   11 ar   
    22   10  136 1    
    23   11   12 ar   
    24   11  126 1    
    25   12   13 ar   
    26   12  137 1    
    27   13   14 ar   
    28   13   15 1    
    29   14  138 1    
    30   15   16 1    
    31   15  139 1    
    32   15  140 1    
    33   16   17 1    
    34   17   18 1    
    35   17  141 1    
    36   17  142 1    
    37   18   19 1    
    38   18   67 1    
    39   18  143 1    
    40   19   20 am   BACKBONE|DICT|INTERRES
    41   19  144 1    
    42   20   21 2    
    43   20   22 1    
    44   22   23 1    
    45   22   24 1    
    46   22  145 1    
    47   23  146 1    
    48   23  147 1    
    49   23  148 1    
    50   24   25 am   BACKBONE|DICT|INTERRES
    51   24  149 1    
    52   25   26 2    
    53   25   27 1    
    54   27   28 1    
    55   27   29 1    
    56   27  150 1    
    57   28  151 1    
    58   28  152 1    
    59   28  153 1    
    60   29   30 am   BACKBONE|DICT|INTERRES
    61   29  154 1    
    62   30   31 2    
    63   30   32 1    
    64   32   33 1    
    65   32   34 1    
    66   32  155 1    
    67   33  156 1    
    68   33  157 1    
    69   33  158 1    
    70   34   35 am   BACKBONE|DICT|INTERRES
    71   34  159 1    
    72   35   36 2    
    73   35   37 1    
    74   37   38 1    
    75   37   39 1    
    76   37  160 1    
    77   38  161 1    
    78   38  162 1    
    79   38  163 1    
    80   39   40 am   BACKBONE|DICT|INTERRES
    81   39  164 1    
    82   40   41 2    
    83   40   42 1    
    84   42   43 1    
    85   42   44 1    
    86   42  165 1    
    87   43  166 1    
    88   43  167 1    
    89   43  168 1    
    90   44   45 am   BACKBONE|DICT|INTERRES
    91   44  169 1    
    92   45   46 2    
    93   45   47 1    
    94   47   48 1    
    95   47   49 1    
    96   47  170 1    
    97   48  171 1    
    98   48  172 1    
    99   48  173 1    
   100   49   50 am   BACKBONE|DICT|INTERRES
   101   49  174 1    
   102   50   51 2    
   103   50   52 1    
   104   52   53 1    
   105   52   54 1    
   106   52  175 1    
   107   53  176 1    
   108   53  177 1    
   109   53  178 1    
   110   54   55 am   BACKBONE|DICT|INTERRES
   111   54  179 1    
   112   55   56 2    
   113   55   57 1    
   114   57   58 1    
   115   57   59 1    
   116   57  180 1    
   117   58  181 1    
   118   58  182 1    
   119   58  183 1    
   120   59   60 am   BACKBONE|DICT|INTERRES
   121   59  184 1    
   122   60   61 2    
   123   60   62 1    
   124   62   63 1    
   125   62   64 1    
   126   62  185 1    
   127   63  186 1    
   128   63  187 1    
   129   63  188 1    
   130   64   65 am   BACKBONE|DICT|INTERRES
   131   64  189 1    
   132   65   66 2    
   133   67   68 2    
   134   67   69 am   BACKBONE|DICT|INTERRES
   135   69   70 1    
   136   69  190 1    
   137   70   71 1    
   138   70   72 1    
   139   70  191 1    
   140   71  192 1    
   141   71  193 1    
   142   71  194 1    
   143   72   73 2    
   144   72   74 am   BACKBONE|DICT|INTERRES
   145   74   75 1    
   146   74  195 1    
   147   75   76 1    
   148   75   77 1    
   149   75  196 1    
   150   76  197 1    
   151   76  198 1    
   152   76  199 1    
   153   77   78 2    
   154   77   79 am   BACKBONE|DICT|INTERRES
   155   79   80 1    
   156   79  200 1    
   157   80   81 1    
   158   80   82 1    
   159   80  201 1    
   160   81  202 1    
   161   81  203 1    
   162   81  204 1    
   163   82   83 2    
   164   82   84 am   BACKBONE|DICT|INTERRES
   165   84   85 1    
   166   84  205 1    
   167   85   86 1    
   168   85   87 1    
   169   85  206 1    
   170   86  207 1    
   171   86  208 1    
   172   86  209 1    
   173   87   88 2    
   174   87   89 am   BACKBONE|DICT|INTERRES
   175   89   90 1    
   176   89  210 1    
   177   90   91 1    
   178   90   92 1    
   179   90  211 1    
   180   91  212 1    
   181   91  213 1    
   182   91  214 1    
   183   92   93 2    
   184   92   94 am   BACKBONE|DICT|INTERRES
   185   94   95 1    
   186   94  215 1    
   187   95   96 1    
   188   95   97 1    
   189   95  216 1    
   190   96  217 1    
   191   96  218 1    
   192   96  219 1    
   193   97   98 2    
   194   97   99 am   BACKBONE|DICT|INTERRES
   195   99  100 1    
   196   99  220 1    
   197  100  101 1    
   198  100  102 1    
   199  100  221 1    
   200  101  222 1    
   201  101  223 1    
   202  101  224 1    
   203  102  103 2    
   204  102  104 am   BACKBONE|DICT|INTERRES
   205  104  105 1    
   206  104  225 1    
   207  105  106 1    
   208  105  107 1    
   209  105  226 1    
   210  106  227 1    
   211  106  228 1    
   212  106  229 1    
   213  107  108 2    
   214  107  109 am   BACKBONE|DICT|INTERRES
   215  109  110 1    
   216  109  230 1    
   217  110  111 1    
   218  110  112 1    
   219  110  231 1    
   220  111  232 1    
   221  111  233 1    
   222  111  234 1    
   223  112  113 2    
   224  112  114 am   BACKBONE|DICT|INTERRES
   225  114  115 1    
   226  114  235 1    
   227  115  116 1    
   228  115  117 1    
   229  115  236 1    
   230  116  237 1    
   231  116  238 1    
   232  116  239 1    
   233  117  118 2    
   234  117  119 am   BACKBONE|DICT|INTERRES
   235  119  120 1    
   236  119  240 1    
   237  120  121 1    
   238  120  124 1    
   239  120  241 1    
   240  121  122 am   BACKBONE|DICT|INTERRES
   241  121  123 2    
   242  122  242 1    
   243  122  243 1    
   244  124  125 1    
   245  124  244 1    
   246  124  245 1    
   247  125  126 1    
   248  126  246 1    
   249  126  247 1    
@<TRIPOS>SUBSTRUCTURE
     1 UNK         1 GROUP             0       ****    0 ROOT    
