@<TRIPOS>MOLECULE
3R540
247   249    1
SMALL
USER_CHARGES


@<TRIPOS>ATOM
      1 CA         -2.2287   -7.2964  -48.3240 C.3       0 UNK        -0.1800 
      2 C          -1.8357   -8.6986  -47.8816 C.2       0 UNK         0.5000 
      3 O          -0.7431   -8.8848  -47.3442 O.2       0 UNK        -0.5000 
      4 N          -2.7197   -9.6800  -48.1098 N.am      1 UNK        -0.5000 
      5 CA         -2.5948  -11.1107  -47.7930 C.3       1 UNK         0.1400 
      6 C6         -2.4003  -11.4154  -46.2796 C.3       23 UNK        -0.0398 
      7 S7         -3.9867  -11.5051  -45.3898 S.3       23 UNK        -0.2404 
      8 C8         -3.6699  -12.8999  -44.2496 C.3       23 UNK        -0.0205 
      9 C9         -3.7842  -14.3109  -44.8381 C.ar      23 UNK        -0.0193 
     10 C10        -3.7510  -14.5824  -46.2137 C.ar      23 UNK        -0.1150 
     11 C11        -3.8755  -15.8916  -46.6898 C.ar      23 UNK        -0.0193 
     12 C12        -4.0332  -16.9431  -45.7819 C.ar      23 UNK        -0.1150 
     13 C13        -4.0612  -16.6922  -44.4076 C.ar      23 UNK        -0.0193 
     14 C14        -3.9263  -15.3795  -43.9473 C.ar      23 UNK        -0.1150 
     15 C15        -4.2759  -17.8261  -43.4156 C.3       23 UNK        -0.0205 
     16 S16        -2.7434  -18.7545  -43.0976 S.3       23 UNK        -0.2404 
     17 C17        -3.1357  -20.3464  -43.8978 C.3       23 UNK        -0.0398 
     18 CA         -1.8774  -21.2305  -44.0925 C.3       11 UNK         0.1400 
     19 N          -1.1608  -21.5564  -42.8515 N.am      11 UNK        -0.5000 
     20 C          -1.6156  -22.2911  -41.8254 C.2       10 UNK         0.5000 
     21 O          -2.7767  -22.6907  -41.7350 O.2       10 UNK        -0.5000 
     22 CA         -0.6064  -22.6884  -40.7327 C.3       10 UNK         0.1400 
     23 CB         -0.1376  -24.1393  -40.9354 C.3       10 UNK        -0.1800 
     24 N           0.5657  -21.8117  -40.6918 N.am      10 UNK        -0.5000 
     25 C           1.1391  -21.3555  -39.5704 C.2       9 UNK         0.5000 
     26 O           0.7710  -21.6654  -38.4363 O.2       9 UNK        -0.5000 
     27 CA          2.3216  -20.3767  -39.7348 C.3       9 UNK         0.1400 
     28 CB          3.6565  -21.1348  -39.6750 C.3       9 UNK        -0.1800 
     29 N           2.2746  -19.5985  -40.9748 N.am      9 UNK        -0.5000 
     30 C           1.3060  -18.7343  -41.3064 C.2       8 UNK         0.5000 
     31 O           0.3848  -18.4263  -40.5498 O.2       8 UNK        -0.5000 
     32 CA          1.3674  -18.0936  -42.7083 C.3       8 UNK         0.1400 
     33 CB          2.0340  -16.7136  -42.5798 C.3       8 UNK        -0.1800 
     34 N           2.0521  -18.8345  -43.7807 N.am      8 UNK        -0.5000 
     35 C           2.0305  -20.1441  -44.0733 C.2       7 UNK         0.5000 
     36 O           1.4772  -21.0044  -43.3858 O.2       7 UNK        -0.5000 
     37 CA          2.7278  -20.5300  -45.3912 C.3       7 UNK         0.1400 
     38 CB          2.9289  -22.0523  -45.5609 C.3       7 UNK        -0.1800 
     39 N           2.0195  -19.9287  -46.5243 N.am      7 UNK        -0.5000 
     40 C           0.8184  -20.2691  -47.0135 C.2       6 UNK         0.5000 
     41 O           0.1986  -21.2831  -46.6967 O.2       6 UNK        -0.5000 
     42 CA          0.1754  -19.3052  -48.0236 C.3       6 UNK         0.1400 
     43 CB         -0.8836  -18.4463  -47.3151 C.3       6 UNK        -0.1800 
     44 N           1.1499  -18.4283  -48.6752 N.am      6 UNK        -0.5000 
     45 C           1.8633  -18.7514  -49.7634 C.2       5 UNK         0.5000 
     46 O           1.7393  -19.8160  -50.3664 O.2       5 UNK        -0.5000 
     47 CA          2.8753  -17.7090  -50.2797 C.3       5 UNK         0.1400 
     48 CB          2.2798  -16.9303  -51.4628 C.3       5 UNK        -0.1800 
     49 N           3.2875  -16.7586  -49.2449 N.am      5 UNK        -0.5000 
     50 C           4.1943  -17.0222  -48.2905 C.2       4 UNK         0.5000 
     51 O           4.8276  -18.0754  -48.2239 O.2       4 UNK        -0.5000 
     52 CA          4.3853  -15.9544  -47.1911 C.3       4 UNK         0.1400 
     53 CB          5.4819  -14.9567  -47.5915 C.3       4 UNK        -0.1800 
     54 N           3.1531  -15.2206  -46.8935 N.am      4 UNK        -0.5000 
     55 C           2.0195  -15.7867  -46.4599 C.2       3 UNK         0.5000 
     56 O           1.9563  -16.9644  -46.1084 O.2       3 UNK        -0.5000 
     57 CA          0.7304  -14.9404  -46.4903 C.3       3 UNK         0.1400 
     58 CB          0.1907  -14.6958  -45.0740 C.3       3 UNK        -0.1800 
     59 N           0.8425  -13.6606  -47.1973 N.am      3 UNK        -0.5000 
     60 C           1.0768  -13.5046  -48.5101 C.2       2 UNK         0.5000 
     61 O           1.3663  -14.4351  -49.2652 O.2       2 UNK        -0.5000 
     62 CA          0.9441  -12.0596  -49.0403 C.3       2 UNK         0.1400 
     63 CB          1.0225  -11.9567  -50.5757 C.3       2 UNK        -0.1800 
     64 N          -0.2662  -11.4033  -48.5289 N.am      2 UNK        -0.5000 
     65 C          -1.5311  -11.8368  -48.6400 C.2       1 UNK         0.5000 
     66 O          -1.8751  -12.7962  -49.3293 O.2       1 UNK        -0.5000 
     67 C          -2.1447  -22.5052  -44.9293 C.2       11 UNK         0.5000 
     68 O          -3.1570  -22.5998  -45.6254 O.2       11 UNK        -0.5000 
     69 N          -1.2203  -23.4729  -44.8359 N.am      12 UNK        -0.5000 
     70 CA         -1.3225  -24.8114  -45.4112 C.3       12 UNK         0.1400 
     71 CB         -0.1405  -25.6604  -44.9210 C.3       12 UNK        -0.1800 
     72 C          -1.4000  -24.8293  -46.9456 C.2       12 UNK         0.5000 
     73 O          -2.1596  -25.6253  -47.4973 O.2       12 UNK        -0.5000 
     74 N          -0.6476  -23.9433  -47.6132 N.am      13 UNK        -0.5000 
     75 CA         -0.6555  -23.8377  -49.0726 C.3       13 UNK         0.1400 
     76 CB          0.6015  -23.1098  -49.5668 C.3       13 UNK        -0.1800 
     77 C          -1.9313  -23.1576  -49.5920 C.2       13 UNK         0.5000 
     78 O          -2.3839  -23.4954  -50.6838 O.2       13 UNK        -0.5000 
     79 N          -2.5137  -22.2470  -48.7984 N.am      14 UNK        -0.5000 
     80 CA         -3.8123  -21.6355  -49.0851 C.3       14 UNK         0.1400 
     81 CB         -3.9941  -20.3594  -48.2531 C.3       14 UNK        -0.1800 
     82 C          -4.9717  -22.6219  -48.8737 C.2       14 UNK         0.5000 
     83 O          -5.8866  -22.6575  -49.6958 O.2       14 UNK        -0.5000 
     84 N          -4.8871  -23.4391  -47.8144 N.am      15 UNK        -0.5000 
     85 CA         -5.8292  -24.5215  -47.5221 C.3       15 UNK         0.1400 
     86 CB         -5.5250  -25.1033  -46.1333 C.3       15 UNK        -0.1800 
     87 C          -5.8178  -25.6264  -48.5972 C.2       15 UNK         0.5000 
     88 O          -6.8823  -26.1079  -48.9864 O.2       15 UNK        -0.5000 
     89 N          -4.6190  -25.9830  -49.0789 N.am      16 UNK        -0.5000 
     90 CA         -4.4083  -26.9409  -50.1669 C.3       16 UNK         0.1400 
     91 CB         -2.9521  -27.4297  -50.1160 C.3       16 UNK        -0.1800 
     92 C          -4.7206  -26.3698  -51.5655 C.2       16 UNK         0.5000 
     93 O          -4.8796  -27.1500  -52.5051 O.2       16 UNK        -0.5000 
     94 N          -4.7672  -25.0336  -51.6836 N.am      17 UNK        -0.5000 
     95 CA         -4.8632  -24.2444  -52.9183 C.3       17 UNK         0.1400 
     96 CB         -6.2246  -24.4572  -53.6110 C.3       17 UNK        -0.1800 
     97 C          -3.6566  -24.4789  -53.8548 C.2       17 UNK         0.5000 
     98 O          -3.8057  -24.5379  -55.0768 O.2       17 UNK        -0.5000 
     99 N          -2.4684  -24.6079  -53.2537 N.am      18 UNK        -0.5000 
    100 CA        -1.2004  -24.9480  -53.8949 C.3       18 UNK         0.1400 
    101 CB        -0.3379  -25.7197  -52.8795 C.3       18 UNK        -0.1800 
    102 C         -0.4936  -23.6972  -54.4537 C.2       18 UNK         0.5000 
    103 O          0.6581  -23.4294  -54.1079 O.2       18 UNK        -0.5000 
    104 N         -1.2134  -22.9462  -55.3002 N.am      19 UNK        -0.5000 
    105 CA        -0.7885  -21.7169  -55.9854 C.3       19 UNK         0.1400 
    106 CB         0.3269  -22.0209  -57.0079 C.3       19 UNK        -0.1800 
    107 C         -0.4258  -20.5564  -55.0300 C.2       19 UNK         0.5000 
    108 O          0.3991  -19.7066  -55.3727 O.2       19 UNK        -0.5000 
    109 N         -1.0598  -20.5343  -53.8506 N.am      20 UNK        -0.5000 
    110 CA        -0.9430  -19.4721  -52.8534 C.3       20 UNK         0.1400 
    111 CB        -1.5388  -19.9789  -51.5338 C.3       20 UNK        -0.1800 
    112 C         -1.6632  -18.1849  -53.2943 C.2       20 UNK         0.5000 
    113 O         -2.5345  -18.2278  -54.1667 O.2       20 UNK        -0.5000 
    114 N         -1.3307  -17.0686  -52.6335 N.am      21 UNK        -0.5000 
    115 CA        -1.8903  -15.7359  -52.8863 C.3       21 UNK         0.1400 
    116 CB        -1.1631  -14.7205  -51.9962 C.3       21 UNK        -0.1800 
    117 C         -3.4174  -15.6322  -52.6890 C.2       21 UNK         0.5000 
    118 O         -4.0599  -14.8250  -53.3617 O.2       21 UNK        -0.5000 
    119 N         -3.9677  -16.4692  -51.8007 N.am      22 UNK        -0.5000 
    120 CA        -5.4152  -16.6453  -51.5987 C.3       22 UNK         0.1400 
    121 C         -6.0881  -17.6079  -52.6254 C.2       22 UNK         0.5000 
    122 N         -5.3700  -18.2273  -53.5554 N.am      22 UNK        -0.7600 
    123 O         -7.3021  -17.7884  -52.5884 O.2       22 UNK        -0.5000 
    124 C124       -5.7379  -17.0614  -50.1402 C.3       23 UNK        -0.0398 
    125 S125       -5.4492  -15.7108  -48.9455 S.3       23 UNK        -0.2404 
    126 C126       -3.8591  -16.1650  -48.1864 C.3       23 UNK        -0.0205 
    127 H127       -3.2186   -7.2766  -48.7805 H         1 UNK         0.0600 
    128 H128       -1.5108   -6.9181  -49.0517 H         1 UNK         0.0600 
    129 H129       -2.2356   -6.6218  -47.4679 H         1 UNK         0.0600 
    130 H130       -3.5842   -9.4362  -48.5729 H         1 UNK         0.3000 
    131 H131       -3.5453  -11.5492  -48.1029 H         1 UNK         0.0600 
    132 H132       -1.7680  -10.6749  -45.7903 H         1 UNK         0.0800 
    133 H133       -1.8870  -12.3664  -46.1344 H         1 UNK         0.0800 
    134 H134       -2.6823  -12.7812  -43.8015 H         1 UNK         0.0800 
    135 H135       -4.3847  -12.8086  -43.4303 H         1 UNK         0.0800 
    136 H136       -3.6482  -13.7853  -46.9330 H         1 UNK         0.1150 
    137 H137       -4.1439  -17.9556  -46.1430 H         1 UNK         0.1150 
    138 H138       -3.9499  -15.1857  -42.8839 H         1 UNK         0.1150 
    139 H139       -4.6408  -17.4306  -42.4665 H         1 UNK         0.0800 
    140 H140       -5.0613  -18.4898  -43.7800 H         1 UNK         0.0800 
    141 H141       -3.5932  -20.1275  -44.8631 H         1 UNK         0.0800 
    142 H142       -3.8933  -20.8654  -43.3093 H         1 UNK         0.0800 
    143 H143       -1.1761  -20.6381  -44.6777 H         1 UNK         0.0600 
    144 H144       -0.1784  -21.2974  -42.8722 H         1 UNK         0.3000 
    145 H145       -1.1472  -22.6290  -39.7859 H         1 UNK         0.0600 
    146 H146        0.4881  -24.4693  -40.1060 H         1 UNK         0.0600 
    147 H147       -0.9851  -24.8235  -40.9949 H         1 UNK         0.0600 
    148 H148        0.4401  -24.2480  -41.8539 H         1 UNK         0.0600 
    149 H149        0.9542  -21.5137  -41.5806 H         1 UNK         0.3000 
    150 H150        2.2863  -19.6754  -38.8987 H         1 UNK         0.0600 
    151 H151        3.7397  -21.7076  -38.7504 H         1 UNK         0.0600 
    152 H152        4.5028  -20.4483  -39.7075 H         1 UNK         0.0600 
    153 H153        3.7581  -21.8349  -40.5054 H         1 UNK         0.0600 
    154 H154        2.9858  -19.7988  -41.6621 H         1 UNK         0.3000 
    155 H155        0.3382  -17.9500  -43.0423 H         1 UNK         0.0600 
    156 H156        2.0802  -16.1930  -43.5330 H         1 UNK         0.0600 
    157 H157        3.0552  -16.7982  -42.2060 H         1 UNK         0.0600 
    158 H158        1.4831  -16.0737  -41.8891 H         1 UNK         0.0600 
    159 H159        2.4631  -18.2315  -44.4834 H         1 UNK         0.3000 
    160 H160        3.7187  -20.0737  -45.3726 H         1 UNK         0.0600 
    161 H161        1.9959  -22.6104  -45.4832 H         1 UNK         0.0600 
    162 H162        3.5949  -22.4384  -44.7888 H         1 UNK         0.0600 
    163 H163        3.3788  -22.2850  -46.5259 H         1 UNK         0.0600 
    164 H164        2.3946  -19.0439  -46.8391 H         1 UNK         0.3000 
    165 H165       -0.3304  -19.9081  -48.7791 H         1 UNK         0.0600 
    166 H166       -0.4629  -17.8771  -46.4868 H         1 UNK         0.0600 
    167 H167       -1.3456  -17.7431  -48.0063 H         1 UNK         0.0600 
    168 H168       -1.6745  -19.0681  -46.8953 H         1 UNK         0.0600 
    169 H169        1.3405  -17.5484  -48.2186 H         1 UNK         0.3000 
    170 H170        3.7553  -18.2486  -50.6361 H         1 UNK         0.0600 
    171 H171        2.0074  -17.6017  -52.2780 H         1 UNK         0.0600 
    172 H172        1.3844  -16.3815  -51.1712 H         1 UNK         0.0600 
    173 H173        2.9957  -16.2114  -51.8615 H         1 UNK         0.0600 
    174 H174        2.7902  -15.8729  -49.2265 H         1 UNK         0.3000 
    175 H175        4.7000  -16.4671  -46.2797 H         1 UNK         0.0600 
    176 H176        5.2092  -14.3964  -48.4868 H         1 UNK         0.0600 
    177 H177        5.6750  -14.2409  -46.7923 H         1 UNK         0.0600 
    178 H178        6.4209  -15.4715  -47.7992 H         1 UNK         0.0600 
    179 H179        3.1247  -14.2496  -47.1657 H         1 UNK         0.3000 
    180 H180       -0.0142  -15.5304  -47.0278 H         1 UNK         0.0600 
    181 H181        0.8898  -14.1182  -44.4684 H         1 UNK         0.0600 
    182 H182        0.0021  -15.6395  -44.5607 H         1 UNK         0.0600 
    183 H183       -0.7574  -14.1607  -45.0978 H         1 UNK         0.0600 
    184 H184        0.6465  -12.8344  -46.6521 H         1 UNK         0.3000 
    185 H185        1.7927  -11.5086  -48.6327 H         1 UNK         0.0600 
    186 H186        1.0088  -10.9160  -50.8992 H         1 UNK         0.0600 
    187 H187        1.9433  -12.4025  -50.9538 H         1 UNK         0.0600 
    188 H188        0.1901  -12.4645  -51.0584 H         1 UNK         0.0600 
    189 H189       -0.1223  -10.5592  -47.9793 H         1 UNK         0.3000 
    190 H190       -0.4015  -23.2856  -44.2769 H         1 UNK         0.3000 
    191 H191       -2.2428  -25.2605  -45.0326 H         1 UNK         0.0600 
    192 H192       -0.1444  -25.7522  -43.8348 H         1 UNK         0.0600 
    193 H193       -0.1882  -26.6705  -45.3303 H         1 UNK         0.0600 
    194 H194        0.8161  -25.2294  -45.2194 H         1 UNK         0.0600 
    195 H195       -0.1155  -23.2474  -47.0999 H         1 UNK         0.3000 
    196 H196       -0.6304  -24.8472  -49.4883 H         1 UNK         0.0600 
    197 H197        0.6451  -23.1048  -50.6568 H         1 UNK         0.0600 
    198 H198        1.5085  -23.5949  -49.2062 H         1 UNK         0.0600 
    199 H199        0.6247  -22.0723  -49.2429 H         1 UNK         0.0600 
    200 H200       -2.1019  -22.0601  -47.8948 H         1 UNK         0.3000 
    201 H201       -3.8371  -21.3484  -50.1367 H         1 UNK         0.0600 
    202 H202       -3.2751  -19.6000  -48.5555 H         1 UNK         0.0600 
    203 H203       -3.8664  -20.5468  -47.1883 H         1 UNK         0.0600 
    204 H204       -4.9899  -19.9375  -48.3934 H         1 UNK         0.0600 
    205 H205       -4.1352  -23.2956  -47.1462 H         1 UNK         0.3000 
    206 H206       -6.8327  -24.0917  -47.4974 H         1 UNK         0.0600 
    207 H207       -5.5813  -24.3342  -45.3626 H         1 UNK         0.0600 
    208 H208       -6.2424  -25.8817  -45.8708 H         1 UNK         0.0600 
    209 H209       -4.5300  -25.5461  -46.0903 H         1 UNK         0.0600 
    210 H210       -3.7843  -25.6030  -48.6429 H         1 UNK         0.3000 
    211 H211       -5.0632  -27.8000  -50.0071 H         1 UNK         0.0600 
    212 H212       -2.2495  -26.6091  -50.2644 H         1 UNK         0.0600 
    213 H213       -2.7585  -28.1720  -50.8914 H         1 UNK         0.0600 
    214 H214       -2.7253  -27.8956  -49.1569 H         1 UNK         0.0600 
    215 H215       -4.6034  -24.4934  -50.8451 H         1 UNK         0.3000 
    216 H216       -4.8100  -23.1986  -52.6118 H         1 UNK         0.0600 
    217 H217       -7.0486  -24.2804  -52.9196 H         1 UNK         0.0600 
    218 H218       -6.3277  -25.4682  -54.0056 H         1 UNK         0.0600 
    219 H219       -6.3486  -23.7672  -54.4463 H         1 UNK         0.0600 
    220 H220       -2.4271  -24.4157  -52.2548 H         1 UNK         0.3000 
    221 H221       -1.3937  -25.6136  -54.7388 H         1 UNK         0.0600 
    222 H222       -0.1048  -25.1111  -52.0056 H         1 UNK         0.0600 
    223 H223       -0.8479  -26.6192  -52.5340 H         1 UNK         0.0600 
    224 H224        0.6066  -26.0344  -53.3248 H         1 UNK         0.0600 
    225 H225       -2.1558  -23.2625  -55.5025 H         1 UNK         0.3000 
    226 H226       -1.6581  -21.3731  -56.5471 H         1 UNK         0.0600 
    227 H227        1.2577  -22.3087  -56.5184 H         1 UNK         0.0600 
    228 H228        0.0369  -22.8289  -57.6795 H         1 UNK         0.0600 
    229 H229        0.5400  -21.1487  -57.6269 H         1 UNK         0.0600 
    230 H230       -1.7311  -21.2620  -53.6599 H         1 UNK         0.3000 
    231 H231        0.1150  -19.2481  -52.7030 H         1 UNK         0.0600 
    232 H232       -1.4883  -19.2191  -50.7536 H         1 UNK         0.0600 
    233 H233       -0.9944  -20.8507  -51.1724 H         1 UNK         0.0600 
    234 H234       -2.5851  -20.2562  -51.6577 H         1 UNK         0.0600 
    235 H235       -0.6226  -17.1192  -51.9173 H         1 UNK         0.3000 
    236 H236       -1.6834  -15.4847  -53.9286 H         1 UNK         0.0600 
    237 H237       -0.1006  -14.6735  -52.2349 H         1 UNK         0.0600 
    238 H238       -1.5708  -13.7183  -52.1347 H         1 UNK         0.0600 
    239 H239       -1.2589  -14.9683  -50.9381 H         1 UNK         0.0600 
    240 H240       -3.3634  -17.1034  -51.3033 H         1 UNK         0.3000 
    241 H241       -5.8981  -15.6810  -51.7692 H         1 UNK         0.0600 
    242 H242       -4.3694  -18.0843  -53.6523 H         1 UNK         0.3800 
    243 H243       -5.8420  -18.8329  -54.2073 H         1 UNK         0.3800 
    244 H244       -5.1817  -17.9561  -49.8607 H         1 UNK         0.0800 
    245 H245       -6.7915  -17.3281  -50.0401 H         1 UNK         0.0800 
    246 H246       -3.6390  -17.2158  -48.3686 H         1 UNK         0.0800 
    247 H247       -3.0587  -15.5943  -48.6609 H         1 UNK         0.0800 
@<TRIPOS>BOND
     1    1    2 1    
     2    1  127 1    
     3    1  128 1    
     4    1  129 1    
     5    2    3 2    
     6    2    4 am   BACKBONE|DICT|INTERRES
     7    4    5 1    
     8    4  130 1    
     9    5    6 1    
    10    5   65 1    
    11    5  131 1    
    12    6    7 1    
    13    6  132 1    
    14    6  133 1    
    15    7    8 1    
    16    8    9 1    
    17    8  134 1    
    18    8  135 1    
    19    9   10 ar   
    20    9   14 ar   
    21   10   11 ar   
    22   10  136 1    
    23   11   12 ar   
    24   11  126 1    
    25   12   13 ar   
    26   12  137 1    
    27   13   14 ar   
    28   13   15 1    
    29   14  138 1    
    30   15   16 1    
    31   15  139 1    
    32   15  140 1    
    33   16   17 1    
    34   17   18 1    
    35   17  141 1    
    36   17  142 1    
    37   18   19 1    
    38   18   67 1    
    39   18  143 1    
    40   19   20 am   BACKBONE|DICT|INTERRES
    41   19  144 1    
    42   20   21 2    
    43   20   22 1    
    44   22   23 1    
    45   22   24 1    
    46   22  145 1    
    47   23  146 1    
    48   23  147 1    
    49   23  148 1    
    50   24   25 am   BACKBONE|DICT|INTERRES
    51   24  149 1    
    52   25   26 2    
    53   25   27 1    
    54   27   28 1    
    55   27   29 1    
    56   27  150 1    
    57   28  151 1    
    58   28  152 1    
    59   28  153 1    
    60   29   30 am   BACKBONE|DICT|INTERRES
    61   29  154 1    
    62   30   31 2    
    63   30   32 1    
    64   32   33 1    
    65   32   34 1    
    66   32  155 1    
    67   33  156 1    
    68   33  157 1    
    69   33  158 1    
    70   34   35 am   BACKBONE|DICT|INTERRES
    71   34  159 1    
    72   35   36 2    
    73   35   37 1    
    74   37   38 1    
    75   37   39 1    
    76   37  160 1    
    77   38  161 1    
    78   38  162 1    
    79   38  163 1    
    80   39   40 am   BACKBONE|DICT|INTERRES
    81   39  164 1    
    82   40   41 2    
    83   40   42 1    
    84   42   43 1    
    85   42   44 1    
    86   42  165 1    
    87   43  166 1    
    88   43  167 1    
    89   43  168 1    
    90   44   45 am   BACKBONE|DICT|INTERRES
    91   44  169 1    
    92   45   46 2    
    93   45   47 1    
    94   47   48 1    
    95   47   49 1    
    96   47  170 1    
    97   48  171 1    
    98   48  172 1    
    99   48  173 1    
   100   49   50 am   BACKBONE|DICT|INTERRES
   101   49  174 1    
   102   50   51 2    
   103   50   52 1    
   104   52   53 1    
   105   52   54 1    
   106   52  175 1    
   107   53  176 1    
   108   53  177 1    
   109   53  178 1    
   110   54   55 am   BACKBONE|DICT|INTERRES
   111   54  179 1    
   112   55   56 2    
   113   55   57 1    
   114   57   58 1    
   115   57   59 1    
   116   57  180 1    
   117   58  181 1    
   118   58  182 1    
   119   58  183 1    
   120   59   60 am   BACKBONE|DICT|INTERRES
   121   59  184 1    
   122   60   61 2    
   123   60   62 1    
   124   62   63 1    
   125   62   64 1    
   126   62  185 1    
   127   63  186 1    
   128   63  187 1    
   129   63  188 1    
   130   64   65 am   BACKBONE|DICT|INTERRES
   131   64  189 1    
   132   65   66 2    
   133   67   68 2    
   134   67   69 am   BACKBONE|DICT|INTERRES
   135   69   70 1    
   136   69  190 1    
   137   70   71 1    
   138   70   72 1    
   139   70  191 1    
   140   71  192 1    
   141   71  193 1    
   142   71  194 1    
   143   72   73 2    
   144   72   74 am   BACKBONE|DICT|INTERRES
   145   74   75 1    
   146   74  195 1    
   147   75   76 1    
   148   75   77 1    
   149   75  196 1    
   150   76  197 1    
   151   76  198 1    
   152   76  199 1    
   153   77   78 2    
   154   77   79 am   BACKBONE|DICT|INTERRES
   155   79   80 1    
   156   79  200 1    
   157   80   81 1    
   158   80   82 1    
   159   80  201 1    
   160   81  202 1    
   161   81  203 1    
   162   81  204 1    
   163   82   83 2    
   164   82   84 am   BACKBONE|DICT|INTERRES
   165   84   85 1    
   166   84  205 1    
   167   85   86 1    
   168   85   87 1    
   169   85  206 1    
   170   86  207 1    
   171   86  208 1    
   172   86  209 1    
   173   87   88 2    
   174   87   89 am   BACKBONE|DICT|INTERRES
   175   89   90 1    
   176   89  210 1    
   177   90   91 1    
   178   90   92 1    
   179   90  211 1    
   180   91  212 1    
   181   91  213 1    
   182   91  214 1    
   183   92   93 2    
   184   92   94 am   BACKBONE|DICT|INTERRES
   185   94   95 1    
   186   94  215 1    
   187   95   96 1    
   188   95   97 1    
   189   95  216 1    
   190   96  217 1    
   191   96  218 1    
   192   96  219 1    
   193   97   98 2    
   194   97   99 am   BACKBONE|DICT|INTERRES
   195   99  100 1    
   196   99  220 1    
   197  100  101 1    
   198  100  102 1    
   199  100  221 1    
   200  101  222 1    
   201  101  223 1    
   202  101  224 1    
   203  102  103 2    
   204  102  104 am   BACKBONE|DICT|INTERRES
   205  104  105 1    
   206  104  225 1    
   207  105  106 1    
   208  105  107 1    
   209  105  226 1    
   210  106  227 1    
   211  106  228 1    
   212  106  229 1    
   213  107  108 2    
   214  107  109 am   BACKBONE|DICT|INTERRES
   215  109  110 1    
   216  109  230 1    
   217  110  111 1    
   218  110  112 1    
   219  110  231 1    
   220  111  232 1    
   221  111  233 1    
   222  111  234 1    
   223  112  113 2    
   224  112  114 am   BACKBONE|DICT|INTERRES
   225  114  115 1    
   226  114  235 1    
   227  115  116 1    
   228  115  117 1    
   229  115  236 1    
   230  116  237 1    
   231  116  238 1    
   232  116  239 1    
   233  117  118 2    
   234  117  119 am   BACKBONE|DICT|INTERRES
   235  119  120 1    
   236  119  240 1    
   237  120  121 1    
   238  120  124 1    
   239  120  241 1    
   240  121  122 am   BACKBONE|DICT|INTERRES
   241  121  123 2    
   242  122  242 1    
   243  122  243 1    
   244  124  125 1    
   245  124  244 1    
   246  124  245 1    
   247  125  126 1    
   248  126  246 1    
   249  126  247 1    
@<TRIPOS>SUBSTRUCTURE
     1 UNK         1 GROUP             0       ****    0 ROOT    
