@<TRIPOS>MOLECULE
3R540
247   249    1
SMALL
USER_CHARGES


@<TRIPOS>ATOM
      1 CA          7.7507  -12.5696  -48.5717 C.3       0 UNK        -0.1800 
      2 C           6.6126  -13.1451  -47.7405 C.2       0 UNK         0.5000 
      3 O           6.5646  -12.9242  -46.5301 O.2       0 UNK        -0.5000 
      4 N           5.7043  -13.8889  -48.3824 N.am      1 UNK        -0.5000 
      5 CA          4.4994  -14.4592  -47.7746 C.3       1 UNK         0.1400 
      6 C6          3.8743  -15.5804  -48.6474 C.3       23 UNK        -0.0398 
      7 S7          3.6495  -15.1336  -50.4083 S.3       23 UNK        -0.2404 
      8 C8          1.8303  -15.0527  -50.5539 C.3       23 UNK        -0.0205 
      9 C9          1.0929  -16.3936  -50.5075 C.ar      23 UNK        -0.0193 
     10 C10        -0.2882  -16.3820  -50.2987 C.ar      23 UNK        -0.1150 
     11 C11        -1.0186  -17.5718  -50.2447 C.ar      23 UNK        -0.0193 
     12 C12        -0.3572  -18.7897  -50.4221 C.ar      23 UNK        -0.1150 
     13 C13         1.0260  -18.8277  -50.6404 C.ar      23 UNK        -0.0193 
     14 C14         1.7367  -17.6249  -50.6873 C.ar      23 UNK        -0.1150 
     15 C15         1.7963  -20.1332  -50.8527 C.3       23 UNK        -0.0205 
     16 S16         1.0354  -21.6371  -50.1522 S.3       23 UNK        -0.2404 
     17 C17         0.9696  -21.2145  -48.3766 C.3       23 UNK        -0.0398 
     18 CA          0.1700  -22.2038  -47.4938 C.3       11 UNK         0.1400 
     19 N           0.1869  -21.7689  -46.0914 N.am      11 UNK        -0.5000 
     20 C          -0.3351  -22.4331  -45.0495 C.2       10 UNK         0.5000 
     21 O          -0.9356  -23.5012  -45.1471 O.2       10 UNK        -0.5000 
     22 CA         -0.2161  -21.7644  -43.6691 C.3       10 UNK         0.1400 
     23 CB          1.2396  -21.7419  -43.1788 C.3       10 UNK        -0.1800 
     24 N          -0.7564  -20.4083  -43.6836 N.am      10 UNK        -0.5000 
     25 C          -2.0450  -20.1090  -43.9003 C.2       9 UNK         0.5000 
     26 O          -2.9395  -20.9498  -43.9948 O.2       9 UNK        -0.5000 
     27 CA         -2.3823  -18.6191  -44.0843 C.3       9 UNK         0.1400 
     28 CB         -2.6518  -17.9468  -42.7305 C.3       9 UNK        -0.1800 
     29 N          -1.3242  -17.8930  -44.7883 N.am      9 UNK        -0.5000 
     30 C          -0.9989  -18.0880  -46.0740 C.2       8 UNK         0.5000 
     31 O          -1.5525  -18.9058  -46.8061 O.2       8 UNK        -0.5000 
     32 CA          0.1721  -17.2538  -46.6156 C.3       8 UNK         0.1400 
     33 CB         -0.2971  -15.8263  -46.9271 C.3       8 UNK        -0.1800 
     34 N           1.3023  -17.2283  -45.6824 N.am      8 UNK        -0.5000 
     35 C           2.0524  -18.3096  -45.4160 C.2       7 UNK         0.5000 
     36 O           1.8758  -19.4063  -45.9450 O.2       7 UNK        -0.5000 
     37 CA          3.1637  -18.1697  -44.3602 C.3       7 UNK         0.1400 
     38 CB          4.4670  -17.6927  -45.0163 C.3       7 UNK        -0.1800 
     39 N           2.8386  -17.2791  -43.2468 N.am      7 UNK        -0.5000 
     40 C           1.7846  -17.3934  -42.4293 C.2       6 UNK         0.5000 
     41 O           0.9224  -18.2657  -42.5474 O.2       6 UNK        -0.5000 
     42 CA          1.7045  -16.3565  -41.2958 C.3       6 UNK         0.1400 
     43 CB          0.5771  -16.6674  -40.2966 C.3       6 UNK        -0.1800 
     44 N           2.9671  -16.3209  -40.5534 N.am      6 UNK        -0.5000 
     45 C           3.9578  -15.4140  -40.5038 C.2       5 UNK         0.5000 
     46 O           4.9622  -15.6478  -39.8340 O.2       5 UNK        -0.5000 
     47 CA          3.9120  -14.0667  -41.2665 C.3       5 UNK         0.1400 
     48 CB          4.4229  -14.2186  -42.7089 C.3       5 UNK        -0.1800 
     49 N           2.6398  -13.3461  -41.2559 N.am      5 UNK        -0.5000 
     50 C           2.0234  -12.8656  -40.1666 C.2       4 UNK         0.5000 
     51 O           2.4611  -12.9910  -39.0227 O.2       4 UNK        -0.5000 
     52 CA          0.7095  -12.0893  -40.3905 C.3       4 UNK         0.1400 
     53 CB          0.9546  -10.5788  -40.2467 C.3       4 UNK        -0.1800 
     54 N           0.1185  -12.3415  -41.7077 N.am      4 UNK        -0.5000 
     55 C          -0.7371  -13.3357  -41.9822 C.2       3 UNK         0.5000 
     56 O          -1.1665  -14.1180  -41.1367 O.2       3 UNK        -0.5000 
     57 CA         -1.1813  -13.4958  -43.4491 C.3       3 UNK         0.1400 
     58 CB         -2.5734  -12.8838  -43.6626 C.3       3 UNK        -0.1800 
     59 N          -0.2433  -12.8982  -44.4042 N.am      3 UNK        -0.5000 
     60 C           0.9351  -13.4352  -44.7382 C.2       2 UNK         0.5000 
     61 O           1.3513  -14.5092  -44.2899 O.2       2 UNK        -0.5000 
     62 CA          1.7891  -12.6409  -45.7334 C.3       2 UNK         0.1400 
     63 CB          2.4408  -11.4249  -45.0497 C.3       2 UNK        -0.1800 
     64 N           2.8168  -13.5277  -46.2646 N.am      2 UNK        -0.5000 
     65 C           3.4754  -13.3612  -47.4150 C.2       1 UNK         0.5000 
     66 O           3.2947  -12.4078  -48.1766 O.2       1 UNK        -0.5000 
     67 C          -1.2605  -22.4536  -48.0233 C.2       11 UNK         0.5000 
     68 O          -1.4909  -23.4696  -48.6839 O.2       11 UNK        -0.5000 
     69 N          -2.2014  -21.5621  -47.6766 N.am      12 UNK        -0.5000 
     70 CA         -3.6260  -21.6510  -48.0068 C.3       12 UNK         0.1400 
     71 CB         -4.3743  -20.4821  -47.3494 C.3       12 UNK        -0.1800 
     72 C          -4.2767  -22.9931  -47.6231 C.2       12 UNK         0.5000 
     73 O          -5.1065  -23.4939  -48.3832 O.2       12 UNK        -0.5000 
     74 N          -3.8578  -23.5560  -46.4824 N.am      13 UNK        -0.5000 
     75 CA         -4.2915  -24.8580  -45.9897 C.3       13 UNK         0.1400 
     76 CB         -4.3851  -24.8067  -44.4563 C.3       13 UNK        -0.1800 
     77 C          -3.3447  -25.9843  -46.4395 C.2       13 UNK         0.5000 
     78 O          -3.8128  -26.9829  -46.9854 O.2       13 UNK        -0.5000 
     79 N          -2.0377  -25.8197  -46.1897 N.am      14 UNK        -0.5000 
     80 CA         -1.0179  -26.8635  -46.3268 C.3       14 UNK         0.1400 
     81 CB          0.2805  -26.4066  -45.6439 C.3       14 UNK        -0.1800 
     82 C          -0.7378  -27.2812  -47.7784 C.2       14 UNK         0.5000 
     83 O          -0.5769  -28.4735  -48.0423 O.2       14 UNK        -0.5000 
     84 N          -0.6986  -26.3033  -48.6915 N.am      15 UNK        -0.5000 
     85 CA         -0.5436  -26.5293  -50.1306 C.3       15 UNK         0.1400 
     86 CB          0.3615  -25.4305  -50.7127 C.3       15 UNK        -0.1800 
     87 C          -1.9062  -26.5501  -50.8490 C.2       15 UNK         0.5000 
     88 O          -1.9431  -26.7603  -52.0617 O.2       15 UNK        -0.5000 
     89 N          -2.9907  -26.3008  -50.0967 N.am      16 UNK        -0.5000 
     90 CA         -4.3754  -26.1235  -50.5430 C.3       16 UNK         0.1400 
     91 CB         -4.9427  -27.4346  -51.1244 C.3       16 UNK        -0.1800 
     92 C          -4.5446  -24.9221  -51.4965 C.2       16 UNK         0.5000 
     93 O          -5.4561  -24.9183  -52.3261 O.2       16 UNK        -0.5000 
     94 N          -3.6715  -23.9105  -51.3580 N.am      17 UNK        -0.5000 
     95 CA         -3.5981  -22.7366  -52.2313 C.3       17 UNK         0.1400 
     96 CB         -2.3466  -21.9159  -51.8885 C.3       17 UNK        -0.1800 
     97 C          -4.8655  -21.8618  -52.2230 C.2       17 UNK         0.5000 
     98 O          -5.0936  -21.1352  -53.1901 O.2       17 UNK        -0.5000 
     99 N          -5.7035  -21.9943  -51.1830 N.am      18 UNK        -0.5000 
    100 CA        -7.0304  -21.3833  -51.0911 C.3       18 UNK         0.1400 
    101 CB        -7.6488  -21.7158  -49.7259 C.3       18 UNK        -0.1800 
    102 C         -7.9895  -21.8155  -52.2183 C.2       18 UNK         0.5000 
    103 O         -8.8292  -21.0140  -52.6268 O.2       18 UNK        -0.5000 
    104 N         -7.8306  -23.0462  -52.7312 N.am      19 UNK        -0.5000 
    105 CA        -8.6104  -23.5763  -53.8540 C.3       19 UNK         0.1400 
    106 CB        -8.4223  -25.0988  -53.9317 C.3       19 UNK        -0.1800 
    107 C         -8.2447  -22.9164  -55.1981 C.2       19 UNK         0.5000 
    108 O         -9.0990  -22.8184  -56.0795 O.2       19 UNK        -0.5000 
    109 N         -6.9925  -22.4562  -55.3192 N.am      20 UNK        -0.5000 
    110 CA        -6.4816  -21.6939  -56.4599 C.3       20 UNK         0.1400 
    111 CB        -4.9931  -22.0352  -56.6419 C.3       20 UNK        -0.1800 
    112 C         -6.6672  -20.1725  -56.2805 C.2       20 UNK         0.5000 
    113 O         -6.4048  -19.4230  -57.2212 O.2       20 UNK        -0.5000 
    114 N         -7.0896  -19.7498  -55.0784 N.am      21 UNK        -0.5000 
    115 CA        -7.1857  -18.3719  -54.5855 C.3       21 UNK         0.1400 
    116 CB        -8.2154  -17.5567  -55.3958 C.3       21 UNK        -0.1800 
    117 C         -5.8110  -17.6757  -54.4665 C.2       21 UNK         0.5000 
    118 O         -5.7330  -16.4502  -54.5765 O.2       21 UNK        -0.5000 
    119 N         -4.7617  -18.4717  -54.2154 N.am      22 UNK        -0.5000 
    120 CA        -3.3562  -18.0634  -54.0543 C.3       22 UNK         0.1400 
    121 C         -2.7463  -17.3653  -55.3131 C.2       22 UNK         0.5000 
    122 N         -1.6113  -16.6872  -55.1940 N.am      22 UNK        -0.7600 
    123 O         -3.2541  -17.4801  -56.4264 O.2       22 UNK        -0.5000 
    124 C124       -3.1265  -17.2919  -52.7230 C.3       23 UNK        -0.0398 
    125 S125       -3.5157  -18.3264  -51.2680 S.3       23 UNK        -0.2404 
    126 C126       -2.5168  -17.5336  -49.9678 C.3       23 UNK        -0.0205 
    127 H127        8.7090  -12.9271  -48.1949 H         1 UNK         0.0600 
    128 H128        7.7443  -11.4812  -48.5132 H         1 UNK         0.0600 
    129 H129        7.6703  -12.8541  -49.6212 H         1 UNK         0.0600 
    130 H130        5.7728  -14.0079  -49.3834 H         1 UNK         0.3000 
    131 H131        4.8155  -14.9221  -46.8383 H         1 UNK         0.0600 
    132 H132        2.9295  -15.9259  -48.2233 H         1 UNK         0.0800 
    133 H133        4.5306  -16.4513  -48.6234 H         1 UNK         0.0800 
    134 H134        1.5898  -14.5690  -51.5014 H         1 UNK         0.0800 
    135 H135        1.4500  -14.3960  -49.7697 H         1 UNK         0.0800 
    136 H136       -0.7964  -15.4371  -50.1654 H         1 UNK         0.1150 
    137 H137       -0.9300  -19.7039  -50.3844 H         1 UNK         0.1150 
    138 H138        2.8001  -17.6606  -50.8717 H         1 UNK         0.1150 
    139 H139        1.9238  -20.2828  -51.9253 H         1 UNK         0.0800 
    140 H140        2.7994  -20.0398  -50.4333 H         1 UNK         0.0800 
    141 H141        0.5542  -20.2130  -48.2640 H         1 UNK         0.0800 
    142 H142        1.9972  -21.1530  -48.0161 H         1 UNK         0.0800 
    143 H143        0.6865  -23.1651  -47.5276 H         1 UNK         0.0600 
    144 H144        0.6641  -20.8888  -45.9150 H         1 UNK         0.3000 
    145 H145       -0.8020  -22.3528  -42.9598 H         1 UNK         0.0600 
    146 H146        1.3118  -21.3066  -42.1819 H         1 UNK         0.0600 
    147 H147        1.8836  -21.1641  -43.8409 H         1 UNK         0.0600 
    148 H148        1.6471  -22.7521  -43.1244 H         1 UNK         0.0600 
    149 H149       -0.0997  -19.6470  -43.5421 H         1 UNK         0.3000 
    150 H150       -3.2917  -18.5536  -44.6854 H         1 UNK         0.0600 
    151 H151       -3.4983  -18.4152  -42.2272 H         1 UNK         0.0600 
    152 H152       -2.8877  -16.8891  -42.8499 H         1 UNK         0.0600 
    153 H153       -1.7925  -18.0287  -42.0656 H         1 UNK         0.0600 
    154 H154       -0.7666  -17.2575  -44.2380 H         1 UNK         0.3000 
    155 H155        0.5095  -17.7100  -47.5490 H         1 UNK         0.0600 
    156 H156       -1.0999  -15.8353  -47.6640 H         1 UNK         0.0600 
    157 H157        0.5119  -15.2187  -47.3317 H         1 UNK         0.0600 
    158 H158       -0.6943  -15.3324  -46.0420 H         1 UNK         0.0600 
    159 H159        1.4593  -16.3716  -45.1636 H         1 UNK         0.3000 
    160 H160        3.3387  -19.1621  -43.9408 H         1 UNK         0.0600 
    161 H161        4.3767  -16.6723  -45.3859 H         1 UNK         0.0600 
    162 H162        4.7382  -18.3276  -45.8611 H         1 UNK         0.0600 
    163 H163        5.2975  -17.7211  -44.3107 H         1 UNK         0.0600 
    164 H164        3.5008  -16.5423  -43.0631 H         1 UNK         0.3000 
    165 H165        1.4708  -15.4158  -41.7807 H         1 UNK         0.0600 
    166 H166        0.5278  -15.9096  -39.5144 H         1 UNK         0.0600 
    167 H167       -0.3938  -16.6791  -40.7907 H         1 UNK         0.0600 
    168 H168        0.7149  -17.6373  -39.8171 H         1 UNK         0.0600 
    169 H169        3.1308  -17.1660  -40.0261 H         1 UNK         0.3000 
    170 H170        4.6255  -13.4157  -40.7563 H         1 UNK         0.0600 
    171 H171        5.3533  -14.7875  -42.7400 H         1 UNK         0.0600 
    172 H172        3.7065  -14.7258  -43.3489 H         1 UNK         0.0600 
    173 H173        4.6323  -13.2459  -43.1535 H         1 UNK         0.0600 
    174 H174        2.1910  -13.2162  -42.1490 H         1 UNK         0.3000 
    175 H175        0.0092  -12.3947  -39.6100 H         1 UNK         0.0600 
    176 H176        1.6559  -10.2104  -40.9966 H         1 UNK         0.0600 
    177 H177        0.0259  -10.0175  -40.3505 H         1 UNK         0.0600 
    178 H178        1.3680  -10.3408  -39.2657 H         1 UNK         0.0600 
    179 H179        0.3898  -11.7198  -42.4546 H         1 UNK         0.3000 
    180 H180       -1.2489  -14.5670  -43.6519 H         1 UNK         0.0600 
    181 H181       -2.9278  -13.0565  -44.6790 H         1 UNK         0.0600 
    182 H182       -2.5726  -11.8078  -43.4841 H         1 UNK         0.0600 
    183 H183       -3.3040  -13.3287  -42.9856 H         1 UNK         0.0600 
    184 H184       -0.5256  -12.0234  -44.8235 H         1 UNK         0.3000 
    185 H185        1.1435  -12.3075  -46.5487 H         1 UNK         0.0600 
    186 H186        3.0793  -11.7232  -44.2181 H         1 UNK         0.0600 
    187 H187        3.0538  -10.8584  -45.7508 H         1 UNK         0.0600 
    188 H188        1.6881  -10.7398  -44.6580 H         1 UNK         0.0600 
    189 H189        2.9792  -14.3442  -45.6912 H         1 UNK         0.3000 
    190 H190       -1.9148  -20.7249  -47.1746 H         1 UNK         0.3000 
    191 H191       -3.7229  -21.5413  -49.0860 H         1 UNK         0.0600 
    192 H192       -4.0326  -19.5248  -47.7402 H         1 UNK         0.0600 
    193 H193       -4.2334  -20.4723  -46.2693 H         1 UNK         0.0600 
    194 H194       -5.4458  -20.5383  -47.5340 H         1 UNK         0.0600 
    195 H195       -3.1391  -23.0849  -45.9480 H         1 UNK         0.3000 
    196 H196       -5.2881  -25.0841  -46.3755 H         1 UNK         0.0600 
    197 H197       -5.1171  -24.0661  -44.1336 H         1 UNK         0.0600 
    198 H198       -3.4289  -24.5488  -43.9990 H         1 UNK         0.0600 
    199 H199       -4.6961  -25.7702  -44.0504 H         1 UNK         0.0600 
    200 H200       -1.7207  -24.9471  -45.7684 H         1 UNK         0.3000 
    201 H201       -1.3805  -27.7468  -45.7967 H         1 UNK         0.0600 
    202 H202        0.1124  -26.1729  -44.5925 H         1 UNK         0.0600 
    203 H203        0.6957  -25.5187  -46.1221 H         1 UNK         0.0600 
    204 H204        1.0406  -27.1877  -45.6858 H         1 UNK         0.0600 
    205 H205       -0.8769  -25.3438  -48.4096 H         1 UNK         0.3000 
    206 H206       -0.0611  -27.4915  -50.3130 H         1 UNK         0.0600 
    207 H207       -0.1148  -24.4512  -50.6760 H         1 UNK         0.0600 
    208 H208        1.3058  -25.3651  -50.1721 H         1 UNK         0.0600 
    209 H209        0.5989  -25.6347  -51.7574 H         1 UNK         0.0600 
    210 H210       -2.8392  -26.1724  -49.1059 H         1 UNK         0.3000 
    211 H211       -4.9535  -25.8859  -49.6494 H         1 UNK         0.0600 
    212 H212       -4.4646  -27.7018  -52.0671 H         1 UNK         0.0600 
    213 H213       -6.0127  -27.3459  -51.3160 H         1 UNK         0.0600 
    214 H214       -4.8062  -28.2640  -50.4305 H         1 UNK         0.0600 
    215 H215       -2.9686  -23.9811  -50.6341 H         1 UNK         0.3000 
    216 H216       -3.4822  -23.1042  -53.2529 H         1 UNK         0.0600 
    217 H217       -2.2521  -21.0507  -52.5457 H         1 UNK         0.0600 
    218 H218       -1.4411  -22.5112  -52.0067 H         1 UNK         0.0600 
    219 H219       -2.3677  -21.5457  -50.8657 H         1 UNK         0.0600 
    220 H220       -5.4509  -22.6338  -50.4398 H         1 UNK         0.3000 
    221 H221       -6.9029  -20.3010  -51.1606 H         1 UNK         0.0600 
    222 H222       -7.7499  -22.7923  -49.5818 H         1 UNK         0.0600 
    223 H223       -7.0419  -21.3265  -48.9117 H         1 UNK         0.0600 
    224 H224       -8.6417  -21.2750  -49.6265 H         1 UNK         0.0600 
    225 H225       -7.0898  -23.6420  -52.3757 H         1 UNK         0.3000 
    226 H226       -9.6663  -23.3747  -53.6614 H         1 UNK         0.0600 
    227 H227       -8.6942  -25.5799  -52.9920 H         1 UNK         0.0600 
    228 H228       -9.0510  -25.5294  -54.7120 H         1 UNK         0.0600 
    229 H229       -7.3899  -25.3664  -54.1594 H         1 UNK         0.0600 
    230 H230       -6.3635  -22.5579  -54.5343 H         1 UNK         0.3000 
    231 H231       -7.0127  -21.9874  -57.3677 H         1 UNK         0.0600 
    232 H232       -4.5784  -21.5258  -57.5127 H         1 UNK         0.0600 
    233 H233       -4.8493  -23.1050  -56.7939 H         1 UNK         0.0600 
    234 H234       -4.4009  -21.7364  -55.7762 H         1 UNK         0.0600 
    235 H235       -7.2772  -20.4612  -54.3860 H         1 UNK         0.3000 
    236 H236       -7.5654  -18.4505  -53.5658 H         1 UNK         0.0600 
    237 H237       -7.8684  -17.3559  -56.4096 H         1 UNK         0.0600 
    238 H238       -9.1683  -18.0815  -55.4634 H         1 UNK         0.0600 
    239 H239       -8.4096  -16.5937  -54.9224 H         1 UNK         0.0600 
    240 H240       -4.9380  -19.4631  -54.0805 H         1 UNK         0.3000 
    241 H241       -2.8032  -19.0007  -53.9849 H         1 UNK         0.0600 
    242 H242       -1.2152  -16.2609  -56.0174 H         1 UNK         0.3800 
    243 H243       -1.1292  -16.5979  -54.3141 H         1 UNK         0.3800 
    244 H244       -3.7285  -16.3831  -52.6882 H         1 UNK         0.0800 
    245 H245       -2.0889  -16.9732  -52.6376 H         1 UNK         0.0800 
    246 H246       -2.7082  -18.0425  -49.0242 H         1 UNK         0.0800 
    247 H247       -2.8638  -16.5076  -49.8366 H         1 UNK         0.0800 
@<TRIPOS>BOND
     1    1    2 1    
     2    1  127 1    
     3    1  128 1    
     4    1  129 1    
     5    2    3 2    
     6    2    4 am   BACKBONE|DICT|INTERRES
     7    4    5 1    
     8    4  130 1    
     9    5    6 1    
    10    5   65 1    
    11    5  131 1    
    12    6    7 1    
    13    6  132 1    
    14    6  133 1    
    15    7    8 1    
    16    8    9 1    
    17    8  134 1    
    18    8  135 1    
    19    9   10 ar   
    20    9   14 ar   
    21   10   11 ar   
    22   10  136 1    
    23   11   12 ar   
    24   11  126 1    
    25   12   13 ar   
    26   12  137 1    
    27   13   14 ar   
    28   13   15 1    
    29   14  138 1    
    30   15   16 1    
    31   15  139 1    
    32   15  140 1    
    33   16   17 1    
    34   17   18 1    
    35   17  141 1    
    36   17  142 1    
    37   18   19 1    
    38   18   67 1    
    39   18  143 1    
    40   19   20 am   BACKBONE|DICT|INTERRES
    41   19  144 1    
    42   20   21 2    
    43   20   22 1    
    44   22   23 1    
    45   22   24 1    
    46   22  145 1    
    47   23  146 1    
    48   23  147 1    
    49   23  148 1    
    50   24   25 am   BACKBONE|DICT|INTERRES
    51   24  149 1    
    52   25   26 2    
    53   25   27 1    
    54   27   28 1    
    55   27   29 1    
    56   27  150 1    
    57   28  151 1    
    58   28  152 1    
    59   28  153 1    
    60   29   30 am   BACKBONE|DICT|INTERRES
    61   29  154 1    
    62   30   31 2    
    63   30   32 1    
    64   32   33 1    
    65   32   34 1    
    66   32  155 1    
    67   33  156 1    
    68   33  157 1    
    69   33  158 1    
    70   34   35 am   BACKBONE|DICT|INTERRES
    71   34  159 1    
    72   35   36 2    
    73   35   37 1    
    74   37   38 1    
    75   37   39 1    
    76   37  160 1    
    77   38  161 1    
    78   38  162 1    
    79   38  163 1    
    80   39   40 am   BACKBONE|DICT|INTERRES
    81   39  164 1    
    82   40   41 2    
    83   40   42 1    
    84   42   43 1    
    85   42   44 1    
    86   42  165 1    
    87   43  166 1    
    88   43  167 1    
    89   43  168 1    
    90   44   45 am   BACKBONE|DICT|INTERRES
    91   44  169 1    
    92   45   46 2    
    93   45   47 1    
    94   47   48 1    
    95   47   49 1    
    96   47  170 1    
    97   48  171 1    
    98   48  172 1    
    99   48  173 1    
   100   49   50 am   BACKBONE|DICT|INTERRES
   101   49  174 1    
   102   50   51 2    
   103   50   52 1    
   104   52   53 1    
   105   52   54 1    
   106   52  175 1    
   107   53  176 1    
   108   53  177 1    
   109   53  178 1    
   110   54   55 am   BACKBONE|DICT|INTERRES
   111   54  179 1    
   112   55   56 2    
   113   55   57 1    
   114   57   58 1    
   115   57   59 1    
   116   57  180 1    
   117   58  181 1    
   118   58  182 1    
   119   58  183 1    
   120   59   60 am   BACKBONE|DICT|INTERRES
   121   59  184 1    
   122   60   61 2    
   123   60   62 1    
   124   62   63 1    
   125   62   64 1    
   126   62  185 1    
   127   63  186 1    
   128   63  187 1    
   129   63  188 1    
   130   64   65 am   BACKBONE|DICT|INTERRES
   131   64  189 1    
   132   65   66 2    
   133   67   68 2    
   134   67   69 am   BACKBONE|DICT|INTERRES
   135   69   70 1    
   136   69  190 1    
   137   70   71 1    
   138   70   72 1    
   139   70  191 1    
   140   71  192 1    
   141   71  193 1    
   142   71  194 1    
   143   72   73 2    
   144   72   74 am   BACKBONE|DICT|INTERRES
   145   74   75 1    
   146   74  195 1    
   147   75   76 1    
   148   75   77 1    
   149   75  196 1    
   150   76  197 1    
   151   76  198 1    
   152   76  199 1    
   153   77   78 2    
   154   77   79 am   BACKBONE|DICT|INTERRES
   155   79   80 1    
   156   79  200 1    
   157   80   81 1    
   158   80   82 1    
   159   80  201 1    
   160   81  202 1    
   161   81  203 1    
   162   81  204 1    
   163   82   83 2    
   164   82   84 am   BACKBONE|DICT|INTERRES
   165   84   85 1    
   166   84  205 1    
   167   85   86 1    
   168   85   87 1    
   169   85  206 1    
   170   86  207 1    
   171   86  208 1    
   172   86  209 1    
   173   87   88 2    
   174   87   89 am   BACKBONE|DICT|INTERRES
   175   89   90 1    
   176   89  210 1    
   177   90   91 1    
   178   90   92 1    
   179   90  211 1    
   180   91  212 1    
   181   91  213 1    
   182   91  214 1    
   183   92   93 2    
   184   92   94 am   BACKBONE|DICT|INTERRES
   185   94   95 1    
   186   94  215 1    
   187   95   96 1    
   188   95   97 1    
   189   95  216 1    
   190   96  217 1    
   191   96  218 1    
   192   96  219 1    
   193   97   98 2    
   194   97   99 am   BACKBONE|DICT|INTERRES
   195   99  100 1    
   196   99  220 1    
   197  100  101 1    
   198  100  102 1    
   199  100  221 1    
   200  101  222 1    
   201  101  223 1    
   202  101  224 1    
   203  102  103 2    
   204  102  104 am   BACKBONE|DICT|INTERRES
   205  104  105 1    
   206  104  225 1    
   207  105  106 1    
   208  105  107 1    
   209  105  226 1    
   210  106  227 1    
   211  106  228 1    
   212  106  229 1    
   213  107  108 2    
   214  107  109 am   BACKBONE|DICT|INTERRES
   215  109  110 1    
   216  109  230 1    
   217  110  111 1    
   218  110  112 1    
   219  110  231 1    
   220  111  232 1    
   221  111  233 1    
   222  111  234 1    
   223  112  113 2    
   224  112  114 am   BACKBONE|DICT|INTERRES
   225  114  115 1    
   226  114  235 1    
   227  115  116 1    
   228  115  117 1    
   229  115  236 1    
   230  116  237 1    
   231  116  238 1    
   232  116  239 1    
   233  117  118 2    
   234  117  119 am   BACKBONE|DICT|INTERRES
   235  119  120 1    
   236  119  240 1    
   237  120  121 1    
   238  120  124 1    
   239  120  241 1    
   240  121  122 am   BACKBONE|DICT|INTERRES
   241  121  123 2    
   242  122  242 1    
   243  122  243 1    
   244  124  125 1    
   245  124  244 1    
   246  124  245 1    
   247  125  126 1    
   248  126  246 1    
   249  126  247 1    
@<TRIPOS>SUBSTRUCTURE
     1 UNK         1 GROUP             0       ****    0 ROOT    
