@<TRIPOS>MOLECULE
3R540
247   249    1
SMALL
USER_CHARGES


@<TRIPOS>ATOM
      1 CA          0.8916  -12.9682  -43.8401 C.3       0 UNK        -0.1800 
      2 C           1.7987  -13.0452  -45.0594 C.2       0 UNK         0.5000 
      3 O           2.8034  -12.3385  -45.1283 O.2       0 UNK        -0.5000 
      4 N           1.4311  -13.8918  -46.0290 N.am      1 UNK        -0.5000 
      5 CA          2.1410  -14.0670  -47.2991 C.3       1 UNK         0.1400 
      6 C6          1.2490  -14.7835  -48.3436 C.3       23 UNK        -0.0398 
      7 S7          1.8332  -14.5434  -50.0542 S.3       23 UNK        -0.2404 
      8 C8          0.3115  -14.8797  -51.0049 C.3       23 UNK        -0.0205 
      9 C9         -0.2577  -16.2840  -50.8111 C.ar      23 UNK        -0.0193 
     10 C10        -1.6439  -16.4660  -50.7890 C.ar      23 UNK        -0.1150 
     11 C11        -2.1964  -17.7435  -50.6563 C.ar      23 UNK        -0.0193 
     12 C12        -1.3501  -18.8457  -50.5076 C.ar      23 UNK        -0.1150 
     13 C13         0.0378  -18.6803  -50.5235 C.ar      23 UNK        -0.0193 
     14 C14         0.5759  -17.4023  -50.6947 C.ar      23 UNK        -0.1150 
     15 C15         0.9571  -19.8837  -50.3742 C.3       23 UNK        -0.0205 
     16 S16         2.0089  -19.7970  -48.8853 S.3       23 UNK        -0.2404 
     17 C17         0.7945  -19.6660  -47.5293 C.3       23 UNK        -0.0398 
     18 CA          0.3735  -21.0424  -46.9569 C.3       11 UNK         0.1400 
     19 N           0.0441  -20.9692  -45.5322 N.am      11 UNK        -0.5000 
     20 C          -0.2554  -22.0185  -44.7528 C.2       10 UNK         0.5000 
     21 O          -0.2170  -23.1894  -45.1305 O.2       10 UNK        -0.5000 
     22 CA         -0.7411  -21.6956  -43.3292 C.3       10 UNK         0.1400 
     23 CB          0.4426  -21.4361  -42.3848 C.3       10 UNK        -0.1800 
     24 N          -1.6502  -20.5480  -43.3142 N.am      10 UNK        -0.5000 
     25 C          -2.8815  -20.5538  -43.8457 C.2       9 UNK         0.5000 
     26 O          -3.4010  -21.5471  -44.3536 O.2       9 UNK        -0.5000 
     27 CA         -3.6374  -19.2125  -43.8529 C.3       9 UNK         0.1400 
     28 CB         -4.3078  -18.9584  -42.4948 C.3       9 UNK        -0.1800 
     29 N          -2.7658  -18.0843  -44.1847 N.am      9 UNK        -0.5000 
     30 C          -2.2000  -17.8965  -45.3877 C.2       8 UNK         0.5000 
     31 O          -2.3906  -18.6319  -46.3535 O.2       8 UNK        -0.5000 
     32 CA         -1.2055  -16.7271  -45.5229 C.3       8 UNK         0.1400 
     33 CB         -1.9480  -15.4446  -45.9279 C.3       8 UNK        -0.1800 
     34 N          -0.4451  -16.4907  -44.2929 N.am      8 UNK        -0.5000 
     35 C           0.3498  -17.3977  -43.7048 C.2       7 UNK         0.5000 
     36 O           0.6569  -18.4630  -44.2374 O.2       7 UNK        -0.5000 
     37 CA          0.8501  -17.1007  -42.2768 C.3       7 UNK         0.1400 
     38 CB          2.3804  -16.9987  -42.2514 C.3       7 UNK        -0.1800 
     39 N           0.2807  -15.8908  -41.6770 N.am      7 UNK        -0.5000 
     40 C          -0.9955  -15.7237  -41.2988 C.2       6 UNK         0.5000 
     41 O          -1.8648  -16.5762  -41.4874 O.2       6 UNK        -0.5000 
     42 CA         -1.3849  -14.3619  -40.6795 C.3       6 UNK         0.1400 
     43 CB         -2.1782  -14.5301  -39.3677 C.3       6 UNK        -0.1800 
     44 N          -0.2629  -13.4201  -40.5239 N.am      6 UNK        -0.5000 
     45 C           0.7694  -13.4990  -39.6714 C.2       5 UNK         0.5000 
     46 O           0.8987  -14.3780  -38.8157 O.2       5 UNK        -0.5000 
     47 CA          1.8619  -12.4320  -39.8436 C.3       5 UNK         0.1400 
     48 CB          1.3997  -11.0508  -39.3505 C.3       5 UNK        -0.1800 
     49 N           3.0424  -12.8490  -39.0914 N.am      5 UNK        -0.5000 
     50 C           4.3379  -12.6859  -39.3846 C.2       4 UNK         0.5000 
     51 O           5.2121  -13.1909  -38.6790 O.2       4 UNK        -0.5000 
     52 CA          4.7804  -11.8761  -40.6272 C.3       4 UNK         0.1400 
     53 CB          5.6955  -10.7088  -40.2219 C.3       4 UNK        -0.1800 
     54 N           5.5017  -12.7462  -41.5562 N.am      4 UNK        -0.5000 
     55 C           4.9345  -13.7303  -42.2642 C.2       3 UNK         0.5000 
     56 O           3.7195  -13.9391  -42.2986 O.2       3 UNK        -0.5000 
     57 CA          5.8859  -14.6658  -43.0221 C.3       3 UNK         0.1400 
     58 CB          6.4624  -15.7181  -42.0525 C.3       3 UNK        -0.1800 
     59 N           5.1444  -15.3130  -44.1013 N.am      3 UNK        -0.5000 
     60 C           5.6581  -16.0845  -45.0666 C.2       2 UNK         0.5000 
     61 O           6.8612  -16.3176  -45.1886 O.2       2 UNK        -0.5000 
     62 CA          4.6681  -16.7028  -46.0721 C.3       2 UNK         0.1400 
     63 CB          4.2150  -18.0969  -45.6116 C.3       2 UNK        -0.1800 
     64 N           3.4891  -15.8691  -46.3143 N.am      2 UNK        -0.5000 
     65 C           3.4930  -14.7875  -47.1070 C.2       1 UNK         0.5000 
     66 O           4.5013  -14.3546  -47.6672 O.2       1 UNK        -0.5000 
     67 C          -0.7822  -21.6611  -47.7679 C.2       11 UNK         0.5000 
     68 O          -0.5535  -22.5984  -48.5303 O.2       11 UNK        -0.5000 
     69 N          -2.0086  -21.1634  -47.5526 N.am      12 UNK        -0.5000 
     70 CA         -3.2330  -21.6696  -48.1689 C.3       12 UNK         0.1400 
     71 CB         -4.4191  -20.7698  -47.7928 C.3       12 UNK        -0.1800 
     72 C          -3.5270  -23.1359  -47.8112 C.2       12 UNK         0.5000 
     73 O          -3.9108  -23.8981  -48.6963 O.2       12 UNK        -0.5000 
     74 N          -3.3116  -23.5201  -46.5466 N.am      13 UNK        -0.5000 
     75 CA         -3.4486  -24.9008  -46.0809 C.3       13 UNK         0.1400 
     76 CB         -3.3292  -24.9452  -44.5500 C.3       13 UNK        -0.1800 
     77 C          -2.4355  -25.8565  -46.7409 C.2       13 UNK         0.5000 
     78 O          -2.8097  -26.9653  -47.1245 O.2       13 UNK        -0.5000 
     79 N          -1.1820  -25.4047  -46.8784 N.am      14 UNK        -0.5000 
     80 CA         -0.0929  -26.1599  -47.4954 C.3       14 UNK         0.1400 
     81 CB          1.2482  -25.5078  -47.1239 C.3       14 UNK        -0.1800 
     82 C          -0.2305  -26.2820  -49.0245 C.2       14 UNK         0.5000 
     83 O          -0.0436  -27.3722  -49.5659 O.2       14 UNK        -0.5000 
     84 N          -0.5383  -25.1635  -49.6930 N.am      15 UNK        -0.5000 
     85 CA         -0.5432  -25.0369  -51.1527 C.3       15 UNK         0.1400 
     86 CB         -0.0317  -23.6338  -51.5217 C.3       15 UNK        -0.1800 
     87 C          -1.9167  -25.3045  -51.7988 C.2       15 UNK         0.5000 
     88 O          -2.0551  -25.0876  -53.0037 O.2       15 UNK        -0.5000 
     89 N          -2.9125  -25.7284  -51.0060 N.am      16 UNK        -0.5000 
     90 CA         -4.3029  -25.9951  -51.4016 C.3       16 UNK         0.1400 
     91 CB         -4.3813  -27.2245  -52.3304 C.3       16 UNK        -0.1800 
     92 C          -4.9740  -24.7428  -52.0020 C.2       16 UNK         0.5000 
     93 O          -5.4424  -24.7609  -53.1422 O.2       16 UNK        -0.5000 
     94 N          -4.9339  -23.6519  -51.2251 N.am      17 UNK        -0.5000 
     95 CA         -5.3687  -22.2949  -51.5669 C.3       17 UNK         0.1400 
     96 CB         -6.9050  -22.2347  -51.6985 C.3       17 UNK        -0.1800 
     97 C          -4.6173  -21.7303  -52.7895 C.2       17 UNK         0.5000 
     98 O          -5.2256  -21.0706  -53.6296 O.2       17 UNK        -0.5000 
     99 N          -3.3123  -22.0363  -52.8716 N.am      18 UNK        -0.5000 
    100 CA        -2.4005  -21.7385  -53.9832 C.3       18 UNK         0.1400 
    101 CB        -2.1308  -20.2235  -54.0807 C.3       18 UNK        -0.1800 
    102 C         -2.8960  -22.3545  -55.3073 C.2       18 UNK         0.5000 
    103 O         -3.0345  -21.6503  -56.3073 O.2       18 UNK        -0.5000 
    104 N         -3.2073  -23.6585  -55.2637 N.am      19 UNK        -0.5000 
    105 CA        -3.8609  -24.4416  -56.3189 C.3       19 UNK         0.1400 
    106 CB        -2.9080  -24.6519  -57.5137 C.3       19 UNK        -0.1800 
    107 C         -5.2256  -23.8399  -56.7231 C.2       19 UNK         0.5000 
    108 O         -5.5017  -23.6497  -57.9088 O.2       19 UNK        -0.5000 
    109 N         -6.0329  -23.5215  -55.7021 N.am      20 UNK        -0.5000 
    110 CA        -7.3596  -22.8969  -55.7424 C.3       20 UNK         0.1400 
    111 CB        -8.3593  -23.7713  -56.5269 C.3       20 UNK        -0.1800 
    112 C         -7.3954  -21.4226  -56.2049 C.2       20 UNK         0.5000 
    113 O         -8.4877  -20.8555  -56.2751 O.2       20 UNK        -0.5000 
    114 N         -6.2393  -20.7974  -56.4754 N.am      21 UNK        -0.5000 
    115 CA        -6.1325  -19.3998  -56.9095 C.3       21 UNK         0.1400 
    116 CB        -4.6902  -19.0971  -57.3384 C.3       21 UNK        -0.1800 
    117 C         -6.6040  -18.3794  -55.8541 C.2       21 UNK         0.5000 
    118 O         -7.1226  -17.3260  -56.2272 O.2       21 UNK        -0.5000 
    119 N         -6.4450  -18.7141  -54.5679 N.am      22 UNK        -0.5000 
    120 CA        -6.9565  -17.9365  -53.4270 C.3       22 UNK         0.1400 
    121 C         -8.4689  -18.1754  -53.1325 C.2       22 UNK         0.5000 
    122 N         -9.1731  -19.0408  -53.8546 N.am      22 UNK        -0.7600 
    123 O         -9.0233  -17.5517  -52.2317 O.2       22 UNK        -0.5000 
    124 C124       -6.1009  -18.1373  -52.1467 C.3       23 UNK        -0.0398 
    125 S125       -4.3422  -17.7233  -52.3881 S.3       23 UNK        -0.2404 
    126 C126       -3.7055  -17.9297  -50.6962 C.3       23 UNK        -0.0205 
    127 H127       -0.1343  -13.2430  -44.0852 H         1 UNK         0.0600 
    128 H128        0.8827  -11.9548  -43.4385 H         1 UNK         0.0600 
    129 H129        1.2545  -13.6405  -43.0662 H         1 UNK         0.0600 
    130 H130        0.5930  -14.4391  -45.9118 H         1 UNK         0.3000 
    131 H131        2.3584  -13.0658  -47.6790 H         1 UNK         0.0600 
    132 H132        1.1679  -15.8524  -48.1367 H         1 UNK         0.0800 
    133 H133        0.2335  -14.3881  -48.2900 H         1 UNK         0.0800 
    134 H134       -0.4333  -14.1274  -50.7404 H         1 UNK         0.0800 
    135 H135        0.5265  -14.7400  -52.0649 H         1 UNK         0.0800 
    136 H136       -2.3005  -15.6149  -50.9038 H         1 UNK         0.1150 
    137 H137       -1.7718  -19.8345  -50.3982 H         1 UNK         0.1150 
    138 H138        1.6496  -17.2831  -50.7262 H         1 UNK         0.1150 
    139 H139        0.3850  -20.8110  -50.3574 H         1 UNK         0.0800 
    140 H140        1.6007  -19.9446  -51.2527 H         1 UNK         0.0800 
    141 H141       -0.0633  -19.0633  -47.8302 H         1 UNK         0.0800 
    142 H142        1.2890  -19.0833  -46.7522 H         1 UNK         0.0800 
    143 H143        1.2244  -21.7231  -47.0318 H         1 UNK         0.0600 
    144 H144        0.0497  -20.0449  -45.1109 H         1 UNK         0.3000 
    145 H145       -1.2865  -22.5654  -42.9569 H         1 UNK         0.0600 
    146 H146        0.1009  -21.2442  -41.3676 H         1 UNK         0.0600 
    147 H147        1.1040  -22.3025  -42.3468 H         1 UNK         0.0600 
    148 H148        1.0420  -20.5835  -42.7039 H         1 UNK         0.0600 
    149 H149       -1.2870  -19.6827  -42.9454 H         1 UNK         0.3000 
    150 H150       -4.4192  -19.2737  -44.6129 H         1 UNK         0.0600 
    151 H151       -4.8984  -18.0424  -42.5125 H         1 UNK         0.0600 
    152 H152       -4.9818  -19.7752  -42.2333 H         1 UNK         0.0600 
    153 H153       -3.5742  -18.8673  -41.6927 H         1 UNK         0.0600 
    154 H154       -2.5415  -17.4493  -43.4281 H         1 UNK         0.3000 
    155 H155       -0.4984  -16.9822  -46.3149 H         1 UNK         0.0600 
    156 H156       -2.5036  -15.5953  -46.8549 H         1 UNK         0.0600 
    157 H157       -1.2638  -14.6154  -46.0972 H         1 UNK         0.0600 
    158 H158       -2.6637  -15.1362  -45.1647 H         1 UNK         0.0600 
    159 H159       -0.6791  -15.6658  -43.7623 H         1 UNK         0.3000 
    160 H160        0.5574  -17.9469  -41.6520 H         1 UNK         0.0600 
    161 H161        2.7397  -16.2689  -42.9748 H         1 UNK         0.0600 
    162 H162        2.8376  -17.9583  -42.4942 H         1 UNK         0.0600 
    163 H163        2.7484  -16.7081  -41.2670 H         1 UNK         0.0600 
    164 H164        0.9321  -15.1464  -41.4781 H         1 UNK         0.3000 
    165 H165       -2.0570  -13.8962  -41.4016 H         1 UNK         0.0600 
    166 H166       -2.4528  -13.5636  -38.9452 H         1 UNK         0.0600 
    167 H167       -3.1029  -15.0819  -39.5407 H         1 UNK         0.0600 
    168 H168       -1.6130  -15.0792  -38.6145 H         1 UNK         0.0600 
    169 H169       -0.2771  -12.6441  -41.1712 H         1 UNK         0.3000 
    170 H170        2.0723  -12.3914  -40.9113 H         1 UNK         0.0600 
    171 H171        0.5191  -10.7094  -39.8957 H         1 UNK         0.0600 
    172 H172        1.1430  -11.0701  -38.2906 H         1 UNK         0.0600 
    173 H173        2.1770  -10.2996  -39.4913 H         1 UNK         0.0600 
    174 H174        2.8042  -13.4512  -38.3138 H         1 UNK         0.3000 
    175 H175        3.9343  -11.4385  -41.1531 H         1 UNK         0.0600 
    176 H176        5.9932  -10.1213  -41.0906 H         1 UNK         0.0600 
    177 H177        5.1821  -10.0348  -39.5349 H         1 UNK         0.0600 
    178 H178        6.6028  -11.0553  -39.7253 H         1 UNK         0.0600 
    179 H179        6.5080  -12.6661  -41.5492 H         1 UNK         0.3000 
    180 H180        6.6940  -14.0725  -43.4544 H         1 UNK         0.0600 
    181 H181        5.6783  -16.3623  -41.6521 H         1 UNK         0.0600 
    182 H182        6.9598  -15.2436  -41.2057 H         1 UNK         0.0600 
    183 H183        7.2019  -16.3543  -42.5379 H         1 UNK         0.0600 
    184 H184        4.1514  -15.1219  -44.0837 H         1 UNK         0.3000 
    185 H185        5.2038  -16.8280  -47.0159 H         1 UNK         0.0600 
    186 H186        5.0712  -18.7313  -45.3787 H         1 UNK         0.0600 
    187 H187        3.5901  -18.0485  -44.7213 H         1 UNK         0.0600 
    188 H188        3.6459  -18.6005  -46.3924 H         1 UNK         0.0600 
    189 H189        2.6269  -16.1579  -45.8790 H         1 UNK         0.3000 
    190 H190       -2.1149  -20.3547  -46.9439 H         1 UNK         0.3000 
    191 H191       -3.0957  -21.6169  -49.2503 H         1 UNK         0.0600 
    192 H192       -4.2465  -19.7382  -48.0977 H         1 UNK         0.0600 
    193 H193       -5.3369  -21.1052  -48.2770 H         1 UNK         0.0600 
    194 H194       -4.5977  -20.7704  -46.7175 H         1 UNK         0.0600 
    195 H195       -3.0548  -22.8234  -45.8543 H         1 UNK         0.3000 
    196 H196       -4.4498  -25.2441  -46.3499 H         1 UNK         0.0600 
    197 H197       -3.4577  -25.9622  -44.1778 H         1 UNK         0.0600 
    198 H198       -4.0926  -24.3268  -44.0775 H         1 UNK         0.0600 
    199 H199       -2.3559  -24.5917  -44.2100 H         1 UNK         0.0600 
    200 H200       -0.9467  -24.4925  -46.4996 H         1 UNK         0.3000 
    201 H201       -0.1007  -27.1696  -47.0794 H         1 UNK         0.0600 
    202 H202        1.3940  -25.4972  -46.0436 H         1 UNK         0.0600 
    203 H203        1.3075  -24.4775  -47.4771 H         1 UNK         0.0600 
    204 H204        2.0847  -26.0548  -47.5605 H         1 UNK         0.0600 
    205 H205       -0.6520  -24.2956  -49.1708 H         1 UNK         0.3000 
    206 H206        0.1532  -25.7624  -51.5779 H         1 UNK         0.0600 
    207 H207       -0.7439  -22.8583  -51.2388 H         1 UNK         0.0600 
    208 H208        0.9144  -23.4147  -51.0263 H         1 UNK         0.0600 
    209 H209        0.1432  -23.5508  -52.5946 H         1 UNK         0.0600 
    210 H210       -2.7125  -25.8176  -50.0190 H         1 UNK         0.3000 
    211 H211       -4.8481  -26.2339  -50.4871 H         1 UNK         0.0600 
    212 H212       -3.8806  -27.0503  -53.2833 H         1 UNK         0.0600 
    213 H213       -5.4187  -27.4794  -52.5502 H         1 UNK         0.0600 
    214 H214       -3.9232  -28.0978  -51.8662 H         1 UNK         0.0600 
    215 H215       -4.5277  -23.7636  -50.2950 H         1 UNK         0.3000 
    216 H216       -5.0902  -21.6550  -50.7298 H         1 UNK         0.0600 
    217 H217       -7.2730  -22.9049  -52.4730 H         1 UNK         0.0600 
    218 H218       -7.2523  -21.2313  -51.9440 H         1 UNK         0.0600 
    219 H219       -7.3851  -22.5202  -50.7626 H         1 UNK         0.0600 
    220 H220       -2.9348  -22.6330  -52.1518 H         1 UNK         0.3000 
    221 H221       -1.4529  -22.2258  -53.7558 H         1 UNK         0.0600 
    222 H222       -3.0338  -19.6658  -54.3279 H         1 UNK         0.0600 
    223 H223       -1.7432  -19.8305  -53.1420 H         1 UNK         0.0600 
    224 H224       -1.3918  -20.0066  -54.8525 H         1 UNK         0.0600 
    225 H225       -3.0255  -24.1610  -54.3981 H         1 UNK         0.3000 
    226 H226       -4.0721  -25.4210  -55.8870 H         1 UNK         0.0600 
    227 H227       -1.9667  -25.0974  -57.1919 H         1 UNK         0.0600 
    228 H228       -3.3498  -25.3235  -58.2505 H         1 UNK         0.0600 
    229 H229       -2.6791  -23.7147  -58.0218 H         1 UNK         0.0600 
    230 H230       -5.7053  -23.7561  -54.7678 H         1 UNK         0.3000 
    231 H231       -7.6990  -22.8793  -54.7077 H         1 UNK         0.0600 
    232 H232       -8.3501  -24.8004  -56.1676 H         1 UNK         0.0600 
    233 H233       -9.3782  -23.3996  -56.4126 H         1 UNK         0.0600 
    234 H234       -8.1382  -23.7848  -57.5943 H         1 UNK         0.0600 
    235 H235       -5.3708  -21.3005  -56.3447 H         1 UNK         0.3000 
    236 H236       -6.7735  -19.2823  -57.7857 H         1 UNK         0.0600 
    237 H237       -4.0022  -19.1547  -56.4950 H         1 UNK         0.0600 
    238 H238       -4.3478  -19.7963  -58.1015 H         1 UNK         0.0600 
    239 H239       -4.6105  -18.0928  -57.7560 H         1 UNK         0.0600 
    240 H240       -5.9951  -19.5992  -54.3377 H         1 UNK         0.3000 
    241 H241       -6.8809  -16.8797  -53.6891 H         1 UNK         0.0600 
    242 H242       -8.7562  -19.5451  -54.6270 H         1 UNK         0.3800 
    243 H243      -10.1507  -19.1713  -53.6481 H         1 UNK         0.3800 
    244 H244       -6.1698  -19.1667  -51.7973 H         1 UNK         0.0800 
    245 H245       -6.4794  -17.5124  -51.3359 H         1 UNK         0.0800 
    246 H246       -3.9769  -18.9213  -50.3329 H         1 UNK         0.0800 
    247 H247       -4.1830  -17.2085  -50.0313 H         1 UNK         0.0800 
@<TRIPOS>BOND
     1    1    2 1    
     2    1  127 1    
     3    1  128 1    
     4    1  129 1    
     5    2    3 2    
     6    2    4 am   BACKBONE|DICT|INTERRES
     7    4    5 1    
     8    4  130 1    
     9    5    6 1    
    10    5   65 1    
    11    5  131 1    
    12    6    7 1    
    13    6  132 1    
    14    6  133 1    
    15    7    8 1    
    16    8    9 1    
    17    8  134 1    
    18    8  135 1    
    19    9   10 ar   
    20    9   14 ar   
    21   10   11 ar   
    22   10  136 1    
    23   11   12 ar   
    24   11  126 1    
    25   12   13 ar   
    26   12  137 1    
    27   13   14 ar   
    28   13   15 1    
    29   14  138 1    
    30   15   16 1    
    31   15  139 1    
    32   15  140 1    
    33   16   17 1    
    34   17   18 1    
    35   17  141 1    
    36   17  142 1    
    37   18   19 1    
    38   18   67 1    
    39   18  143 1    
    40   19   20 am   BACKBONE|DICT|INTERRES
    41   19  144 1    
    42   20   21 2    
    43   20   22 1    
    44   22   23 1    
    45   22   24 1    
    46   22  145 1    
    47   23  146 1    
    48   23  147 1    
    49   23  148 1    
    50   24   25 am   BACKBONE|DICT|INTERRES
    51   24  149 1    
    52   25   26 2    
    53   25   27 1    
    54   27   28 1    
    55   27   29 1    
    56   27  150 1    
    57   28  151 1    
    58   28  152 1    
    59   28  153 1    
    60   29   30 am   BACKBONE|DICT|INTERRES
    61   29  154 1    
    62   30   31 2    
    63   30   32 1    
    64   32   33 1    
    65   32   34 1    
    66   32  155 1    
    67   33  156 1    
    68   33  157 1    
    69   33  158 1    
    70   34   35 am   BACKBONE|DICT|INTERRES
    71   34  159 1    
    72   35   36 2    
    73   35   37 1    
    74   37   38 1    
    75   37   39 1    
    76   37  160 1    
    77   38  161 1    
    78   38  162 1    
    79   38  163 1    
    80   39   40 am   BACKBONE|DICT|INTERRES
    81   39  164 1    
    82   40   41 2    
    83   40   42 1    
    84   42   43 1    
    85   42   44 1    
    86   42  165 1    
    87   43  166 1    
    88   43  167 1    
    89   43  168 1    
    90   44   45 am   BACKBONE|DICT|INTERRES
    91   44  169 1    
    92   45   46 2    
    93   45   47 1    
    94   47   48 1    
    95   47   49 1    
    96   47  170 1    
    97   48  171 1    
    98   48  172 1    
    99   48  173 1    
   100   49   50 am   BACKBONE|DICT|INTERRES
   101   49  174 1    
   102   50   51 2    
   103   50   52 1    
   104   52   53 1    
   105   52   54 1    
   106   52  175 1    
   107   53  176 1    
   108   53  177 1    
   109   53  178 1    
   110   54   55 am   BACKBONE|DICT|INTERRES
   111   54  179 1    
   112   55   56 2    
   113   55   57 1    
   114   57   58 1    
   115   57   59 1    
   116   57  180 1    
   117   58  181 1    
   118   58  182 1    
   119   58  183 1    
   120   59   60 am   BACKBONE|DICT|INTERRES
   121   59  184 1    
   122   60   61 2    
   123   60   62 1    
   124   62   63 1    
   125   62   64 1    
   126   62  185 1    
   127   63  186 1    
   128   63  187 1    
   129   63  188 1    
   130   64   65 am   BACKBONE|DICT|INTERRES
   131   64  189 1    
   132   65   66 2    
   133   67   68 2    
   134   67   69 am   BACKBONE|DICT|INTERRES
   135   69   70 1    
   136   69  190 1    
   137   70   71 1    
   138   70   72 1    
   139   70  191 1    
   140   71  192 1    
   141   71  193 1    
   142   71  194 1    
   143   72   73 2    
   144   72   74 am   BACKBONE|DICT|INTERRES
   145   74   75 1    
   146   74  195 1    
   147   75   76 1    
   148   75   77 1    
   149   75  196 1    
   150   76  197 1    
   151   76  198 1    
   152   76  199 1    
   153   77   78 2    
   154   77   79 am   BACKBONE|DICT|INTERRES
   155   79   80 1    
   156   79  200 1    
   157   80   81 1    
   158   80   82 1    
   159   80  201 1    
   160   81  202 1    
   161   81  203 1    
   162   81  204 1    
   163   82   83 2    
   164   82   84 am   BACKBONE|DICT|INTERRES
   165   84   85 1    
   166   84  205 1    
   167   85   86 1    
   168   85   87 1    
   169   85  206 1    
   170   86  207 1    
   171   86  208 1    
   172   86  209 1    
   173   87   88 2    
   174   87   89 am   BACKBONE|DICT|INTERRES
   175   89   90 1    
   176   89  210 1    
   177   90   91 1    
   178   90   92 1    
   179   90  211 1    
   180   91  212 1    
   181   91  213 1    
   182   91  214 1    
   183   92   93 2    
   184   92   94 am   BACKBONE|DICT|INTERRES
   185   94   95 1    
   186   94  215 1    
   187   95   96 1    
   188   95   97 1    
   189   95  216 1    
   190   96  217 1    
   191   96  218 1    
   192   96  219 1    
   193   97   98 2    
   194   97   99 am   BACKBONE|DICT|INTERRES
   195   99  100 1    
   196   99  220 1    
   197  100  101 1    
   198  100  102 1    
   199  100  221 1    
   200  101  222 1    
   201  101  223 1    
   202  101  224 1    
   203  102  103 2    
   204  102  104 am   BACKBONE|DICT|INTERRES
   205  104  105 1    
   206  104  225 1    
   207  105  106 1    
   208  105  107 1    
   209  105  226 1    
   210  106  227 1    
   211  106  228 1    
   212  106  229 1    
   213  107  108 2    
   214  107  109 am   BACKBONE|DICT|INTERRES
   215  109  110 1    
   216  109  230 1    
   217  110  111 1    
   218  110  112 1    
   219  110  231 1    
   220  111  232 1    
   221  111  233 1    
   222  111  234 1    
   223  112  113 2    
   224  112  114 am   BACKBONE|DICT|INTERRES
   225  114  115 1    
   226  114  235 1    
   227  115  116 1    
   228  115  117 1    
   229  115  236 1    
   230  116  237 1    
   231  116  238 1    
   232  116  239 1    
   233  117  118 2    
   234  117  119 am   BACKBONE|DICT|INTERRES
   235  119  120 1    
   236  119  240 1    
   237  120  121 1    
   238  120  124 1    
   239  120  241 1    
   240  121  122 am   BACKBONE|DICT|INTERRES
   241  121  123 2    
   242  122  242 1    
   243  122  243 1    
   244  124  125 1    
   245  124  244 1    
   246  124  245 1    
   247  125  126 1    
   248  126  246 1    
   249  126  247 1    
@<TRIPOS>SUBSTRUCTURE
     1 UNK         1 GROUP             0       ****    0 ROOT    
