@<TRIPOS>MOLECULE
3R540
247   249    1
SMALL
USER_CHARGES


@<TRIPOS>ATOM
      1 CA          3.9730  -13.2087  -45.3628 C.3       0 UNK        -0.1800 
      2 C           3.3608  -13.3915  -46.7441 C.2       0 UNK         0.5000 
      3 O           2.1439  -13.5353  -46.8687 O.2       0 UNK        -0.5000 
      4 N           4.2077  -13.3484  -47.7823 N.am      1 UNK        -0.5000 
      5 CA          3.8440  -13.4444  -49.2037 C.3       1 UNK         0.1400 
      6 C6          5.1207  -13.5801  -50.0755 C.3       23 UNK        -0.0398 
      7 S7          4.8323  -14.0155  -51.8270 S.3       23 UNK        -0.2404 
      8 C8          4.9295  -15.8356  -51.8021 C.3       23 UNK        -0.0205 
      9 C9          3.7111  -16.4540  -51.1340 C.ar      23 UNK        -0.0193 
     10 C10         2.4611  -16.3762  -51.7539 C.ar      23 UNK        -0.1150 
     11 C11         1.3237  -16.8959  -51.1315 C.ar      23 UNK        -0.0193 
     12 C12         1.4465  -17.5178  -49.8849 C.ar      23 UNK        -0.1150 
     13 C13         2.6934  -17.6045  -49.2554 C.ar      23 UNK        -0.0193 
     14 C14         3.8227  -17.0760  -49.8874 C.ar      23 UNK        -0.1150 
     15 C15         2.8152  -18.1961  -47.8601 C.3       23 UNK        -0.0205 
     16 S16         3.4338  -19.9094  -47.8563 S.3       23 UNK        -0.2404 
     17 C17         1.9438  -20.8789  -48.2694 C.3       23 UNK        -0.0398 
     18 CA          1.8284  -22.1720  -47.4185 C.3       11 UNK         0.1400 
     19 N           1.4919  -21.9063  -46.0141 N.am      11 UNK        -0.5000 
     20 C           1.5415  -22.8174  -45.0308 C.2       10 UNK         0.5000 
     21 O           1.9625  -23.9647  -45.1823 O.2       10 UNK        -0.5000 
     22 CA          0.9997  -22.3929  -43.6524 C.3       10 UNK         0.1400 
     23 CB          2.0627  -21.6298  -42.8469 C.3       10 UNK        -0.1800 
     24 N          -0.2218  -21.5916  -43.7479 N.am      10 UNK        -0.5000 
     25 C          -1.4124  -22.0713  -44.1349 C.2       9 UNK         0.5000 
     26 O          -1.6089  -23.2503  -44.4325 O.2       9 UNK        -0.5000 
     27 CA         -2.5721  -21.0603  -44.2429 C.3       9 UNK         0.1400 
     28 CB         -3.2031  -20.8076  -42.8658 C.3       9 UNK        -0.1800 
     29 N          -2.1716  -19.7829  -44.8340 N.am      9 UNK        -0.5000 
     30 C          -1.6762  -19.6431  -46.0716 C.2       8 UNK         0.5000 
     31 O          -1.5464  -20.5700  -46.8663 O.2       8 UNK        -0.5000 
     32 CA         -1.1562  -18.2519  -46.4618 C.3       8 UNK         0.1400 
     33 CB         -2.3084  -17.3372  -46.8987 C.3       8 UNK        -0.1800 
     34 N          -0.3806  -17.6180  -45.3945 N.am      8 UNK        -0.5000 
     35 C           0.7080  -18.1472  -44.8158 C.2       7 UNK         0.5000 
     36 O           1.1935  -19.2294  -45.1363 O.2       7 UNK        -0.5000 
     37 CA          1.3399  -17.3590  -43.6624 C.3       7 UNK         0.1400 
     38 CB          2.1851  -16.1972  -44.1970 C.3       7 UNK        -0.1800 
     39 N           0.3197  -16.8588  -42.7457 N.am      7 UNK        -0.5000 
     40 C          -0.3581  -17.6345  -41.8884 C.2       6 UNK         0.5000 
     41 O          -0.1476  -18.8388  -41.7395 O.2       6 UNK        -0.5000 
     42 CA         -1.4828  -16.9526  -41.0888 C.3       6 UNK         0.1400 
     43 CB         -0.9234  -16.2964  -39.8176 C.3       6 UNK        -0.1800 
     44 N          -2.2046  -15.9499  -41.8749 N.am      6 UNK        -0.5000 
     45 C          -2.9808  -16.2358  -42.9292 C.2       5 UNK         0.5000 
     46 O          -3.1798  -17.3786  -43.3434 O.2       5 UNK        -0.5000 
     47 CA         -3.6093  -15.0379  -43.6654 C.3       5 UNK         0.1400 
     48 CB         -4.9032  -14.5943  -42.9668 C.3       5 UNK        -0.1800 
     49 N          -2.7148  -13.8834  -43.8114 N.am      5 UNK        -0.5000 
     50 C          -1.5478  -13.9025  -44.4686 C.2       4 UNK         0.5000 
     51 O          -1.0383  -14.9272  -44.9231 O.2       4 UNK        -0.5000 
     52 CA         -0.8282  -12.5580  -44.6674 C.3       4 UNK         0.1400 
     53 CB          0.5117  -12.5310  -43.9185 C.3       4 UNK        -0.1800 
     54 N          -0.6024  -12.3355  -46.0965 N.am      4 UNK        -0.5000 
     55 C          -1.5709  -11.9400  -46.9353 C.2       3 UNK         0.5000 
     56 O          -2.6951  -11.6079  -46.5522 O.2       3 UNK        -0.5000 
     57 CA         -1.2451  -11.9350  -48.4445 C.3       3 UNK         0.1400 
     58 CB         -2.3011  -11.1860  -49.2849 C.3       3 UNK        -0.1800 
     59 N           0.0960  -11.4514  -48.7787 N.am      3 UNK        -0.5000 
     60 C           0.6475  -10.2614  -48.5043 C.2       2 UNK         0.5000 
     61 O           0.0897   -9.3894  -47.8359 O.2       2 UNK        -0.5000 
     62 CA          2.0591  -10.0047  -49.0918 C.3       2 UNK         0.1400 
     63 CB          2.7410   -8.7711  -48.4728 C.3       2 UNK        -0.1800 
     64 N           2.9619  -11.1517  -48.9533 N.am      2 UNK        -0.5000 
     65 C           2.9188  -12.2902  -49.6616 C.2       1 UNK         0.5000 
     66 O           2.1261  -12.4708  -50.5865 O.2       1 UNK        -0.5000 
     67 C           0.8331  -23.1600  -48.0638 C.2       11 UNK         0.5000 
     68 O           1.2511  -24.0095  -48.8513 O.2       11 UNK        -0.5000 
     69 N          -0.4573  -23.0314  -47.7256 N.am      12 UNK        -0.5000 
     70 CA         -1.5370  -23.8655  -48.2401 C.3       12 UNK         0.1400 
     71 CB         -2.8911  -23.2015  -47.9439 C.3       12 UNK        -0.1800 
     72 C          -1.5067  -25.2974  -47.6947 C.2       12 UNK         0.5000 
     73 O          -1.6280  -26.2391  -48.4814 O.2       12 UNK        -0.5000 
     74 N          -1.3674  -25.4215  -46.3667 N.am      13 UNK        -0.5000 
     75 CA         -1.3836  -26.6658  -45.5946 C.3       13 UNK         0.1400 
     76 CB         -0.0760  -27.4513  -45.8404 C.3       13 UNK        -0.1800 
     77 C          -2.6680  -27.4925  -45.8436 C.2       13 UNK         0.5000 
     78 O          -3.7353  -26.9156  -46.0667 O.2       13 UNK        -0.5000 
     79 N          -2.5508  -28.8262  -45.8211 N.am      14 UNK        -0.5000 
     80 CA         -3.6309  -29.7595  -46.1536 C.3       14 UNK         0.1400 
     81 CB         -3.2753  -31.1457  -45.5936 C.3       14 UNK        -0.1800 
     82 C          -3.9114  -29.8463  -47.6691 C.2       14 UNK         0.5000 
     83 O          -4.9788  -30.3200  -48.0597 O.2       14 UNK        -0.5000 
     84 N          -2.9523  -29.4025  -48.4943 N.am      15 UNK        -0.5000 
     85 CA         -3.0225  -29.4254  -49.9561 C.3       15 UNK         0.1400 
     86 CB         -1.5955  -29.3080  -50.5157 C.3       15 UNK        -0.1800 
     87 C          -3.9187  -28.3218  -50.5505 C.2       15 UNK         0.5000 
     88 O          -4.3211  -28.4421  -51.7080 O.2       15 UNK        -0.5000 
     89 N          -4.1854  -27.2630  -49.7687 N.am      16 UNK        -0.5000 
     90 CA         -4.9037  -26.0376  -50.1452 C.3       16 UNK         0.1400 
     91 CB         -6.3696  -26.3409  -50.5199 C.3       16 UNK        -0.1800 
     92 C          -4.1626  -25.2169  -51.2274 C.2       16 UNK         0.5000 
     93 O          -4.7932  -24.4923  -51.9977 O.2       16 UNK        -0.5000 
     94 N          -2.8279  -25.3432  -51.2626 N.am      17 UNK        -0.5000 
     95 CA         -1.9460  -24.8568  -52.3295 C.3       17 UNK         0.1400 
     96 CB         -0.5494  -25.4593  -52.1092 C.3       17 UNK        -0.1800 
     97 C          -1.8512  -23.3232  -52.4746 C.2       17 UNK         0.5000 
     98 O          -1.4276  -22.8455  -53.5274 O.2       17 UNK        -0.5000 
     99 N          -2.2309  -22.5862  -51.4261 N.am      18 UNK        -0.5000 
    100 CA        -2.1774  -21.1268  -51.3433 C.3       18 UNK         0.1400 
    101 CB        -0.9229  -20.7066  -50.5570 C.3       18 UNK        -0.1800 
    102 C         -3.4656  -20.5649  -50.7168 C.2       18 UNK         0.5000 
    103 O         -3.4376  -19.4730  -50.1445 O.2       18 UNK        -0.5000 
    104 N         -4.5713  -21.3188  -50.8189 N.am      19 UNK        -0.5000 
    105 CA        -5.8804  -20.9767  -50.2595 C.3       19 UNK         0.1400 
    106 CB        -6.8708  -22.1074  -50.5706 C.3       19 UNK        -0.1800 
    107 C         -6.4151  -19.6255  -50.7712 C.2       19 UNK         0.5000 
    108 O         -6.2185  -19.2922  -51.9427 O.2       19 UNK        -0.5000 
    109 N         -7.0543  -18.8695  -49.8670 N.am      20 UNK        -0.5000 
    110 CA        -7.5669  -17.5065  -50.0659 C.3       20 UNK         0.1400 
    111 CB        -8.7430  -17.5062  -51.0657 C.3       20 UNK        -0.1800 
    112 C         -6.4628  -16.4877  -50.4340 C.2       20 UNK         0.5000 
    113 O         -6.7296  -15.5351  -51.1679 O.2       20 UNK        -0.5000 
    114 N         -5.2455  -16.7202  -49.9149 N.am      21 UNK        -0.5000 
    115 CA        -4.0024  -15.9988  -50.2052 C.3       21 UNK         0.1400 
    116 CB        -4.0586  -14.5456  -49.6918 C.3       21 UNK        -0.1800 
    117 C         -3.6145  -16.1164  -51.6918 C.2       21 UNK         0.5000 
    118 O         -3.4682  -15.1079  -52.3846 O.2       21 UNK        -0.5000 
    119 N         -3.4572  -17.3696  -52.1361 N.am      22 UNK        -0.5000 
    120 CA        -3.1394  -17.7734  -53.5158 C.3       22 UNK         0.1400 
    121 C         -4.2725  -17.4181  -54.5249 C.2       22 UNK         0.5000 
    122 N         -5.5274  -17.6940  -54.1934 N.am      22 UNK        -0.7600 
    123 O         -4.0273  -16.9047  -55.6139 O.2       22 UNK        -0.5000 
    124 C124       -1.7281  -17.3096  -53.9798 C.3       23 UNK        -0.0398 
    125 S125       -0.3639  -18.0404  -53.0083 S.3       23 UNK        -0.2404 
    126 C126       -0.0375  -16.7306  -51.7891 C.3       23 UNK        -0.0205 
    127 H127        3.4181  -12.4593  -44.7993 H         1 UNK         0.0600 
    128 H128        5.0108  -12.8800  -45.4223 H         1 UNK         0.0600 
    129 H129        3.9492  -14.1452  -44.8094 H         1 UNK         0.0600 
    130 H130        5.1928  -13.2246  -47.5954 H         1 UNK         0.3000 
    131 H131        3.2603  -14.3599  -49.3088 H         1 UNK         0.0600 
    132 H132        5.6908  -12.6498  -50.0512 H         1 UNK         0.0800 
    133 H133        5.7789  -14.3378  -49.6481 H         1 UNK         0.0800 
    134 H134        5.8517  -16.1503  -51.3112 H         1 UNK         0.0800 
    135 H135        4.9918  -16.1983  -52.8290 H         1 UNK         0.0800 
    136 H136        2.3698  -15.8836  -52.7120 H         1 UNK         0.1150 
    137 H137        0.5671  -17.9083  -49.3945 H         1 UNK         0.1150 
    138 H138        4.7835  -17.1278  -49.3947 H         1 UNK         0.1150 
    139 H139        3.4925  -17.5804  -47.2666 H         1 UNK         0.0800 
    140 H140        1.8530  -18.1459  -47.3595 H         1 UNK         0.0800 
    141 H141        2.0092  -21.1157  -49.3331 H         1 UNK         0.0800 
    142 H142        1.0506  -20.2647  -48.1482 H         1 UNK         0.0800 
    143 H143        2.8022  -22.6665  -47.4297 H         1 UNK         0.0600 
    144 H144        1.2094  -20.9567  -45.7807 H         1 UNK         0.3000 
    145 H145        0.7568  -23.3034  -43.1004 H         1 UNK         0.0600 
    146 H146        2.3768  -20.7148  -43.3482 H         1 UNK         0.0600 
    147 H147        1.6890  -21.3577  -41.8595 H         1 UNK         0.0600 
    148 H148        2.9527  -22.2430  -42.7013 H         1 UNK         0.0600 
    149 H149       -0.1340  -20.6042  -43.5475 H         1 UNK         0.3000 
    150 H150       -3.3337  -21.4993  -44.8903 H         1 UNK         0.0600 
    151 H151       -3.5284  -21.7419  -42.4066 H         1 UNK         0.0600 
    152 H152       -4.0779  -20.1620  -42.9463 H         1 UNK         0.0600 
    153 H153       -2.4995  -20.3312  -42.1820 H         1 UNK         0.0600 
    154 H154       -2.2803  -18.9555  -44.2559 H         1 UNK         0.3000 
    155 H155       -0.4933  -18.3832  -47.3171 H         1 UNK         0.0600 
    156 H156       -2.8881  -17.8034  -47.6961 H         1 UNK         0.0600 
    157 H157       -2.9924  -17.1309  -46.0765 H         1 UNK         0.0600 
    158 H158       -1.9364  -16.3837  -47.2744 H         1 UNK         0.0600 
    159 H159       -0.6842  -16.6898  -45.1053 H         1 UNK         0.3000 
    160 H160        2.0008  -18.0317  -43.1113 H         1 UNK         0.0600 
    161 H161        2.6015  -15.6047  -43.3826 H         1 UNK         0.0600 
    162 H162        3.0198  -16.5700  -44.7918 H         1 UNK         0.0600 
    163 H163        1.6034  -15.5344  -44.8375 H         1 UNK         0.0600 
    164 H164        0.0437  -15.8940  -42.8524 H         1 UNK         0.3000 
    165 H165       -2.1933  -17.7266  -40.7900 H         1 UNK         0.0600 
    166 H166       -1.7224  -15.8765  -39.2064 H         1 UNK         0.0600 
    167 H167       -0.3946  -17.0261  -39.2028 H         1 UNK         0.0600 
    168 H168       -0.2220  -15.4946  -40.0519 H         1 UNK         0.0600 
    169 H169       -2.0923  -14.9838  -41.6047 H         1 UNK         0.3000 
    170 H170       -3.8706  -15.3747  -44.6703 H         1 UNK         0.0600 
    171 H171       -5.5965  -15.4299  -42.8610 H         1 UNK         0.0600 
    172 H172       -4.7085  -14.2007  -41.9684 H         1 UNK         0.0600 
    173 H173       -5.4153  -13.8206  -43.5392 H         1 UNK         0.0600 
    174 H174       -3.0677  -12.9997  -43.4730 H         1 UNK         0.3000 
    175 H175       -1.4488  -11.7513  -44.2716 H         1 UNK         0.0600 
    176 H176        1.1776  -13.3236  -44.2556 H         1 UNK         0.0600 
    177 H177        1.0241  -11.5798  -44.0634 H         1 UNK         0.0600 
    178 H178        0.3626  -12.6622  -42.8463 H         1 UNK         0.0600 
    179 H179        0.2855  -12.6544  -46.4716 H         1 UNK         0.3000 
    180 H180       -1.2646  -12.9817  -48.7496 H         1 UNK         0.0600 
    181 H181       -2.3481  -10.1285  -49.0234 H         1 UNK         0.0600 
    182 H182       -3.2969  -11.6041  -49.1339 H         1 UNK         0.0600 
    183 H183       -2.0806  -11.2589  -50.3500 H         1 UNK         0.0600 
    184 H184        0.6548  -12.0786  -49.3485 H         1 UNK         0.3000 
    185 H185        1.9223   -9.8060  -50.1567 H         1 UNK         0.0600 
    186 H186        3.7141   -8.5874  -48.9288 H         1 UNK         0.0600 
    187 H187        2.1417   -7.8723  -48.6240 H         1 UNK         0.0600 
    188 H188        2.8901   -8.8916  -47.3991 H         1 UNK         0.0600 
    189 H189        3.6091  -11.1108  -48.1800 H         1 UNK         0.3000 
    190 H190       -0.7340  -22.2540  -47.1316 H         1 UNK         0.3000 
    191 H191       -1.4089  -23.9322  -49.3184 H         1 UNK         0.0600 
    192 H192       -3.0592  -23.0944  -46.8721 H         1 UNK         0.0600 
    193 H193       -3.7181  -23.7838  -48.3432 H         1 UNK         0.0600 
    194 H194       -2.9536  -22.2083  -48.3842 H         1 UNK         0.0600 
    195 H195       -1.3388  -24.5730  -45.8072 H         1 UNK         0.3000 
    196 H196       -1.4069  -26.3710  -44.5447 H         1 UNK         0.0600 
    197 H197        0.0273  -28.2858  -45.1464 H         1 UNK         0.0600 
    198 H198        0.7937  -26.8101  -45.6935 H         1 UNK         0.0600 
    199 H199       -0.0234  -27.8478  -46.8552 H         1 UNK         0.0600 
    200 H200       -1.6476  -29.2322  -45.6225 H         1 UNK         0.3000 
    201 H201       -4.5489  -29.4212  -45.6681 H         1 UNK         0.0600 
    202 H202       -3.1348  -31.1107  -44.5131 H         1 UNK         0.0600 
    203 H203       -2.3606  -31.5380  -46.0398 H         1 UNK         0.0600 
    204 H204       -4.0717  -31.8641  -45.7926 H         1 UNK         0.0600 
    205 H205       -2.1168  -29.0046  -48.0908 H         1 UNK         0.3000 
    206 H206       -3.4343  -30.3869  -50.2700 H         1 UNK         0.0600 
    207 H207       -0.9671  -30.1284  -50.1688 H         1 UNK         0.0600 
    208 H208       -1.5973  -29.3408  -51.6061 H         1 UNK         0.0600 
    209 H209       -1.1210  -28.3724  -50.2170 H         1 UNK         0.0600 
    210 H210       -3.7647  -27.2559  -48.8480 H         1 UNK         0.3000 
    211 H211       -4.9288  -25.4200  -49.2490 H         1 UNK         0.0600 
    212 H212       -6.4461  -26.8873  -51.4601 H         1 UNK         0.0600 
    213 H213       -6.9436  -25.4212  -50.6345 H         1 UNK         0.0600 
    214 H214       -6.8595  -26.9328  -49.7467 H         1 UNK         0.0600 
    215 H215       -2.3962  -25.9359  -50.5636 H         1 UNK         0.3000 
    216 H216       -2.3350  -25.2404  -53.2749 H         1 UNK         0.0600 
    217 H217        0.1409  -25.1520  -52.8959 H         1 UNK         0.0600 
    218 H218       -0.1213  -25.1455  -51.1562 H         1 UNK         0.0600 
    219 H219       -0.5837  -26.5489  -52.1181 H         1 UNK         0.0600 
    220 H220       -2.5986  -23.0648  -50.6189 H         1 UNK         0.3000 
    221 H221       -2.1125  -20.6994  -52.3450 H         1 UNK         0.0600 
    222 H222       -0.9693  -21.0462  -49.5243 H         1 UNK         0.0600 
    223 H223       -0.0169  -21.1102  -51.0087 H         1 UNK         0.0600 
    224 H224       -0.8177  -19.6224  -50.5325 H         1 UNK         0.0600 
    225 H225       -4.5300  -22.1678  -51.3668 H         1 UNK         0.3000 
    226 H226       -5.7601  -20.9135  -49.1760 H         1 UNK         0.0600 
    227 H227       -6.5468  -23.0458  -50.1213 H         1 UNK         0.0600 
    228 H228       -7.8619  -21.8837  -50.1739 H         1 UNK         0.0600 
    229 H229       -6.9738  -22.2668  -51.6449 H         1 UNK         0.0600 
    230 H230       -7.1672  -19.2364  -48.9320 H         1 UNK         0.3000 
    231 H231       -7.9595  -17.1848  -49.1003 H         1 UNK         0.0600 
    232 H232       -9.2268  -16.5294  -51.1005 H         1 UNK         0.0600 
    233 H233       -9.5037  -18.2327  -50.7801 H         1 UNK         0.0600 
    234 H234       -8.4155  -17.7435  -52.0782 H         1 UNK         0.0600 
    235 H235       -5.1341  -17.5558  -49.3579 H         1 UNK         0.3000 
    236 H236       -3.2123  -16.5050  -49.6503 H         1 UNK         0.0600 
    237 H237       -3.1059  -14.0450  -49.8614 H         1 UNK         0.0600 
    238 H238       -4.2589  -14.5120  -48.6209 H         1 UNK         0.0600 
    239 H239       -4.8257  -13.9591  -50.1974 H         1 UNK         0.0600 
    240 H240       -3.5997  -18.1261  -51.4738 H         1 UNK         0.3000 
    241 H241       -3.1232  -18.8630  -53.5099 H         1 UNK         0.0600 
    242 H242       -6.2691  -17.4685  -54.8360 H         1 UNK         0.3800 
    243 H243       -5.7474  -18.1744  -53.3222 H         1 UNK         0.3800 
    244 H244       -1.6520  -16.2219  -53.9796 H         1 UNK         0.0800 
    245 H245       -1.5596  -17.6136  -55.0141 H         1 UNK         0.0800 
    246 H246       -0.0884  -15.7527  -52.2704 H         1 UNK         0.0800 
    247 H247       -0.8203  -16.7423  -51.0307 H         1 UNK         0.0800 
@<TRIPOS>BOND
     1    1    2 1    
     2    1  127 1    
     3    1  128 1    
     4    1  129 1    
     5    2    3 2    
     6    2    4 am   BACKBONE|DICT|INTERRES
     7    4    5 1    
     8    4  130 1    
     9    5    6 1    
    10    5   65 1    
    11    5  131 1    
    12    6    7 1    
    13    6  132 1    
    14    6  133 1    
    15    7    8 1    
    16    8    9 1    
    17    8  134 1    
    18    8  135 1    
    19    9   10 ar   
    20    9   14 ar   
    21   10   11 ar   
    22   10  136 1    
    23   11   12 ar   
    24   11  126 1    
    25   12   13 ar   
    26   12  137 1    
    27   13   14 ar   
    28   13   15 1    
    29   14  138 1    
    30   15   16 1    
    31   15  139 1    
    32   15  140 1    
    33   16   17 1    
    34   17   18 1    
    35   17  141 1    
    36   17  142 1    
    37   18   19 1    
    38   18   67 1    
    39   18  143 1    
    40   19   20 am   BACKBONE|DICT|INTERRES
    41   19  144 1    
    42   20   21 2    
    43   20   22 1    
    44   22   23 1    
    45   22   24 1    
    46   22  145 1    
    47   23  146 1    
    48   23  147 1    
    49   23  148 1    
    50   24   25 am   BACKBONE|DICT|INTERRES
    51   24  149 1    
    52   25   26 2    
    53   25   27 1    
    54   27   28 1    
    55   27   29 1    
    56   27  150 1    
    57   28  151 1    
    58   28  152 1    
    59   28  153 1    
    60   29   30 am   BACKBONE|DICT|INTERRES
    61   29  154 1    
    62   30   31 2    
    63   30   32 1    
    64   32   33 1    
    65   32   34 1    
    66   32  155 1    
    67   33  156 1    
    68   33  157 1    
    69   33  158 1    
    70   34   35 am   BACKBONE|DICT|INTERRES
    71   34  159 1    
    72   35   36 2    
    73   35   37 1    
    74   37   38 1    
    75   37   39 1    
    76   37  160 1    
    77   38  161 1    
    78   38  162 1    
    79   38  163 1    
    80   39   40 am   BACKBONE|DICT|INTERRES
    81   39  164 1    
    82   40   41 2    
    83   40   42 1    
    84   42   43 1    
    85   42   44 1    
    86   42  165 1    
    87   43  166 1    
    88   43  167 1    
    89   43  168 1    
    90   44   45 am   BACKBONE|DICT|INTERRES
    91   44  169 1    
    92   45   46 2    
    93   45   47 1    
    94   47   48 1    
    95   47   49 1    
    96   47  170 1    
    97   48  171 1    
    98   48  172 1    
    99   48  173 1    
   100   49   50 am   BACKBONE|DICT|INTERRES
   101   49  174 1    
   102   50   51 2    
   103   50   52 1    
   104   52   53 1    
   105   52   54 1    
   106   52  175 1    
   107   53  176 1    
   108   53  177 1    
   109   53  178 1    
   110   54   55 am   BACKBONE|DICT|INTERRES
   111   54  179 1    
   112   55   56 2    
   113   55   57 1    
   114   57   58 1    
   115   57   59 1    
   116   57  180 1    
   117   58  181 1    
   118   58  182 1    
   119   58  183 1    
   120   59   60 am   BACKBONE|DICT|INTERRES
   121   59  184 1    
   122   60   61 2    
   123   60   62 1    
   124   62   63 1    
   125   62   64 1    
   126   62  185 1    
   127   63  186 1    
   128   63  187 1    
   129   63  188 1    
   130   64   65 am   BACKBONE|DICT|INTERRES
   131   64  189 1    
   132   65   66 2    
   133   67   68 2    
   134   67   69 am   BACKBONE|DICT|INTERRES
   135   69   70 1    
   136   69  190 1    
   137   70   71 1    
   138   70   72 1    
   139   70  191 1    
   140   71  192 1    
   141   71  193 1    
   142   71  194 1    
   143   72   73 2    
   144   72   74 am   BACKBONE|DICT|INTERRES
   145   74   75 1    
   146   74  195 1    
   147   75   76 1    
   148   75   77 1    
   149   75  196 1    
   150   76  197 1    
   151   76  198 1    
   152   76  199 1    
   153   77   78 2    
   154   77   79 am   BACKBONE|DICT|INTERRES
   155   79   80 1    
   156   79  200 1    
   157   80   81 1    
   158   80   82 1    
   159   80  201 1    
   160   81  202 1    
   161   81  203 1    
   162   81  204 1    
   163   82   83 2    
   164   82   84 am   BACKBONE|DICT|INTERRES
   165   84   85 1    
   166   84  205 1    
   167   85   86 1    
   168   85   87 1    
   169   85  206 1    
   170   86  207 1    
   171   86  208 1    
   172   86  209 1    
   173   87   88 2    
   174   87   89 am   BACKBONE|DICT|INTERRES
   175   89   90 1    
   176   89  210 1    
   177   90   91 1    
   178   90   92 1    
   179   90  211 1    
   180   91  212 1    
   181   91  213 1    
   182   91  214 1    
   183   92   93 2    
   184   92   94 am   BACKBONE|DICT|INTERRES
   185   94   95 1    
   186   94  215 1    
   187   95   96 1    
   188   95   97 1    
   189   95  216 1    
   190   96  217 1    
   191   96  218 1    
   192   96  219 1    
   193   97   98 2    
   194   97   99 am   BACKBONE|DICT|INTERRES
   195   99  100 1    
   196   99  220 1    
   197  100  101 1    
   198  100  102 1    
   199  100  221 1    
   200  101  222 1    
   201  101  223 1    
   202  101  224 1    
   203  102  103 2    
   204  102  104 am   BACKBONE|DICT|INTERRES
   205  104  105 1    
   206  104  225 1    
   207  105  106 1    
   208  105  107 1    
   209  105  226 1    
   210  106  227 1    
   211  106  228 1    
   212  106  229 1    
   213  107  108 2    
   214  107  109 am   BACKBONE|DICT|INTERRES
   215  109  110 1    
   216  109  230 1    
   217  110  111 1    
   218  110  112 1    
   219  110  231 1    
   220  111  232 1    
   221  111  233 1    
   222  111  234 1    
   223  112  113 2    
   224  112  114 am   BACKBONE|DICT|INTERRES
   225  114  115 1    
   226  114  235 1    
   227  115  116 1    
   228  115  117 1    
   229  115  236 1    
   230  116  237 1    
   231  116  238 1    
   232  116  239 1    
   233  117  118 2    
   234  117  119 am   BACKBONE|DICT|INTERRES
   235  119  120 1    
   236  119  240 1    
   237  120  121 1    
   238  120  124 1    
   239  120  241 1    
   240  121  122 am   BACKBONE|DICT|INTERRES
   241  121  123 2    
   242  122  242 1    
   243  122  243 1    
   244  124  125 1    
   245  124  244 1    
   246  124  245 1    
   247  125  126 1    
   248  126  246 1    
   249  126  247 1    
@<TRIPOS>SUBSTRUCTURE
     1 UNK         1 GROUP             0       ****    0 ROOT    
