@<TRIPOS>MOLECULE
3R540
247   249    1
SMALL
USER_CHARGES


@<TRIPOS>ATOM
      1 CA         -3.5594  -16.7973  -41.9276 C.3       0 UNK        -0.1800 
      2 C          -3.3708  -15.4692  -42.6485 C.2       0 UNK         0.5000 
      3 O          -4.0220  -14.4825  -42.3049 O.2       0 UNK        -0.5000 
      4 N          -2.4879  -15.4488  -43.6524 N.am      1 UNK        -0.5000 
      5 CA         -2.1203  -14.2698  -44.4380 C.3       1 UNK         0.1400 
      6 C6         -1.3378  -14.6873  -45.7040 C.3       23 UNK        -0.0398 
      7 S7         -1.3891  -13.4310  -47.0295 S.3       23 UNK        -0.2404 
      8 C8         -2.8786  -13.8875  -47.9816 C.3       23 UNK        -0.0205 
      9 C9         -2.8991  -15.3546  -48.3864 C.ar      23 UNK        -0.0193 
     10 C10        -1.8758  -15.8886  -49.1730 C.ar      23 UNK        -0.1150 
     11 C11        -1.8526  -17.2516  -49.4910 C.ar      23 UNK        -0.0193 
     12 C12        -2.8753  -18.0784  -49.0152 C.ar      23 UNK        -0.1150 
     13 C13        -3.9082  -17.5537  -48.2309 C.ar      23 UNK        -0.0193 
     14 C14        -3.9208  -16.1901  -47.9310 C.ar      23 UNK        -0.1150 
     15 C15        -4.9884  -18.4637  -47.6652 C.3       23 UNK        -0.0205 
     16 S16        -4.9007  -18.6077  -45.8451 S.3       23 UNK        -0.2404 
     17 C17        -3.1619  -19.0899  -45.5658 C.3       23 UNK        -0.0398 
     18 CA         -2.8551  -20.5409  -46.0067 C.3       11 UNK         0.1400 
     19 N          -1.4504  -20.7106  -46.3831 N.am      11 UNK        -0.5000 
     20 C          -0.9558  -21.7793  -47.0221 C.2       10 UNK         0.5000 
     21 O          -1.6428  -22.7241  -47.4027 O.2       10 UNK        -0.5000 
     22 CA          0.5697  -21.8273  -47.2252 C.3       10 UNK         0.1400 
     23 CB          0.9854  -21.0137  -48.4590 C.3       10 UNK        -0.1800 
     24 N           1.3059  -21.3633  -46.0476 N.am      10 UNK        -0.5000 
     25 C           1.2698  -21.9697  -44.8517 C.2       9 UNK         0.5000 
     26 O           0.6682  -23.0221  -44.6397 O.2       9 UNK        -0.5000 
     27 CA          1.9733  -21.2563  -43.6832 C.3       9 UNK         0.1400 
     28 CB          3.4831  -21.5365  -43.6983 C.3       9 UNK        -0.1800 
     29 N           1.7360  -19.8121  -43.6781 N.am      9 UNK        -0.5000 
     30 C           0.5342  -19.2375  -43.5286 C.2       8 UNK         0.5000 
     31 O          -0.5059  -19.8643  -43.3328 O.2       8 UNK        -0.5000 
     32 CA          0.4668  -17.7087  -43.6831 C.3       8 UNK         0.1400 
     33 CB          0.9109  -17.0025  -42.3953 C.3       8 UNK        -0.1800 
     34 N           1.2493  -17.2229  -44.8194 N.am      8 UNK        -0.5000 
     35 C           1.0031  -17.5424  -46.0985 C.2       7 UNK         0.5000 
     36 O           0.0435  -18.2234  -46.4548 O.2       7 UNK        -0.5000 
     37 CA          2.0275  -17.0702  -47.1440 C.3       7 UNK         0.1400 
     38 CB          1.7594  -15.6230  -47.5824 C.3       7 UNK        -0.1800 
     39 N           3.3979  -17.1947  -46.6508 N.am      7 UNK        -0.5000 
     40 C           4.0187  -18.3654  -46.4463 C.2       6 UNK         0.5000 
     41 O           3.5165  -19.4595  -46.7030 O.2       6 UNK        -0.5000 
     42 CA          5.4159  -18.2988  -45.8029 C.3       6 UNK         0.1400 
     43 CB          6.4906  -18.0301  -46.8668 C.3       6 UNK        -0.1800 
     44 N           5.4993  -17.2756  -44.7587 N.am      6 UNK        -0.5000 
     45 C           4.8375  -17.3277  -43.5935 C.2       5 UNK         0.5000 
     46 O           4.1301  -18.2749  -43.2550 O.2       5 UNK        -0.5000 
     47 CA          4.9427  -16.0937  -42.6774 C.3       5 UNK         0.1400 
     48 CB          6.1523  -16.2190  -41.7397 C.3       5 UNK        -0.1800 
     49 N           5.0330  -14.8365  -43.4250 N.am      5 UNK        -0.5000 
     50 C           4.0618  -14.3497  -44.2077 C.2       4 UNK         0.5000 
     51 O           2.9663  -14.8950  -44.3653 O.2       4 UNK        -0.5000 
     52 CA          4.4048  -13.0876  -45.0048 C.3       4 UNK         0.1400 
     53 CB          5.1956  -13.4714  -46.2727 C.3       4 UNK        -0.1800 
     54 N           3.1715  -12.3958  -45.3662 N.am      4 UNK        -0.5000 
     55 C           3.1013  -11.1541  -45.8594 C.2       3 UNK         0.5000 
     56 O           4.0814  -10.4262  -46.0249 O.2       3 UNK        -0.5000 
     57 CA          1.7056  -10.6331  -46.2443 C.3       3 UNK         0.1400 
     58 CB          1.3300  -11.1164  -47.6538 C.3       3 UNK        -0.1800 
     59 N           0.6465  -11.0040  -45.3024 N.am      3 UNK        -0.5000 
     60 C           0.5380  -10.5272  -44.0522 C.2       2 UNK         0.5000 
     61 O           1.3825   -9.8003  -43.5275 O.2       2 UNK        -0.5000 
     62 CA         -0.7400  -10.8762  -43.2614 C.3       2 UNK         0.1400 
     63 CB         -1.6538   -9.6445  -43.1555 C.3       2 UNK        -0.1800 
     64 N          -1.5032  -11.9686  -43.8673 N.am      2 UNK        -0.5000 
     65 C          -1.3035  -13.2636  -43.5996 C.2       1 UNK         0.5000 
     66 O          -0.4865  -13.6724  -42.7724 O.2       1 UNK        -0.5000 
     67 C          -3.3082  -21.5721  -44.9518 C.2       11 UNK         0.5000 
     68 O          -4.3896  -22.1432  -45.0892 O.2       11 UNK        -0.5000 
     69 N          -2.4596  -21.8388  -43.9481 N.am      12 UNK        -0.5000 
     70 CA         -2.6749  -22.8659  -42.9238 C.3       12 UNK         0.1400 
     71 CB         -1.5971  -22.7394  -41.8371 C.3       12 UNK        -0.1800 
     72 C          -2.7067  -24.2945  -43.5038 C.2       12 UNK         0.5000 
     73 O          -3.4775  -25.1290  -43.0295 O.2       12 UNK        -0.5000 
     74 N          -1.9081  -24.5309  -44.5525 N.am      13 UNK        -0.5000 
     75 CA         -1.8938  -25.7534  -45.3583 C.3       13 UNK         0.1400 
     76 CB         -0.5016  -25.8978  -45.9957 C.3       13 UNK        -0.1800 
     77 C          -2.9992  -25.7894  -46.4388 C.2       13 UNK         0.5000 
     78 O          -3.0244  -26.7263  -47.2385 O.2       13 UNK        -0.5000 
     79 N          -3.8677  -24.7679  -46.4772 N.am      14 UNK        -0.5000 
     80 CA         -4.9643  -24.4979  -47.4146 C.3       14 UNK         0.1400 
     81 CB         -5.9991  -25.6386  -47.4325 C.3       14 UNK        -0.1800 
     82 C          -4.5147  -24.1348  -48.8412 C.2       14 UNK         0.5000 
     83 O          -5.1085  -23.2371  -49.4401 O.2       14 UNK        -0.5000 
     84 N          -3.5086  -24.8439  -49.3721 N.am      15 UNK        -0.5000 
     85 CA         -2.9198  -24.6921  -50.7078 C.3       15 UNK         0.1400 
     86 CB         -2.0987  -23.3887  -50.7924 C.3       15 UNK        -0.1800 
     87 C          -3.9694  -24.8112  -51.8318 C.2       15 UNK         0.5000 
     88 O          -3.9875  -23.9923  -52.7531 O.2       15 UNK        -0.5000 
     89 N          -4.8560  -25.8104  -51.7054 N.am      16 UNK        -0.5000 
     90 CA         -6.0058  -26.0771  -52.5800 C.3       16 UNK         0.1400 
     91 CB         -5.5317  -26.5243  -53.9796 C.3       16 UNK        -0.1800 
     92 C          -7.0112  -24.9028  -52.6193 C.2       16 UNK         0.5000 
     93 O          -7.5577  -24.5912  -53.6773 O.2       16 UNK        -0.5000 
     94 N          -7.2148  -24.2722  -51.4519 N.am      17 UNK        -0.5000 
     95 CA         -7.9863  -23.0465  -51.2171 C.3       17 UNK         0.1400 
     96 CB         -9.4801  -23.2433  -51.5533 C.3       17 UNK        -0.1800 
     97 C          -7.3461  -21.8314  -51.9195 C.2       17 UNK         0.5000 
     98 O          -8.0259  -21.0982  -52.6401 O.2       17 UNK        -0.5000 
     99 N          -6.0353  -21.6630  -51.6870 N.am      18 UNK        -0.5000 
    100 CA        -5.1463  -20.6425  -52.2517 C.3       18 UNK         0.1400 
    101 CB        -5.4650  -19.2555  -51.6571 C.3       18 UNK        -0.1800 
    102 C         -5.1285  -20.6556  -53.7957 C.2       18 UNK         0.5000 
    103 O         -5.3401  -19.6208  -54.4317 O.2       18 UNK        -0.5000 
    104 N         -4.8980  -21.8455  -54.3629 N.am      19 UNK        -0.5000 
    105 CA        -4.7915  -22.0833  -55.8023 C.3       19 UNK         0.1400 
    106 CB        -5.9456  -22.9875  -56.2589 C.3       19 UNK        -0.1800 
    107 C         -3.4350  -22.7050  -56.1710 C.2       19 UNK         0.5000 
    108 O         -2.9001  -22.3872  -57.2338 O.2       19 UNK        -0.5000 
    109 N         -2.8828  -23.5566  -55.2934 N.am      20 UNK        -0.5000 
    110 CA        -1.5530  -24.1547  -55.4471 C.3       20 UNK         0.1400 
    111 CB        -1.4626  -25.4200  -54.5801 C.3       20 UNK        -0.1800 
    112 C         -0.4274  -23.1674  -55.0823 C.2       20 UNK         0.5000 
    113 O          0.6954  -23.3154  -55.5660 O.2       20 UNK        -0.5000 
    114 N         -0.7574  -22.1722  -54.2537 N.am      21 UNK        -0.5000 
    115 CA         0.0705  -21.0311  -53.8970 C.3       21 UNK         0.1400 
    116 CB         0.7942  -21.3019  -52.5680 C.3       21 UNK        -0.1800 
    117 C         -0.8695  -19.8274  -53.7771 C.2       21 UNK         0.5000 
    118 O         -1.9897  -19.9889  -53.2890 O.2       21 UNK        -0.5000 
    119 N         -0.4001  -18.6570  -54.2215 N.am      22 UNK        -0.5000 
    120 CA        -1.1333  -17.3751  -54.2221 C.3       22 UNK         0.1400 
    121 C         -2.3210  -17.2966  -55.2316 C.2       22 UNK         0.5000 
    122 N         -2.4399  -18.2087  -56.1889 N.am      22 UNK        -0.7600 
    123 O         -3.1251  -16.3697  -55.1778 O.2       22 UNK        -0.5000 
    124 C124       -1.5355  -16.8869  -52.8009 C.3       23 UNK        -0.0398 
    125 S125       -0.1146  -16.8033  -51.6574 S.3       23 UNK        -0.2404 
    126 C126       -0.7006  -17.8572  -50.2891 C.3       23 UNK        -0.0205 
    127 H127       -4.5692  -17.1730  -42.0927 H         1 UNK         0.0600 
    128 H128       -3.4133  -16.6666  -40.8553 H         1 UNK         0.0600 
    129 H129       -2.8542  -17.5532  -42.2747 H         1 UNK         0.0600 
    130 H130       -1.9777  -16.2892  -43.8683 H         1 UNK         0.3000 
    131 H131       -3.0536  -13.7926  -44.7457 H         1 UNK         0.0600 
    132 H132       -0.2922  -14.8835  -45.4623 H         1 UNK         0.0800 
    133 H133       -1.7164  -15.6328  -46.0912 H         1 UNK         0.0800 
    134 H134       -3.7609  -13.6367  -47.3910 H         1 UNK         0.0800 
    135 H135       -2.9257  -13.2712  -48.8802 H         1 UNK         0.0800 
    136 H136       -1.0802  -15.2403  -49.5109 H         1 UNK         0.1150 
    137 H137       -2.8537  -19.1368  -49.2344 H         1 UNK         0.1150 
    138 H138       -4.7095  -15.7903  -47.3091 H         1 UNK         0.1150 
    139 H139       -5.9667  -18.0667  -47.9394 H         1 UNK         0.0800 
    140 H140       -4.9322  -19.4575  -48.1110 H         1 UNK         0.0800 
    141 H141       -2.9189  -18.9381  -44.5129 H         1 UNK         0.0800 
    142 H142       -2.5311  -18.3838  -46.1046 H         1 UNK         0.0800 
    143 H143       -3.4251  -20.7518  -46.9131 H         1 UNK         0.0600 
    144 H144       -0.8224  -19.9432  -46.1626 H         1 UNK         0.3000 
    145 H145        0.8462  -22.8689  -47.4008 H         1 UNK         0.0600 
    146 H146        2.0525  -21.1146  -48.6574 H         1 UNK         0.0600 
    147 H147        0.4534  -21.3551  -49.3473 H         1 UNK         0.0600 
    148 H148        0.7681  -19.9543  -48.3336 H         1 UNK         0.0600 
    149 H149        1.8686  -20.5262  -46.1582 H         1 UNK         0.3000 
    150 H150        1.5647  -21.6608  -42.7551 H         1 UNK         0.0600 
    151 H151        3.6813  -22.6088  -43.6777 H         1 UNK         0.0600 
    152 H152        3.9734  -21.0982  -42.8289 H         1 UNK         0.0600 
    153 H153        3.9605  -21.1312  -44.5904 H         1 UNK         0.0600 
    154 H154        2.5548  -19.2171  -43.7699 H         1 UNK         0.3000 
    155 H155       -0.5746  -17.4476  -43.8711 H         1 UNK         0.0600 
    156 H156        0.2475  -17.2533  -41.5669 H         1 UNK         0.0600 
    157 H157        0.8938  -15.9193  -42.5110 H         1 UNK         0.0600 
    158 H158        1.9204  -17.2888  -42.1030 H         1 UNK         0.0600 
    159 H159        2.0262  -16.6032  -44.6107 H         1 UNK         0.3000 
    160 H160        1.9251  -17.7109  -48.0217 H         1 UNK         0.0600 
    161 H161        1.8595  -14.9176  -46.7583 H         1 UNK         0.0600 
    162 H162        0.7494  -15.5212  -47.9778 H         1 UNK         0.0600 
    163 H163        2.4465  -15.3159  -48.3708 H         1 UNK         0.0600 
    164 H164        3.8609  -16.3438  -46.3716 H         1 UNK         0.3000 
    165 H165        5.6205  -19.2698  -45.3469 H         1 UNK         0.0600 
    166 H166        7.4900  -18.0546  -46.4321 H         1 UNK         0.0600 
    167 H167        6.4600  -18.7874  -47.6513 H         1 UNK         0.0600 
    168 H168        6.3549  -17.0581  -47.3429 H         1 UNK         0.0600 
    169 H169        6.0703  -16.4670  -44.9537 H         1 UNK         0.3000 
    170 H170        4.0393  -16.0566  -42.0654 H         1 UNK         0.0600 
    171 H171        6.0985  -17.1383  -41.1548 H         1 UNK         0.0600 
    172 H172        7.0923  -16.2361  -42.2925 H         1 UNK         0.0600 
    173 H173        6.1919  -15.3889  -41.0341 H         1 UNK         0.0600 
    174 H174        5.9058  -14.3332  -43.3536 H         1 UNK         0.3000 
    175 H175        5.0084  -12.4312  -44.3745 H         1 UNK         0.0600 
    176 H176        4.5975  -14.0846  -46.9479 H         1 UNK         0.0600 
    177 H177        5.5197  -12.5901  -46.8257 H         1 UNK         0.0600 
    178 H178        6.0949  -14.0360  -46.0240 H         1 UNK         0.0600 
    179 H179        2.3265  -12.9307  -45.2114 H         1 UNK         0.3000 
    180 H180        1.7576   -9.5425  -46.2685 H         1 UNK         0.0600 
    181 H181        1.2870  -12.2048  -47.7091 H         1 UNK         0.0600 
    182 H182        2.0646  -10.7828  -48.3878 H         1 UNK         0.0600 
    183 H183        0.3611  -10.7243  -47.9636 H         1 UNK         0.0600 
    184 H184       -0.0864  -11.6002  -45.6585 H         1 UNK         0.3000 
    185 H185       -0.4347  -11.1561  -42.2508 H         1 UNK         0.0600 
    186 H186       -1.1361   -8.8122  -42.6766 H         1 UNK         0.0600 
    187 H187       -1.9864   -9.3032  -44.1366 H         1 UNK         0.0600 
    188 H188       -2.5390   -9.8610  -42.5570 H         1 UNK         0.0600 
    189 H189       -2.1911  -11.7066  -44.5593 H         1 UNK         0.3000 
    190 H190       -1.6118  -21.2828  -43.8635 H         1 UNK         0.3000 
    191 H191       -3.6458  -22.6754  -42.4622 H         1 UNK         0.0600 
    192 H192       -0.5986  -22.9146  -42.2373 H         1 UNK         0.0600 
    193 H193       -1.6068  -21.7472  -41.3854 H         1 UNK         0.0600 
    194 H194       -1.7619  -23.4631  -41.0380 H         1 UNK         0.0600 
    195 H195       -1.2609  -23.8028  -44.8361 H         1 UNK         0.3000 
    196 H196       -2.0562  -26.6107  -44.7022 H         1 UNK         0.0600 
    197 H197        0.2815  -25.8950  -45.2373 H         1 UNK         0.0600 
    198 H198       -0.2943  -25.0849  -46.6922 H         1 UNK         0.0600 
    199 H199       -0.4140  -26.8344  -46.5474 H         1 UNK         0.0600 
    200 H200       -3.7219  -24.0235  -45.8062 H         1 UNK         0.3000 
    201 H201       -5.4698  -23.6146  -47.0225 H         1 UNK         0.0600 
    202 H202       -6.8662  -25.3657  -48.0353 H         1 UNK         0.0600 
    203 H203       -6.3595  -25.8580  -46.4275 H         1 UNK         0.0600 
    204 H204       -5.5907  -26.5587  -47.8509 H         1 UNK         0.0600 
    205 H205       -3.1194  -25.5798  -48.7899 H         1 UNK         0.3000 
    206 H206       -2.2308  -25.5266  -50.8433 H         1 UNK         0.0600 
    207 H207       -1.3179  -23.3681  -50.0328 H         1 UNK         0.0600 
    208 H208       -2.7211  -22.5044  -50.6548 H         1 UNK         0.0600 
    209 H209       -1.6063  -23.2978  -51.7601 H         1 UNK         0.0600 
    210 H210       -4.7610  -26.4235  -50.9079 H         1 UNK         0.3000 
    211 H211       -6.5438  -26.9154  -52.1351 H         1 UNK         0.0600 
    212 H212       -4.8691  -27.3869  -53.9115 H         1 UNK         0.0600 
    213 H213       -6.3756  -26.8144  -54.6064 H         1 UNK         0.0600 
    214 H214       -4.9934  -25.7339  -54.5016 H         1 UNK         0.0600 
    215 H215       -6.6698  -24.5842  -50.6611 H         1 UNK         0.3000 
    216 H216       -7.9205  -22.8467  -50.1464 H         1 UNK         0.0600 
    217 H217      -10.0628  -22.3734  -51.2485 H         1 UNK         0.0600 
    218 H218       -9.6454  -23.3850  -52.6215 H         1 UNK         0.0600 
    219 H219       -9.8908  -24.1079  -51.0321 H         1 UNK         0.0600 
    220 H220       -5.5921  -22.3149  -51.0444 H         1 UNK         0.3000 
    221 H221       -4.1386  -20.9097  -51.9318 H         1 UNK         0.0600 
    222 H222       -6.4516  -18.9020  -51.9576 H         1 UNK         0.0600 
    223 H223       -5.4337  -19.2778  -50.5686 H         1 UNK         0.0600 
    224 H224       -4.7348  -18.5153  -51.9869 H         1 UNK         0.0600 
    225 H225       -4.7312  -22.6414  -53.7522 H         1 UNK         0.3000 
    226 H226       -4.8667  -21.1412  -56.3492 H         1 UNK         0.0600 
    227 H227       -6.9117  -22.5421  -56.0205 H         1 UNK         0.0600 
    228 H228       -5.9150  -23.1462  -57.3374 H         1 UNK         0.0600 
    229 H229       -5.9045  -23.9660  -55.7816 H         1 UNK         0.0600 
    230 H230       -3.3680  -23.7658  -54.4244 H         1 UNK         0.3000 
    231 H231       -1.4182  -24.4479  -56.4904 H         1 UNK         0.0600 
    232 H232       -0.5235  -25.9451  -54.7582 H         1 UNK         0.0600 
    233 H233       -2.2721  -26.1146  -54.8054 H         1 UNK         0.0600 
    234 H234       -1.5060  -25.1846  -53.5171 H         1 UNK         0.0600 
    235 H235       -1.7173  -22.0949  -53.9423 H         1 UNK         0.3000 
    236 H236        0.8032  -20.8393  -54.6839 H         1 UNK         0.0600 
    237 H237        1.4363  -22.1798  -52.6392 H         1 UNK         0.0600 
    238 H238        1.4236  -20.4566  -52.2872 H         1 UNK         0.0600 
    239 H239        0.0873  -21.4681  -51.7549 H         1 UNK         0.0600 
    240 H240        0.5331  -18.6187  -54.6054 H         1 UNK         0.3000 
    241 H241       -0.4171  -16.6484  -54.6068 H         1 UNK         0.0600 
    242 H242       -3.2088  -18.1442  -56.8368 H         1 UNK         0.3800 
    243 H243       -1.7831  -18.9679  -56.2616 H         1 UNK         0.3800 
    244 H244       -1.9660  -15.8855  -52.8487 H         1 UNK         0.0800 
    245 H245       -2.3159  -17.5252  -52.3844 H         1 UNK         0.0800 
    246 H246        0.1307  -18.0276  -49.6064 H         1 UNK         0.0800 
    247 H247       -0.9780  -18.8337  -50.6899 H         1 UNK         0.0800 
@<TRIPOS>BOND
     1    1    2 1    
     2    1  127 1    
     3    1  128 1    
     4    1  129 1    
     5    2    3 2    
     6    2    4 am   BACKBONE|DICT|INTERRES
     7    4    5 1    
     8    4  130 1    
     9    5    6 1    
    10    5   65 1    
    11    5  131 1    
    12    6    7 1    
    13    6  132 1    
    14    6  133 1    
    15    7    8 1    
    16    8    9 1    
    17    8  134 1    
    18    8  135 1    
    19    9   10 ar   
    20    9   14 ar   
    21   10   11 ar   
    22   10  136 1    
    23   11   12 ar   
    24   11  126 1    
    25   12   13 ar   
    26   12  137 1    
    27   13   14 ar   
    28   13   15 1    
    29   14  138 1    
    30   15   16 1    
    31   15  139 1    
    32   15  140 1    
    33   16   17 1    
    34   17   18 1    
    35   17  141 1    
    36   17  142 1    
    37   18   19 1    
    38   18   67 1    
    39   18  143 1    
    40   19   20 am   BACKBONE|DICT|INTERRES
    41   19  144 1    
    42   20   21 2    
    43   20   22 1    
    44   22   23 1    
    45   22   24 1    
    46   22  145 1    
    47   23  146 1    
    48   23  147 1    
    49   23  148 1    
    50   24   25 am   BACKBONE|DICT|INTERRES
    51   24  149 1    
    52   25   26 2    
    53   25   27 1    
    54   27   28 1    
    55   27   29 1    
    56   27  150 1    
    57   28  151 1    
    58   28  152 1    
    59   28  153 1    
    60   29   30 am   BACKBONE|DICT|INTERRES
    61   29  154 1    
    62   30   31 2    
    63   30   32 1    
    64   32   33 1    
    65   32   34 1    
    66   32  155 1    
    67   33  156 1    
    68   33  157 1    
    69   33  158 1    
    70   34   35 am   BACKBONE|DICT|INTERRES
    71   34  159 1    
    72   35   36 2    
    73   35   37 1    
    74   37   38 1    
    75   37   39 1    
    76   37  160 1    
    77   38  161 1    
    78   38  162 1    
    79   38  163 1    
    80   39   40 am   BACKBONE|DICT|INTERRES
    81   39  164 1    
    82   40   41 2    
    83   40   42 1    
    84   42   43 1    
    85   42   44 1    
    86   42  165 1    
    87   43  166 1    
    88   43  167 1    
    89   43  168 1    
    90   44   45 am   BACKBONE|DICT|INTERRES
    91   44  169 1    
    92   45   46 2    
    93   45   47 1    
    94   47   48 1    
    95   47   49 1    
    96   47  170 1    
    97   48  171 1    
    98   48  172 1    
    99   48  173 1    
   100   49   50 am   BACKBONE|DICT|INTERRES
   101   49  174 1    
   102   50   51 2    
   103   50   52 1    
   104   52   53 1    
   105   52   54 1    
   106   52  175 1    
   107   53  176 1    
   108   53  177 1    
   109   53  178 1    
   110   54   55 am   BACKBONE|DICT|INTERRES
   111   54  179 1    
   112   55   56 2    
   113   55   57 1    
   114   57   58 1    
   115   57   59 1    
   116   57  180 1    
   117   58  181 1    
   118   58  182 1    
   119   58  183 1    
   120   59   60 am   BACKBONE|DICT|INTERRES
   121   59  184 1    
   122   60   61 2    
   123   60   62 1    
   124   62   63 1    
   125   62   64 1    
   126   62  185 1    
   127   63  186 1    
   128   63  187 1    
   129   63  188 1    
   130   64   65 am   BACKBONE|DICT|INTERRES
   131   64  189 1    
   132   65   66 2    
   133   67   68 2    
   134   67   69 am   BACKBONE|DICT|INTERRES
   135   69   70 1    
   136   69  190 1    
   137   70   71 1    
   138   70   72 1    
   139   70  191 1    
   140   71  192 1    
   141   71  193 1    
   142   71  194 1    
   143   72   73 2    
   144   72   74 am   BACKBONE|DICT|INTERRES
   145   74   75 1    
   146   74  195 1    
   147   75   76 1    
   148   75   77 1    
   149   75  196 1    
   150   76  197 1    
   151   76  198 1    
   152   76  199 1    
   153   77   78 2    
   154   77   79 am   BACKBONE|DICT|INTERRES
   155   79   80 1    
   156   79  200 1    
   157   80   81 1    
   158   80   82 1    
   159   80  201 1    
   160   81  202 1    
   161   81  203 1    
   162   81  204 1    
   163   82   83 2    
   164   82   84 am   BACKBONE|DICT|INTERRES
   165   84   85 1    
   166   84  205 1    
   167   85   86 1    
   168   85   87 1    
   169   85  206 1    
   170   86  207 1    
   171   86  208 1    
   172   86  209 1    
   173   87   88 2    
   174   87   89 am   BACKBONE|DICT|INTERRES
   175   89   90 1    
   176   89  210 1    
   177   90   91 1    
   178   90   92 1    
   179   90  211 1    
   180   91  212 1    
   181   91  213 1    
   182   91  214 1    
   183   92   93 2    
   184   92   94 am   BACKBONE|DICT|INTERRES
   185   94   95 1    
   186   94  215 1    
   187   95   96 1    
   188   95   97 1    
   189   95  216 1    
   190   96  217 1    
   191   96  218 1    
   192   96  219 1    
   193   97   98 2    
   194   97   99 am   BACKBONE|DICT|INTERRES
   195   99  100 1    
   196   99  220 1    
   197  100  101 1    
   198  100  102 1    
   199  100  221 1    
   200  101  222 1    
   201  101  223 1    
   202  101  224 1    
   203  102  103 2    
   204  102  104 am   BACKBONE|DICT|INTERRES
   205  104  105 1    
   206  104  225 1    
   207  105  106 1    
   208  105  107 1    
   209  105  226 1    
   210  106  227 1    
   211  106  228 1    
   212  106  229 1    
   213  107  108 2    
   214  107  109 am   BACKBONE|DICT|INTERRES
   215  109  110 1    
   216  109  230 1    
   217  110  111 1    
   218  110  112 1    
   219  110  231 1    
   220  111  232 1    
   221  111  233 1    
   222  111  234 1    
   223  112  113 2    
   224  112  114 am   BACKBONE|DICT|INTERRES
   225  114  115 1    
   226  114  235 1    
   227  115  116 1    
   228  115  117 1    
   229  115  236 1    
   230  116  237 1    
   231  116  238 1    
   232  116  239 1    
   233  117  118 2    
   234  117  119 am   BACKBONE|DICT|INTERRES
   235  119  120 1    
   236  119  240 1    
   237  120  121 1    
   238  120  124 1    
   239  120  241 1    
   240  121  122 am   BACKBONE|DICT|INTERRES
   241  121  123 2    
   242  122  242 1    
   243  122  243 1    
   244  124  125 1    
   245  124  244 1    
   246  124  245 1    
   247  125  126 1    
   248  126  246 1    
   249  126  247 1    
@<TRIPOS>SUBSTRUCTURE
     1 UNK         1 GROUP             0       ****    0 ROOT    
