@<TRIPOS>MOLECULE
3R540
247   249    1
SMALL
USER_CHARGES


@<TRIPOS>ATOM
      1 CA          4.1498  -15.3369  -48.5724 C.3       0 UNK        -0.1800 
      2 C           2.8651  -15.2268  -47.7631 C.2       0 UNK         0.5000 
      3 O           2.9042  -15.3459  -46.5405 O.2       0 UNK        -0.5000 
      4 N           1.7367  -15.0079  -48.4495 N.am      1 UNK        -0.5000 
      5 CA          0.3837  -14.9096  -47.8898 C.3       1 UNK         0.1400 
      6 C6         -0.6817  -14.7482  -49.0043 C.3       23 UNK        -0.0398 
      7 S7         -0.8108  -16.2335  -50.0540 S.3       23 UNK        -0.2404 
      8 C8          0.2520  -15.7991  -51.4680 C.3       23 UNK        -0.0205 
      9 C9          0.8808  -17.0474  -52.0648 C.ar      23 UNK        -0.0193 
     10 C10         0.5347  -17.4820  -53.3473 C.ar      23 UNK        -0.1150 
     11 C11         1.0924  -18.6520  -53.8732 C.ar      23 UNK        -0.0193 
     12 C12         2.0034  -19.3857  -53.1079 C.ar      23 UNK        -0.1150 
     13 C13         2.3314  -18.9766  -51.8132 C.ar      23 UNK        -0.0193 
     14 C14         1.7923  -17.7904  -51.3100 C.ar      23 UNK        -0.1150 
     15 C15         3.1996  -19.8541  -50.9229 C.3       23 UNK        -0.0205 
     16 S16         2.3866  -21.4402  -50.5129 S.3       23 UNK        -0.2404 
     17 C17         0.7210  -20.9313  -49.9458 C.3       23 UNK        -0.0398 
     18 CA          0.4430  -21.2273  -48.4544 C.3       11 UNK         0.1400 
     19 N           1.4680  -20.6594  -47.5750 N.am      11 UNK        -0.5000 
     20 C           1.5610  -20.8341  -46.2504 C.2       10 UNK         0.5000 
     21 O           0.7306  -21.4544  -45.5839 O.2       10 UNK        -0.5000 
     22 CA          2.7777  -20.1956  -45.5470 C.3       10 UNK         0.1400 
     23 CB          3.8387  -19.6228  -46.5160 C.3       10 UNK        -0.1800 
     24 N           2.3881  -19.1665  -44.5821 N.am      10 UNK        -0.5000 
     25 C           1.6249  -18.0879  -44.8125 C.2       9 UNK         0.5000 
     26 O           1.0483  -17.8731  -45.8805 O.2       9 UNK        -0.5000 
     27 CA          1.4655  -17.0770  -43.6606 C.3       9 UNK         0.1400 
     28 CB          0.0539  -17.1489  -43.0645 C.3       9 UNK        -0.1800 
     29 N           2.4313  -17.2391  -42.5710 N.am      9 UNK        -0.5000 
     30 C           3.7130  -16.8482  -42.6066 C.2       8 UNK         0.5000 
     31 O           4.2558  -16.3620  -43.5972 O.2       8 UNK        -0.5000 
     32 CA          4.5289  -17.0272  -41.3156 C.3       8 UNK         0.1400 
     33 CB          4.2233  -15.8937  -40.3236 C.3       8 UNK        -0.1800 
     34 N           4.2366  -18.3078  -40.6751 N.am      8 UNK        -0.5000 
     35 C           5.0466  -19.3746  -40.6845 C.2       7 UNK         0.5000 
     36 O           6.1605  -19.3854  -41.2100 O.2       7 UNK        -0.5000 
     37 CA          4.5317  -20.6536  -39.9907 C.3       7 UNK         0.1400 
     38 CB          5.0585  -20.7298  -38.5495 C.3       7 UNK        -0.1800 
     39 N           3.0717  -20.7644  -39.9667 N.am      7 UNK        -0.5000 
     40 C           2.2980  -20.9012  -41.0518 C.2       6 UNK         0.5000 
     41 O           2.7404  -20.9959  -42.1961 O.2       6 UNK        -0.5000 
     42 CA          0.7727  -20.8866  -40.8299 C.3       6 UNK         0.1400 
     43 CB          0.2484  -22.3227  -40.6803 C.3       6 UNK        -0.1800 
     44 N           0.3074  -20.0901  -39.6860 N.am      6 UNK        -0.5000 
     45 C           0.5823  -18.7985  -39.4594 C.2       5 UNK         0.5000 
     46 O           1.3880  -18.1430  -40.1252 O.2       5 UNK        -0.5000 
     47 CA         -0.1330  -18.1430  -38.2619 C.3       5 UNK         0.1400 
     48 CB          0.6294  -18.4425  -36.9621 C.3       5 UNK        -0.1800 
     49 N          -0.2397  -16.6909  -38.4194 N.am      5 UNK        -0.5000 
     50 C          -0.9427  -16.0743  -39.3790 C.2       4 UNK         0.5000 
     51 O          -1.6985  -16.6680  -40.1523 O.2       4 UNK        -0.5000 
     52 CA         -0.7288  -14.5481  -39.4929 C.3       4 UNK         0.1400 
     53 CB          0.7572  -14.2133  -39.7222 C.3       4 UNK        -0.1800 
     54 N          -1.4876  -13.9369  -40.5829 N.am      4 UNK        -0.5000 
     55 C          -2.8140  -13.7600  -40.6381 C.2       3 UNK         0.5000 
     56 O          -3.5795  -14.0548  -39.7186 O.2       3 UNK        -0.5000 
     57 CA         -3.3785  -13.1116  -41.9239 C.3       3 UNK         0.1400 
     58 CB         -4.1570  -11.8269  -41.5929 C.3       3 UNK        -0.1800 
     59 N          -2.3365  -12.7822  -42.9049 N.am      3 UNK        -0.5000 
     60 C          -1.8431  -13.6304  -43.8150 C.2       2 UNK         0.5000 
     61 O          -2.2608  -14.7780  -43.9852 O.2       2 UNK        -0.5000 
     62 CA         -0.6545  -13.1171  -44.6413 C.3       2 UNK         0.1400 
     63 CB          0.6094  -12.9935  -43.7659 C.3       2 UNK        -0.1800 
     64 N          -0.4085  -14.0438  -45.7406 N.am      2 UNK        -0.5000 
     65 C           0.2618  -13.7643  -46.8630 C.2       1 UNK         0.5000 
     66 O           0.7457  -12.6584  -47.1181 O.2       1 UNK        -0.5000 
     67 C          -0.9927  -20.7809  -48.1070 C.2       11 UNK         0.5000 
     68 O          -1.9276  -21.5187  -48.4133 O.2       11 UNK        -0.5000 
     69 N          -1.1564  -19.6117  -47.4657 N.am      12 UNK        -0.5000 
     70 CA         -2.4565  -19.0677  -47.0541 C.3       12 UNK         0.1400 
     71 CB         -2.2920  -17.6026  -46.6287 C.3       12 UNK        -0.1800 
     72 C          -3.1649  -19.8847  -45.9542 C.2       12 UNK         0.5000 
     73 O          -4.3585  -19.6819  -45.7290 O.2       12 UNK        -0.5000 
     74 N          -2.4399  -20.8086  -45.3072 N.am      13 UNK        -0.5000 
     75 CA         -2.9982  -21.8092  -44.3986 C.3       13 UNK         0.1400 
     76 CB         -1.8510  -22.4349  -43.5937 C.3       13 UNK        -0.1800 
     77 C          -3.8083  -22.9047  -45.1260 C.2       13 UNK         0.5000 
     78 O          -4.5982  -23.5919  -44.4769 O.2       13 UNK        -0.5000 
     79 N          -3.6034  -23.0548  -46.4416 N.am      14 UNK        -0.5000 
     80 CA         -4.3180  -23.9818  -47.3123 C.3       14 UNK         0.1400 
     81 CB         -3.2839  -24.7919  -48.1124 C.3       14 UNK        -0.1800 
     82 C          -5.2378  -23.2045  -48.2680 C.2       14 UNK         0.5000 
     83 O          -5.0433  -22.0081  -48.4959 O.2       14 UNK        -0.5000 
     84 N          -6.2087  -23.9172  -48.8526 N.am      15 UNK        -0.5000 
     85 CA         -7.1433  -23.3822  -49.8474 C.3       15 UNK         0.1400 
     86 CB         -8.3154  -24.3613  -50.0106 C.3       15 UNK        -0.1800 
     87 C          -6.4912  -23.0975  -51.2150 C.2       15 UNK         0.5000 
     88 O          -7.0551  -22.3373  -52.0017 O.2       15 UNK        -0.5000 
     89 N          -5.3196  -23.6968  -51.4770 N.am      16 UNK        -0.5000 
     90 CA         -4.5703  -23.5907  -52.7310 C.3       16 UNK         0.1400 
     91 CB         -3.3153  -24.4724  -52.6532 C.3       16 UNK        -0.1800 
     92 C          -4.1859  -22.1525  -53.1190 C.2       16 UNK         0.5000 
     93 O          -4.1806  -21.8358  -54.3081 O.2       16 UNK        -0.5000 
     94 N          -3.8995  -21.3065  -52.1204 N.am      17 UNK        -0.5000 
     95 CA         -3.5943  -19.8883  -52.3125 C.3       17 UNK         0.1400 
     96 CB         -2.9942  -19.3182  -51.0215 C.3       17 UNK        -0.1800 
     97 C          -4.8199  -19.0670  -52.7535 C.2       17 UNK         0.5000 
     98 O          -4.6769  -18.1516  -53.5637 O.2       17 UNK        -0.5000 
     99 N          -6.0028  -19.4196  -52.2312 N.am      18 UNK        -0.5000 
    100 CA        -7.2790  -18.7934  -52.5797 C.3       18 UNK         0.1400 
    101 CB        -8.3029  -19.0659  -51.4668 C.3       18 UNK        -0.1800 
    102 C         -7.8029  -19.2854  -53.9400 C.2       18 UNK         0.5000 
    103 O         -8.3296  -18.4888  -54.7172 O.2       18 UNK        -0.5000 
    104 N         -7.6274  -20.5860  -54.2088 N.am      19 UNK        -0.5000 
    105 CA        -8.0024  -21.2471  -55.4598 C.3       19 UNK         0.1400 
    106 CB        -8.0173  -22.7656  -55.2210 C.3       19 UNK        -0.1800 
    107 C         -7.0740  -20.9082  -56.6435 C.2       19 UNK         0.5000 
    108 O         -7.4503  -21.1610  -57.7884 O.2       19 UNK        -0.5000 
    109 N         -5.8761  -20.3813  -56.3452 N.am      20 UNK        -0.5000 
    110 CA        -4.7567  -20.1253  -57.2602 C.3       20 UNK         0.1400 
    111 CB        -5.1257  -19.0743  -58.3272 C.3       20 UNK        -0.1800 
    112 C         -4.1705  -21.4242  -57.8578 C.2       20 UNK         0.5000 
    113 O         -3.6340  -21.4176  -58.9668 O.2       20 UNK        -0.5000 
    114 N         -4.2646  -22.5149  -57.0870 N.am      21 UNK        -0.5000 
    115 CA        -3.6891  -23.8279  -57.3805 C.3       21 UNK         0.1400 
    116 CB        -4.5818  -24.9036  -56.7418 C.3       21 UNK        -0.1800 
    117 C         -2.2391  -23.9485  -56.8685 C.2       21 UNK         0.5000 
    118 O         -1.5697  -24.9377  -57.1668 O.2       21 UNK        -0.5000 
    119 N         -1.7873  -22.9463  -56.1046 N.am      22 UNK        -0.5000 
    120 CA        -0.4420  -22.8048  -55.5312 C.3       22 UNK         0.1400 
    121 C          0.7318  -22.6870  -56.5511 C.2       22 UNK         0.5000 
    122 N          0.4851  -22.4247  -57.8289 N.am      22 UNK        -0.7600 
    123 O          1.8893  -22.8406  -56.1718 O.2       22 UNK        -0.5000 
    124 C124       -0.4132  -21.6473  -54.5001 C.3       23 UNK        -0.0398 
    125 S125       -0.9009  -20.0297  -55.2108 S.3       23 UNK        -0.2404 
    126 C126        0.6852  -19.1359  -55.2560 C.3       23 UNK        -0.0205 
    127 H127        3.9653  -15.2470  -49.6433 H         1 UNK         0.0600 
    128 H128        4.8467  -14.5519  -48.2789 H         1 UNK         0.0600 
    129 H129        4.6241  -16.3014  -48.3902 H         1 UNK         0.0600 
    130 H130        1.7945  -14.8883  -49.4481 H         1 UNK         0.3000 
    131 H131        0.1943  -15.8476  -47.3657 H         1 UNK         0.0600 
    132 H132       -1.6688  -14.5860  -48.5672 H         1 UNK         0.0800 
    133 H133       -0.4782  -13.8708  -49.6209 H         1 UNK         0.0800 
    134 H134       -0.3439  -15.2656  -52.2101 H         1 UNK         0.0800 
    135 H135        1.0462  -15.1184  -51.1632 H         1 UNK         0.0800 
    136 H136       -0.1823  -16.9224  -53.9316 H         1 UNK         0.1150 
    137 H137        2.4244  -20.3016  -53.4981 H         1 UNK         0.1150 
    138 H138        2.0354  -17.4714  -50.3060 H         1 UNK         0.1150 
    139 H139        3.4546  -19.3354  -49.9976 H         1 UNK         0.0800 
    140 H140        4.1435  -20.0586  -51.4297 H         1 UNK         0.0800 
    141 H141       -0.0009  -21.4591  -50.5722 H         1 UNK         0.0800 
    142 H142        0.5555  -19.8730  -50.1411 H         1 UNK         0.0800 
    143 H143        0.4770  -22.3100  -48.3161 H         1 UNK         0.0600 
    144 H144        2.1882  -20.1218  -48.0328 H         1 UNK         0.3000 
    145 H145        3.2497  -20.9949  -44.9741 H         1 UNK         0.0600 
    146 H146        4.7080  -19.2625  -45.9656 H         1 UNK         0.0600 
    147 H147        4.1958  -20.3842  -47.2109 H         1 UNK         0.0600 
    148 H148        3.4550  -18.7848  -47.0999 H         1 UNK         0.0600 
    149 H149        2.7373  -19.3085  -43.6430 H         1 UNK         0.3000 
    150 H150        1.6013  -16.0845  -44.0944 H         1 UNK         0.0600 
    151 H151       -0.1387  -18.1117  -42.5908 H         1 UNK         0.0600 
    152 H152       -0.7075  -17.0000  -43.8268 H         1 UNK         0.0600 
    153 H153       -0.0918  -16.3700  -42.3172 H         1 UNK         0.0600 
    154 H154        2.0589  -17.6049  -41.6971 H         1 UNK         0.3000 
    155 H155        5.5863  -16.9630  -41.5806 H         1 UNK         0.0600 
    156 H156        3.1925  -15.9352  -39.9718 H         1 UNK         0.0600 
    157 H157        4.3782  -14.9162  -40.7821 H         1 UNK         0.0600 
    158 H158        4.8741  -15.9516  -39.4511 H         1 UNK         0.0600 
    159 H159        3.3161  -18.3974  -40.2571 H         1 UNK         0.3000 
    160 H160        4.9245  -21.5083  -40.5453 H         1 UNK         0.0600 
    161 H161        4.6784  -19.9098  -37.9387 H         1 UNK         0.0600 
    162 H162        6.1479  -20.6775  -38.5282 H         1 UNK         0.0600 
    163 H163        4.7704  -21.6668  -38.0725 H         1 UNK         0.0600 
    164 H164        2.6232  -20.6862  -39.0661 H         1 UNK         0.3000 
    165 H165        0.3274  -20.4497  -41.7255 H         1 UNK         0.0600 
    166 H166       -0.8398  -22.3435  -40.6193 H         1 UNK         0.0600 
    167 H167        0.6437  -22.8032  -39.7845 H         1 UNK         0.0600 
    168 H168        0.5362  -22.9356  -41.5358 H         1 UNK         0.0600 
    169 H169       -0.3415  -20.5549  -39.0673 H         1 UNK         0.3000 
    170 H170       -1.1416  -18.5547  -38.1877 H         1 UNK         0.0600 
    171 H171        0.6997  -19.5165  -36.7852 H         1 UNK         0.0600 
    172 H172        1.6461  -18.0478  -36.9917 H         1 UNK         0.0600 
    173 H173        0.1251  -18.0066  -36.0993 H         1 UNK         0.0600 
    174 H174        0.3741  -16.1386  -37.8396 H         1 UNK         0.3000 
    175 H175       -1.0525  -14.0941  -38.5542 H         1 UNK         0.0600 
    176 H176        1.1400  -14.6923  -40.6247 H         1 UNK         0.0600 
    177 H177        0.9091  -13.1385  -39.8253 H         1 UNK         0.0600 
    178 H178        1.3772  -14.5404  -38.8873 H         1 UNK         0.0600 
    179 H179       -0.9572  -13.6811  -41.3999 H         1 UNK         0.3000 
    180 H180       -4.0766  -13.8261  -42.3652 H         1 UNK         0.0600 
    181 H181       -3.5175  -11.0785  -41.1236 H         1 UNK         0.0600 
    182 H182       -4.9808  -12.0312  -40.9078 H         1 UNK         0.0600 
    183 H183       -4.5884  -11.3850  -42.4913 H         1 UNK         0.0600 
    184 H184       -1.9398  -11.8557  -42.8329 H         1 UNK         0.3000 
    185 H185       -0.9193  -12.1394  -45.0494 H         1 UNK         0.0600 
    186 H186        1.4692  -12.6666  -44.3509 H         1 UNK         0.0600 
    187 H187        0.4704  -12.2620  -42.9693 H         1 UNK         0.0600 
    188 H188        0.8697  -13.9430  -43.2976 H         1 UNK         0.0600 
    189 H189       -0.8383  -14.9513  -45.6086 H         1 UNK         0.3000 
    190 H190       -0.3370  -19.0764  -47.2017 H         1 UNK         0.3000 
    191 H191       -3.1146  -19.0871  -47.9239 H         1 UNK         0.0600 
    192 H192       -1.9309  -16.9947  -47.4547 H         1 UNK         0.0600 
    193 H193       -1.5911  -17.5037  -45.8036 H         1 UNK         0.0600 
    194 H194       -3.2415  -17.1737  -46.3057 H         1 UNK         0.0600 
    195 H195       -1.4582  -20.9070  -45.5375 H         1 UNK         0.3000 
    196 H196       -3.6708  -21.3055  -43.7012 H         1 UNK         0.0600 
    197 H197       -1.1662  -22.9918  -44.2346 H         1 UNK         0.0600 
    198 H198       -1.2756  -21.6679  -43.0776 H         1 UNK         0.0600 
    199 H199       -2.2310  -23.1247  -42.8392 H         1 UNK         0.0600 
    200 H200       -3.0028  -22.3962  -46.9277 H         1 UNK         0.3000 
    201 H201       -4.9290  -24.6713  -46.7264 H         1 UNK         0.0600 
    202 H202       -2.6804  -24.1520  -48.7576 H         1 UNK         0.0600 
    203 H203       -3.7682  -25.5352  -48.7466 H         1 UNK         0.0600 
    204 H204       -2.6062  -25.3279  -47.4477 H         1 UNK         0.0600 
    205 H205       -6.3116  -24.8948  -48.6197 H         1 UNK         0.3000 
    206 H206       -7.5397  -22.4355  -49.4740 H         1 UNK         0.0600 
    207 H207       -8.8364  -24.5146  -49.0653 H         1 UNK         0.0600 
    208 H208       -9.0470  -23.9798  -50.7244 H         1 UNK         0.0600 
    209 H209       -7.9805  -25.3342  -50.3726 H         1 UNK         0.0600 
    210 H210       -4.9323  -24.3029  -50.7702 H         1 UNK         0.3000 
    211 H211       -5.2131  -23.9792  -53.5221 H         1 UNK         0.0600 
    212 H212       -2.7472  -24.4287  -53.5836 H         1 UNK         0.0600 
    213 H213       -3.5767  -25.5171  -52.4840 H         1 UNK         0.0600 
    214 H214       -2.6509  -24.1569  -51.8476 H         1 UNK         0.0600 
    215 H215       -3.9350  -21.6438  -51.1683 H         1 UNK         0.3000 
    216 H216       -2.8431  -19.8010  -53.0977 H         1 UNK         0.0600 
    217 H217       -3.6674  -19.4533  -50.1748 H         1 UNK         0.0600 
    218 H218       -2.7955  -18.2508  -51.1208 H         1 UNK         0.0600 
    219 H219       -2.0477  -19.8015  -50.7833 H         1 UNK         0.0600 
    220 H220       -6.0437  -20.2201  -51.6164 H         1 UNK         0.3000 
    221 H221       -7.1331  -17.7130  -52.6464 H         1 UNK         0.0600 
    222 H222       -7.9559  -18.6782  -50.5089 H         1 UNK         0.0600 
    223 H223       -8.4985  -20.1318  -51.3457 H         1 UNK         0.0600 
    224 H224       -9.2550  -18.5817  -51.6876 H         1 UNK         0.0600 
    225 H225       -7.2514  -21.1834  -53.4765 H         1 UNK         0.3000 
    226 H226       -9.0119  -20.9302  -55.7294 H         1 UNK         0.0600 
    227 H227       -7.0281  -23.1383  -54.9540 H         1 UNK         0.0600 
    228 H228       -8.7034  -23.0326  -54.4170 H         1 UNK         0.0600 
    229 H229       -8.3394  -23.3010  -56.1150 H         1 UNK         0.0600 
    230 H230       -5.6639  -20.2550  -55.3647 H         1 UNK         0.3000 
    231 H231       -3.9639  -19.6984  -56.6437 H         1 UNK         0.0600 
    232 H232       -5.8521  -19.4577  -59.0439 H         1 UNK         0.0600 
    233 H233       -4.2445  -18.7668  -58.8913 H         1 UNK         0.0600 
    234 H234       -5.5452  -18.1787  -57.8689 H         1 UNK         0.0600 
    235 H235       -4.6398  -22.3889  -56.1527 H         1 UNK         0.3000 
    236 H236       -3.6761  -23.9869  -58.4607 H         1 UNK         0.0600 
    237 H237       -5.6096  -24.8255  -57.0970 H         1 UNK         0.0600 
    238 H238       -4.2271  -25.9044  -56.9911 H         1 UNK         0.0600 
    239 H239       -4.5949  -24.8224  -55.6553 H         1 UNK         0.0600 
    240 H240       -2.4241  -22.1891  -55.8982 H         1 UNK         0.3000 
    241 H241       -0.2511  -23.7278  -54.9808 H         1 UNK         0.0600 
    242 H242        1.2519  -22.3555  -58.4791 H         1 UNK         0.3800 
    243 H243       -0.4598  -22.2897  -58.1506 H         1 UNK         0.3800 
    244 H244        0.5663  -21.5812  -54.0280 H         1 UNK         0.0800 
    245 H245       -1.1054  -21.8695  -53.6872 H         1 UNK         0.0800 
    246 H246        1.4583  -19.7728  -55.6887 H         1 UNK         0.0800 
    247 H247        0.5871  -18.2799  -55.9250 H         1 UNK         0.0800 
@<TRIPOS>BOND
     1    1    2 1    
     2    1  127 1    
     3    1  128 1    
     4    1  129 1    
     5    2    3 2    
     6    2    4 am   BACKBONE|DICT|INTERRES
     7    4    5 1    
     8    4  130 1    
     9    5    6 1    
    10    5   65 1    
    11    5  131 1    
    12    6    7 1    
    13    6  132 1    
    14    6  133 1    
    15    7    8 1    
    16    8    9 1    
    17    8  134 1    
    18    8  135 1    
    19    9   10 ar   
    20    9   14 ar   
    21   10   11 ar   
    22   10  136 1    
    23   11   12 ar   
    24   11  126 1    
    25   12   13 ar   
    26   12  137 1    
    27   13   14 ar   
    28   13   15 1    
    29   14  138 1    
    30   15   16 1    
    31   15  139 1    
    32   15  140 1    
    33   16   17 1    
    34   17   18 1    
    35   17  141 1    
    36   17  142 1    
    37   18   19 1    
    38   18   67 1    
    39   18  143 1    
    40   19   20 am   BACKBONE|DICT|INTERRES
    41   19  144 1    
    42   20   21 2    
    43   20   22 1    
    44   22   23 1    
    45   22   24 1    
    46   22  145 1    
    47   23  146 1    
    48   23  147 1    
    49   23  148 1    
    50   24   25 am   BACKBONE|DICT|INTERRES
    51   24  149 1    
    52   25   26 2    
    53   25   27 1    
    54   27   28 1    
    55   27   29 1    
    56   27  150 1    
    57   28  151 1    
    58   28  152 1    
    59   28  153 1    
    60   29   30 am   BACKBONE|DICT|INTERRES
    61   29  154 1    
    62   30   31 2    
    63   30   32 1    
    64   32   33 1    
    65   32   34 1    
    66   32  155 1    
    67   33  156 1    
    68   33  157 1    
    69   33  158 1    
    70   34   35 am   BACKBONE|DICT|INTERRES
    71   34  159 1    
    72   35   36 2    
    73   35   37 1    
    74   37   38 1    
    75   37   39 1    
    76   37  160 1    
    77   38  161 1    
    78   38  162 1    
    79   38  163 1    
    80   39   40 am   BACKBONE|DICT|INTERRES
    81   39  164 1    
    82   40   41 2    
    83   40   42 1    
    84   42   43 1    
    85   42   44 1    
    86   42  165 1    
    87   43  166 1    
    88   43  167 1    
    89   43  168 1    
    90   44   45 am   BACKBONE|DICT|INTERRES
    91   44  169 1    
    92   45   46 2    
    93   45   47 1    
    94   47   48 1    
    95   47   49 1    
    96   47  170 1    
    97   48  171 1    
    98   48  172 1    
    99   48  173 1    
   100   49   50 am   BACKBONE|DICT|INTERRES
   101   49  174 1    
   102   50   51 2    
   103   50   52 1    
   104   52   53 1    
   105   52   54 1    
   106   52  175 1    
   107   53  176 1    
   108   53  177 1    
   109   53  178 1    
   110   54   55 am   BACKBONE|DICT|INTERRES
   111   54  179 1    
   112   55   56 2    
   113   55   57 1    
   114   57   58 1    
   115   57   59 1    
   116   57  180 1    
   117   58  181 1    
   118   58  182 1    
   119   58  183 1    
   120   59   60 am   BACKBONE|DICT|INTERRES
   121   59  184 1    
   122   60   61 2    
   123   60   62 1    
   124   62   63 1    
   125   62   64 1    
   126   62  185 1    
   127   63  186 1    
   128   63  187 1    
   129   63  188 1    
   130   64   65 am   BACKBONE|DICT|INTERRES
   131   64  189 1    
   132   65   66 2    
   133   67   68 2    
   134   67   69 am   BACKBONE|DICT|INTERRES
   135   69   70 1    
   136   69  190 1    
   137   70   71 1    
   138   70   72 1    
   139   70  191 1    
   140   71  192 1    
   141   71  193 1    
   142   71  194 1    
   143   72   73 2    
   144   72   74 am   BACKBONE|DICT|INTERRES
   145   74   75 1    
   146   74  195 1    
   147   75   76 1    
   148   75   77 1    
   149   75  196 1    
   150   76  197 1    
   151   76  198 1    
   152   76  199 1    
   153   77   78 2    
   154   77   79 am   BACKBONE|DICT|INTERRES
   155   79   80 1    
   156   79  200 1    
   157   80   81 1    
   158   80   82 1    
   159   80  201 1    
   160   81  202 1    
   161   81  203 1    
   162   81  204 1    
   163   82   83 2    
   164   82   84 am   BACKBONE|DICT|INTERRES
   165   84   85 1    
   166   84  205 1    
   167   85   86 1    
   168   85   87 1    
   169   85  206 1    
   170   86  207 1    
   171   86  208 1    
   172   86  209 1    
   173   87   88 2    
   174   87   89 am   BACKBONE|DICT|INTERRES
   175   89   90 1    
   176   89  210 1    
   177   90   91 1    
   178   90   92 1    
   179   90  211 1    
   180   91  212 1    
   181   91  213 1    
   182   91  214 1    
   183   92   93 2    
   184   92   94 am   BACKBONE|DICT|INTERRES
   185   94   95 1    
   186   94  215 1    
   187   95   96 1    
   188   95   97 1    
   189   95  216 1    
   190   96  217 1    
   191   96  218 1    
   192   96  219 1    
   193   97   98 2    
   194   97   99 am   BACKBONE|DICT|INTERRES
   195   99  100 1    
   196   99  220 1    
   197  100  101 1    
   198  100  102 1    
   199  100  221 1    
   200  101  222 1    
   201  101  223 1    
   202  101  224 1    
   203  102  103 2    
   204  102  104 am   BACKBONE|DICT|INTERRES
   205  104  105 1    
   206  104  225 1    
   207  105  106 1    
   208  105  107 1    
   209  105  226 1    
   210  106  227 1    
   211  106  228 1    
   212  106  229 1    
   213  107  108 2    
   214  107  109 am   BACKBONE|DICT|INTERRES
   215  109  110 1    
   216  109  230 1    
   217  110  111 1    
   218  110  112 1    
   219  110  231 1    
   220  111  232 1    
   221  111  233 1    
   222  111  234 1    
   223  112  113 2    
   224  112  114 am   BACKBONE|DICT|INTERRES
   225  114  115 1    
   226  114  235 1    
   227  115  116 1    
   228  115  117 1    
   229  115  236 1    
   230  116  237 1    
   231  116  238 1    
   232  116  239 1    
   233  117  118 2    
   234  117  119 am   BACKBONE|DICT|INTERRES
   235  119  120 1    
   236  119  240 1    
   237  120  121 1    
   238  120  124 1    
   239  120  241 1    
   240  121  122 am   BACKBONE|DICT|INTERRES
   241  121  123 2    
   242  122  242 1    
   243  122  243 1    
   244  124  125 1    
   245  124  244 1    
   246  124  245 1    
   247  125  126 1    
   248  126  246 1    
   249  126  247 1    
@<TRIPOS>SUBSTRUCTURE
     1 UNK         1 GROUP             0       ****    0 ROOT    
