@<TRIPOS>MOLECULE
3R540
247   249    1
SMALL
USER_CHARGES


@<TRIPOS>ATOM
      1 CA         -7.2425  -14.8482  -48.1638 C.3       0 UNK        -0.1800 
      2 C          -5.8296  -14.5823  -48.6625 C.2       0 UNK         0.5000 
      3 O          -5.6304  -13.6679  -49.4622 O.2       0 UNK        -0.5000 
      4 N          -4.8549  -15.3795  -48.2069 N.am      1 UNK        -0.5000 
      5 CA         -3.4297  -15.2282  -48.5172 C.3       1 UNK         0.1400 
      6 C6         -2.5960  -16.4148  -47.9719 C.3       23 UNK        -0.0398 
      7 S7         -0.9136  -16.4825  -48.6850 S.3       23 UNK        -0.2404 
      8 C8         -0.8654  -18.1685  -49.3712 C.3       23 UNK        -0.0205 
      9 C9          0.5127  -18.5293  -49.9112 C.ar      23 UNK        -0.0193 
     10 C10         0.6734  -18.8703  -51.2577 C.ar      23 UNK        -0.1150 
     11 C11         1.9253  -19.2469  -51.7575 C.ar      23 UNK        -0.0193 
     12 C12         3.0233  -19.2645  -50.8942 C.ar      23 UNK        -0.1150 
     13 C13         2.8862  -18.9136  -49.5488 C.ar      23 UNK        -0.0193 
     14 C14         1.6256  -18.5487  -49.0627 C.ar      23 UNK        -0.1150 
     15 C15         4.1186  -18.9047  -48.6488 C.3       23 UNK        -0.0205 
     16 S16         3.9055  -19.8219  -47.0895 S.3       23 UNK        -0.2404 
     17 C17         3.3073  -21.4481  -47.6598 C.3       23 UNK        -0.0398 
     18 CA          3.8988  -22.6532  -46.8815 C.3       11 UNK         0.1400 
     19 N           3.7521  -22.5204  -45.4237 N.am      11 UNK        -0.5000 
     20 C           4.3642  -23.2895  -44.5105 C.2       10 UNK         0.5000 
     21 O           5.2100  -24.1389  -44.7924 O.2       10 UNK        -0.5000 
     22 CA          3.9222  -23.1227  -43.0443 C.3       10 UNK         0.1400 
     23 CB          4.8037  -22.0976  -42.3139 C.3       10 UNK        -0.1800 
     24 N           2.5139  -22.7329  -42.9360 N.am      10 UNK        -0.5000 
     25 C           1.4803  -23.5774  -43.0662 C.2       9 UNK         0.5000 
     26 O           1.6111  -24.7884  -43.2445 O.2       9 UNK        -0.5000 
     27 CA          0.0620  -22.9712  -43.0275 C.3       9 UNK         0.1400 
     28 CB         -0.4376  -22.8620  -41.5793 C.3       9 UNK        -0.1800 
     29 N          -0.0283  -21.6575  -43.6637 N.am      9 UNK        -0.5000 
     30 C           0.2227  -21.4151  -44.9573 C.2       8 UNK         0.5000 
     31 O           0.4991  -22.2903  -45.7777 O.2       8 UNK        -0.5000 
     32 CA          0.2332  -19.9390  -45.3961 C.3       8 UNK         0.1400 
     33 CB         -1.1807  -19.4862  -45.7724 C.3       8 UNK        -0.1800 
     34 N           0.7852  -19.0210  -44.3950 N.am      8 UNK        -0.5000 
     35 C           2.0005  -19.1278  -43.8355 C.2       7 UNK         0.5000 
     36 O           2.7770  -20.0535  -44.0567 O.2       7 UNK        -0.5000 
     37 CA          2.3982  -18.0485  -42.8219 C.3       7 UNK         0.1400 
     38 CB          2.7723  -16.7484  -43.5409 C.3       7 UNK        -0.1800 
     39 N           1.3136  -17.8047  -41.8757 N.am      7 UNK        -0.5000 
     40 C           1.0526  -18.5950  -40.8250 C.2       6 UNK         0.5000 
     41 O           1.7532  -19.5528  -40.4963 O.2       6 UNK        -0.5000 
     42 CA         -0.2221  -18.2800  -40.0205 C.3       6 UNK         0.1400 
     43 CB          0.0707  -17.2424  -38.9263 C.3       6 UNK        -0.1800 
     44 N          -1.3240  -17.8007  -40.8561 N.am      6 UNK        -0.5000 
     45 C          -1.9322  -18.5250  -41.8058 C.2       5 UNK         0.5000 
     46 O          -1.6370  -19.6888  -42.0782 O.2       5 UNK        -0.5000 
     47 CA         -3.0326  -17.8126  -42.6126 C.3       5 UNK         0.1400 
     48 CB         -4.3994  -17.9876  -41.9351 C.3       5 UNK        -0.1800 
     49 N          -2.7822  -16.3871  -42.8433 N.am      5 UNK        -0.5000 
     50 C          -1.7366  -15.8861  -43.5155 C.2       4 UNK         0.5000 
     51 O          -0.8090  -16.5779  -43.9452 O.2       4 UNK        -0.5000 
     52 CA         -1.7647  -14.3624  -43.7399 C.3       4 UNK         0.1400 
     53 CB         -1.5075  -13.5848  -42.4327 C.3       4 UNK        -0.1800 
     54 N          -0.8801  -13.9405  -44.8310 N.am      4 UNK        -0.5000 
     55 C           0.4571  -13.8164  -44.8395 C.2       3 UNK         0.5000 
     56 O           1.1659  -13.8941  -43.8364 O.2       3 UNK        -0.5000 
     57 CA          1.1328  -13.5622  -46.2055 C.3       3 UNK         0.1400 
     58 CB          1.9310  -14.7989  -46.6517 C.3       3 UNK        -0.1800 
     59 N           0.1833  -13.2187  -47.2651 N.am      3 UNK        -0.5000 
     60 C          -0.3906  -12.0178  -47.4228 C.2       2 UNK         0.5000 
     61 O          -0.1206  -11.0352  -46.7319 O.2       2 UNK        -0.5000 
     62 CA         -1.4693  -11.9027  -48.5194 C.3       2 UNK         0.1400 
     63 CB         -0.8684  -11.3167  -49.8061 C.3       2 UNK        -0.1800 
     64 N          -2.1228  -13.1758  -48.8387 N.am      2 UNK        -0.5000 
     65 C          -2.8829  -13.8845  -47.9923 C.2       1 UNK         0.5000 
     66 O          -3.1134  -13.5444  -46.8298 O.2       1 UNK        -0.5000 
     67 C           3.2594  -23.9556  -47.4198 C.2       11 UNK         0.5000 
     68 O           3.5684  -24.3559  -48.5426 O.2       11 UNK        -0.5000 
     69 N           2.3606  -24.5607  -46.6262 N.am      12 UNK        -0.5000 
     70 CA          1.4789  -25.6857  -46.9501 C.3       12 UNK         0.1400 
     71 CB          2.2829  -26.9580  -47.2902 C.3       12 UNK        -0.1800 
     72 C           0.4307  -25.3136  -48.0205 C.2       12 UNK         0.5000 
     73 O           0.0397  -26.1577  -48.8289 O.2       12 UNK        -0.5000 
     74 N          -0.0076  -24.0495  -47.9972 N.am      13 UNK        -0.5000 
     75 CA         -1.0650  -23.5074  -48.8405 C.3       13 UNK         0.1400 
     76 CB         -0.7322  -22.0363  -49.1420 C.3       13 UNK        -0.1800 
     77 C          -2.4198  -23.6221  -48.1207 C.2       13 UNK         0.5000 
     78 O          -2.4667  -23.7078  -46.8913 O.2       13 UNK        -0.5000 
     79 N          -3.5073  -23.5800  -48.8994 N.am      14 UNK        -0.5000 
     80 CA         -4.8922  -23.6466  -48.4161 C.3       14 UNK         0.1400 
     81 CB         -5.8213  -23.9403  -49.6057 C.3       14 UNK        -0.1800 
     82 C          -5.3705  -22.3938  -47.6461 C.2       14 UNK         0.5000 
     83 O          -6.4584  -22.4281  -47.0722 O.2       14 UNK        -0.5000 
     84 N          -4.5778  -21.3101  -47.6657 N.am      15 UNK        -0.5000 
     85 CA         -4.7226  -20.0339  -46.9452 C.3       15 UNK         0.1400 
     86 CB         -4.7542  -20.2644  -45.4221 C.3       15 UNK        -0.1800 
     87 C          -5.8948  -19.1303  -47.3792 C.2       15 UNK         0.5000 
     88 O          -5.8256  -17.9221  -47.1529 O.2       15 UNK        -0.5000 
     89 N          -6.9315  -19.7066  -47.9977 N.am      16 UNK        -0.5000 
     90 CA         -8.1637  -19.0419  -48.4337 C.3       16 UNK         0.1400 
     91 CB         -9.2145  -20.1261  -48.7228 C.3       16 UNK        -0.1800 
     92 C          -8.0027  -18.1079  -49.6525 C.2       16 UNK         0.5000 
     93 O          -8.9511  -17.4040  -50.0016 O.2       16 UNK        -0.5000 
     94 N          -6.8248  -18.1158  -50.2797 N.am      17 UNK        -0.5000 
     95 CA         -6.4327  -17.2816  -51.4080 C.3       17 UNK         0.1400 
     96 CB         -6.9114  -17.9281  -52.7217 C.3       17 UNK        -0.1800 
     97 C          -4.9053  -17.1266  -51.3739 C.2       17 UNK         0.5000 
     98 O          -4.2520  -17.7304  -50.5201 O.2       17 UNK        -0.5000 
     99 N          -4.3629  -16.3249  -52.2969 N.am      18 UNK        -0.5000 
    100 CA        -2.9256  -16.1619  -52.5073 C.3       18 UNK         0.1400 
    101 CB        -2.6555  -14.7377  -53.0310 C.3       18 UNK        -0.1800 
    102 C         -2.4001  -17.2869  -53.4225 C.2       18 UNK         0.5000 
    103 O         -2.4072  -18.4477  -53.0146 O.2       18 UNK        -0.5000 
    104 N         -1.9779  -16.9453  -54.6480 N.am      19 UNK        -0.5000 
    105 CA        -1.3441  -17.8436  -55.6226 C.3       19 UNK         0.1400 
    106 CB        -0.9700  -17.0311  -56.8716 C.3       19 UNK        -0.1800 
    107 C         -2.1690  -19.0874  -56.0197 C.2       19 UNK         0.5000 
    108 O         -1.5912  -20.0825  -56.4567 O.2       19 UNK        -0.5000 
    109 N         -3.4966  -19.0204  -55.8593 N.am      20 UNK        -0.5000 
    110 CA        -4.4098  -20.1382  -56.0917 C.3       20 UNK         0.1400 
    111 CB        -5.8318  -19.5883  -56.2807 C.3       20 UNK        -0.1800 
    112 C         -4.3852  -21.1908  -54.9647 C.2       20 UNK         0.5000 
    113 O         -4.6977  -22.3526  -55.2275 O.2       20 UNK        -0.5000 
    114 N         -4.0307  -20.7859  -53.7358 N.am      21 UNK        -0.5000 
    115 CA        -4.0734  -21.6458  -52.5500 C.3       21 UNK         0.1400 
    116 CB        -4.2031  -20.7744  -51.2970 C.3       21 UNK        -0.1800 
    117 C         -2.8545  -22.5708  -52.4164 C.2       21 UNK         0.5000 
    118 O         -2.9542  -23.5936  -51.7380 O.2       21 UNK        -0.5000 
    119 N         -1.7333  -22.1892  -53.0341 N.am      22 UNK        -0.5000 
    120 CA        -0.4882  -22.9706  -53.1070 C.3       22 UNK         0.1400 
    121 C         -0.3828  -23.8700  -54.3748 C.2       22 UNK         0.5000 
    122 N         -1.3793  -23.9103  -55.2522 N.am      22 UNK        -0.7600 
    123 O          0.6112  -24.5681  -54.5554 O.2       22 UNK        -0.5000 
    124 C124        0.7632  -22.0747  -52.9027 C.3       23 UNK        -0.0398 
    125 S125        0.7907  -20.5955  -53.9726 S.3       23 UNK        -0.2404 
    126 C126        2.1310  -19.6081  -53.2278 C.3       23 UNK        -0.0205 
    127 H127       -7.6013  -13.9962  -47.5867 H         1 UNK         0.0600 
    128 H128       -7.2923  -15.7324  -47.5289 H         1 UNK         0.0600 
    129 H129       -7.9165  -14.9959  -49.0073 H         1 UNK         0.0600 
    130 H130       -5.1020  -16.1580  -47.6025 H         1 UNK         0.3000 
    131 H131       -3.3502  -15.2270  -49.6050 H         1 UNK         0.0600 
    132 H132       -2.5192  -16.3754  -46.8835 H         1 UNK         0.0800 
    133 H133       -3.1050  -17.3517  -48.1972 H         1 UNK         0.0800 
    134 H134       -1.1366  -18.8864  -48.5989 H         1 UNK         0.0800 
    135 H135       -1.6215  -18.2569  -50.1529 H         1 UNK         0.0800 
    136 H136       -0.1798  -18.8547  -51.9180 H         1 UNK         0.1150 
    137 H137        3.9961  -19.5404  -51.2766 H         1 UNK         0.1150 
    138 H138        1.5110  -18.2729  -48.0239 H         1 UNK         0.1150 
    139 H139        4.9824  -19.3177  -49.1718 H         1 UNK         0.0800 
    140 H140        4.3695  -17.8699  -48.4128 H         1 UNK         0.0800 
    141 H141        2.2186  -21.4387  -47.5968 H         1 UNK         0.0800 
    142 H142        3.5418  -21.5505  -48.7209 H         1 UNK         0.0800 
    143 H143        4.9672  -22.7032  -47.1007 H         1 UNK         0.0600 
    144 H144        3.1422  -21.7783  -45.0963 H         1 UNK         0.3000 
    145 H145        4.0534  -24.0862  -42.5472 H         1 UNK         0.0600 
    146 H146        4.4927  -21.9778  -41.2759 H         1 UNK         0.0600 
    147 H147        4.7712  -21.1172  -42.7886 H         1 UNK         0.0600 
    148 H148        5.8457  -22.4197  -42.3066 H         1 UNK         0.0600 
    149 H149        2.3307  -21.7383  -42.8790 H         1 UNK         0.3000 
    150 H150       -0.6017  -23.6479  -43.5698 H         1 UNK         0.0600 
    151 H151       -0.3909  -23.8274  -41.0739 H         1 UNK         0.0600 
    152 H152       -1.4744  -22.5267  -41.5453 H         1 UNK         0.0600 
    153 H153        0.1604  -22.1561  -41.0009 H         1 UNK         0.0600 
    154 H154       -0.3073  -20.8822  -43.0708 H         1 UNK         0.3000 
    155 H155        0.8621  -19.8643  -46.2840 H         1 UNK         0.0600 
    156 H156       -1.5969  -20.1165  -46.5567 H         1 UNK         0.0600 
    157 H157       -1.1879  -18.4568  -46.1298 H         1 UNK         0.0600 
    158 H158       -1.8498  -19.5533  -44.9182 H         1 UNK         0.0600 
    159 H159        0.2148  -18.2129  -44.1617 H         1 UNK         0.3000 
    160 H160        3.2787  -18.3966  -42.2771 H         1 UNK         0.0600 
    161 H161        1.9443  -16.3846  -44.1474 H         1 UNK         0.0600 
    162 H162        3.6228  -16.9014  -44.2063 H         1 UNK         0.0600 
    163 H163        3.0435  -15.9643  -42.8340 H         1 UNK         0.0600 
    164 H164        0.6612  -17.0700  -42.1125 H         1 UNK         0.3000 
    165 H165       -0.5452  -19.2052  -39.5382 H         1 UNK         0.0600 
    166 H166       -0.8043  -17.0729  -38.2986 H         1 UNK         0.0600 
    167 H167        0.8767  -17.5806  -38.2736 H         1 UNK         0.0600 
    168 H168        0.3719  -16.2835  -39.3502 H         1 UNK         0.0600 
    169 H169       -1.6300  -16.8505  -40.7084 H         1 UNK         0.3000 
    170 H170       -3.0834  -18.2894  -43.5898 H         1 UNK         0.0600 
    171 H171       -4.6234  -19.0434  -41.7759 H         1 UNK         0.0600 
    172 H172       -4.4341  -17.4937  -40.9633 H         1 UNK         0.0600 
    173 H173       -5.2004  -17.5777  -42.5507 H         1 UNK         0.0600 
    174 H174       -3.4976  -15.7536  -42.5168 H         1 UNK         0.3000 
    175 H175       -2.7707  -14.1114  -44.0796 H         1 UNK         0.0600 
    176 H176       -0.5841  -13.8968  -41.9440 H         1 UNK         0.0600 
    177 H177       -1.4465  -12.5121  -42.6160 H         1 UNK         0.0600 
    178 H178       -2.3159  -13.7443  -41.7187 H         1 UNK         0.0600 
    179 H179       -1.3584  -13.8228  -45.7159 H         1 UNK         0.3000 
    180 H180        1.8315  -12.7323  -46.0807 H         1 UNK         0.0600 
    181 H181        2.7534  -14.9979  -45.9644 H         1 UNK         0.0600 
    182 H182        2.3676  -14.6570  -47.6405 H         1 UNK         0.0600 
    183 H183        1.3065  -15.6928  -46.6848 H         1 UNK         0.0600 
    184 H184       -0.0923  -13.9693  -47.8824 H         1 UNK         0.3000 
    185 H185       -2.2354  -11.2158  -48.1538 H         1 UNK         0.0600 
    186 H186       -0.3968  -10.3521  -49.6133 H         1 UNK         0.0600 
    187 H187       -0.1090  -11.9740  -50.2316 H         1 UNK         0.0600 
    188 H188       -1.6363  -11.1551  -50.5630 H         1 UNK         0.0600 
    189 H189       -1.9700  -13.5297  -49.7717 H         1 UNK         0.3000 
    190 H190        2.1681  -24.1118  -45.7409 H         1 UNK         0.3000 
    191 H191        0.9149  -25.8913  -46.0392 H         1 UNK         0.0600 
    192 H192        1.6256  -27.8252  -47.3621 H         1 UNK         0.0600 
    193 H193        3.0219  -27.1748  -46.5189 H         1 UNK         0.0600 
    194 H194        2.8061  -26.8683  -48.2424 H         1 UNK         0.0600 
    195 H195        0.2889  -23.4503  -47.2300 H         1 UNK         0.3000 
    196 H196       -1.1109  -24.0598  -49.7811 H         1 UNK         0.0600 
    197 H197       -0.7147  -21.4347  -48.2345 H         1 UNK         0.0600 
    198 H198        0.2476  -21.9431  -49.6092 H         1 UNK         0.0600 
    199 H199       -1.4603  -21.5923  -49.8211 H         1 UNK         0.0600 
    200 H200       -3.3794  -23.5623  -49.9089 H         1 UNK         0.3000 
    201 H201       -4.9611  -24.4873  -47.7227 H         1 UNK         0.0600 
    202 H202       -6.8485  -24.0921  -49.2715 H         1 UNK         0.0600 
    203 H203       -5.5165  -24.8461  -50.1303 H         1 UNK         0.0600 
    204 H204       -5.8323  -23.1241  -50.3271 H         1 UNK         0.0600 
    205 H205       -3.7261  -21.3989  -48.1984 H         1 UNK         0.3000 
    206 H206       -3.8188  -19.4690  -47.1729 H         1 UNK         0.0600 
    207 H207       -3.8913  -20.8408  -45.0887 H         1 UNK         0.0600 
    208 H208       -4.7452  -19.3156  -44.8860 H         1 UNK         0.0600 
    209 H209       -5.6517  -20.7990  -45.1103 H         1 UNK         0.0600 
    210 H210       -6.9171  -20.7175  -48.0624 H         1 UNK         0.3000 
    211 H211       -8.5245  -18.4271  -47.6067 H         1 UNK         0.0600 
    212 H212       -8.9017  -20.7791  -49.5386 H         1 UNK         0.0600 
    213 H213      -10.1711  -19.6836  -49.0037 H         1 UNK         0.0600 
    214 H214       -9.3920  -20.7477  -47.8448 H         1 UNK         0.0600 
    215 H215       -6.0614  -18.6502  -49.8848 H         1 UNK         0.3000 
    216 H216       -6.8750  -16.2893  -51.2986 H         1 UNK         0.0600 
    217 H217       -7.9927  -18.0655  -52.7230 H         1 UNK         0.0600 
    218 H218       -6.4526  -18.9045  -52.8802 H         1 UNK         0.0600 
    219 H219       -6.6681  -17.3051  -53.5826 H         1 UNK         0.0600 
    220 H220       -4.9675  -15.8661  -52.9624 H         1 UNK         0.3000 
    221 H221       -2.3997  -16.2661  -51.5565 H         1 UNK         0.0600 
    222 H222       -1.5896  -14.5717  -53.1938 H         1 UNK         0.0600 
    223 H223       -3.1766  -14.5365  -53.9678 H         1 UNK         0.0600 
    224 H224       -2.9857  -13.9919  -52.3073 H         1 UNK         0.0600 
    225 H225       -2.0275  -15.9724  -54.9129 H         1 UNK         0.3000 
    226 H226       -0.4203  -18.2045  -55.1685 H         1 UNK         0.0600 
    227 H227       -0.2925  -16.2138  -56.6238 H         1 UNK         0.0600 
    228 H228       -0.4641  -17.6564  -57.6087 H         1 UNK         0.0600 
    229 H229       -1.8516  -16.6050  -57.3520 H         1 UNK         0.0600 
    230 H230       -3.8952  -18.1648  -55.5034 H         1 UNK         0.3000 
    231 H231       -4.1183  -20.6405  -57.0168 H         1 UNK         0.0600 
    232 H232       -6.5394  -20.3943  -56.4796 H         1 UNK         0.0600 
    233 H233       -5.8796  -18.9005  -57.1251 H         1 UNK         0.0600 
    234 H234       -6.1805  -19.0575  -55.3951 H         1 UNK         0.0600 
    235 H235       -3.6870  -19.8407  -53.5948 H         1 UNK         0.3000 
    236 H236       -4.9598  -22.2811  -52.6082 H         1 UNK         0.0600 
    237 H237       -5.1166  -20.1842  -51.3256 H         1 UNK         0.0600 
    238 H238       -4.2443  -21.3809  -50.3971 H         1 UNK         0.0600 
    239 H239       -3.3549  -20.0986  -51.1885 H         1 UNK         0.0600 
    240 H240       -1.7327  -21.3198  -53.5496 H         1 UNK         0.3000 
    241 H241       -0.4850  -23.6804  -52.2778 H         1 UNK         0.0600 
    242 H242       -2.2107  -23.3574  -55.1138 H         1 UNK         0.3800 
    243 H243       -1.3003  -24.5029  -56.0636 H         1 UNK         0.3800 
    244 H244        1.6864  -22.6384  -53.0465 H         1 UNK         0.0800 
    245 H245        0.7842  -21.7428  -51.8659 H         1 UNK         0.0800 
    246 H246        2.2359  -18.6836  -53.7966 H         1 UNK         0.0800 
    247 H247        3.0653  -20.1567  -53.3575 H         1 UNK         0.0800 
@<TRIPOS>BOND
     1    1    2 1    
     2    1  127 1    
     3    1  128 1    
     4    1  129 1    
     5    2    3 2    
     6    2    4 am   BACKBONE|DICT|INTERRES
     7    4    5 1    
     8    4  130 1    
     9    5    6 1    
    10    5   65 1    
    11    5  131 1    
    12    6    7 1    
    13    6  132 1    
    14    6  133 1    
    15    7    8 1    
    16    8    9 1    
    17    8  134 1    
    18    8  135 1    
    19    9   10 ar   
    20    9   14 ar   
    21   10   11 ar   
    22   10  136 1    
    23   11   12 ar   
    24   11  126 1    
    25   12   13 ar   
    26   12  137 1    
    27   13   14 ar   
    28   13   15 1    
    29   14  138 1    
    30   15   16 1    
    31   15  139 1    
    32   15  140 1    
    33   16   17 1    
    34   17   18 1    
    35   17  141 1    
    36   17  142 1    
    37   18   19 1    
    38   18   67 1    
    39   18  143 1    
    40   19   20 am   BACKBONE|DICT|INTERRES
    41   19  144 1    
    42   20   21 2    
    43   20   22 1    
    44   22   23 1    
    45   22   24 1    
    46   22  145 1    
    47   23  146 1    
    48   23  147 1    
    49   23  148 1    
    50   24   25 am   BACKBONE|DICT|INTERRES
    51   24  149 1    
    52   25   26 2    
    53   25   27 1    
    54   27   28 1    
    55   27   29 1    
    56   27  150 1    
    57   28  151 1    
    58   28  152 1    
    59   28  153 1    
    60   29   30 am   BACKBONE|DICT|INTERRES
    61   29  154 1    
    62   30   31 2    
    63   30   32 1    
    64   32   33 1    
    65   32   34 1    
    66   32  155 1    
    67   33  156 1    
    68   33  157 1    
    69   33  158 1    
    70   34   35 am   BACKBONE|DICT|INTERRES
    71   34  159 1    
    72   35   36 2    
    73   35   37 1    
    74   37   38 1    
    75   37   39 1    
    76   37  160 1    
    77   38  161 1    
    78   38  162 1    
    79   38  163 1    
    80   39   40 am   BACKBONE|DICT|INTERRES
    81   39  164 1    
    82   40   41 2    
    83   40   42 1    
    84   42   43 1    
    85   42   44 1    
    86   42  165 1    
    87   43  166 1    
    88   43  167 1    
    89   43  168 1    
    90   44   45 am   BACKBONE|DICT|INTERRES
    91   44  169 1    
    92   45   46 2    
    93   45   47 1    
    94   47   48 1    
    95   47   49 1    
    96   47  170 1    
    97   48  171 1    
    98   48  172 1    
    99   48  173 1    
   100   49   50 am   BACKBONE|DICT|INTERRES
   101   49  174 1    
   102   50   51 2    
   103   50   52 1    
   104   52   53 1    
   105   52   54 1    
   106   52  175 1    
   107   53  176 1    
   108   53  177 1    
   109   53  178 1    
   110   54   55 am   BACKBONE|DICT|INTERRES
   111   54  179 1    
   112   55   56 2    
   113   55   57 1    
   114   57   58 1    
   115   57   59 1    
   116   57  180 1    
   117   58  181 1    
   118   58  182 1    
   119   58  183 1    
   120   59   60 am   BACKBONE|DICT|INTERRES
   121   59  184 1    
   122   60   61 2    
   123   60   62 1    
   124   62   63 1    
   125   62   64 1    
   126   62  185 1    
   127   63  186 1    
   128   63  187 1    
   129   63  188 1    
   130   64   65 am   BACKBONE|DICT|INTERRES
   131   64  189 1    
   132   65   66 2    
   133   67   68 2    
   134   67   69 am   BACKBONE|DICT|INTERRES
   135   69   70 1    
   136   69  190 1    
   137   70   71 1    
   138   70   72 1    
   139   70  191 1    
   140   71  192 1    
   141   71  193 1    
   142   71  194 1    
   143   72   73 2    
   144   72   74 am   BACKBONE|DICT|INTERRES
   145   74   75 1    
   146   74  195 1    
   147   75   76 1    
   148   75   77 1    
   149   75  196 1    
   150   76  197 1    
   151   76  198 1    
   152   76  199 1    
   153   77   78 2    
   154   77   79 am   BACKBONE|DICT|INTERRES
   155   79   80 1    
   156   79  200 1    
   157   80   81 1    
   158   80   82 1    
   159   80  201 1    
   160   81  202 1    
   161   81  203 1    
   162   81  204 1    
   163   82   83 2    
   164   82   84 am   BACKBONE|DICT|INTERRES
   165   84   85 1    
   166   84  205 1    
   167   85   86 1    
   168   85   87 1    
   169   85  206 1    
   170   86  207 1    
   171   86  208 1    
   172   86  209 1    
   173   87   88 2    
   174   87   89 am   BACKBONE|DICT|INTERRES
   175   89   90 1    
   176   89  210 1    
   177   90   91 1    
   178   90   92 1    
   179   90  211 1    
   180   91  212 1    
   181   91  213 1    
   182   91  214 1    
   183   92   93 2    
   184   92   94 am   BACKBONE|DICT|INTERRES
   185   94   95 1    
   186   94  215 1    
   187   95   96 1    
   188   95   97 1    
   189   95  216 1    
   190   96  217 1    
   191   96  218 1    
   192   96  219 1    
   193   97   98 2    
   194   97   99 am   BACKBONE|DICT|INTERRES
   195   99  100 1    
   196   99  220 1    
   197  100  101 1    
   198  100  102 1    
   199  100  221 1    
   200  101  222 1    
   201  101  223 1    
   202  101  224 1    
   203  102  103 2    
   204  102  104 am   BACKBONE|DICT|INTERRES
   205  104  105 1    
   206  104  225 1    
   207  105  106 1    
   208  105  107 1    
   209  105  226 1    
   210  106  227 1    
   211  106  228 1    
   212  106  229 1    
   213  107  108 2    
   214  107  109 am   BACKBONE|DICT|INTERRES
   215  109  110 1    
   216  109  230 1    
   217  110  111 1    
   218  110  112 1    
   219  110  231 1    
   220  111  232 1    
   221  111  233 1    
   222  111  234 1    
   223  112  113 2    
   224  112  114 am   BACKBONE|DICT|INTERRES
   225  114  115 1    
   226  114  235 1    
   227  115  116 1    
   228  115  117 1    
   229  115  236 1    
   230  116  237 1    
   231  116  238 1    
   232  116  239 1    
   233  117  118 2    
   234  117  119 am   BACKBONE|DICT|INTERRES
   235  119  120 1    
   236  119  240 1    
   237  120  121 1    
   238  120  124 1    
   239  120  241 1    
   240  121  122 am   BACKBONE|DICT|INTERRES
   241  121  123 2    
   242  122  242 1    
   243  122  243 1    
   244  124  125 1    
   245  124  244 1    
   246  124  245 1    
   247  125  126 1    
   248  126  246 1    
   249  126  247 1    
@<TRIPOS>SUBSTRUCTURE
     1 UNK         1 GROUP             0       ****    0 ROOT    
