@<TRIPOS>MOLECULE
3R540
247   249    1
SMALL
USER_CHARGES


@<TRIPOS>ATOM
      1 CA         -1.4098  -15.4965  -49.2279 C.3       0 UNK        -0.1800 
      2 C          -0.6552  -14.1979  -49.4670 C.2       0 UNK         0.5000 
      3 O          -0.8575  -13.2288  -48.7355 O.2       0 UNK        -0.5000 
      4 N           0.2350  -14.1777  -50.4698 N.am      1 UNK        -0.5000 
      5 CA          1.0559  -13.0198  -50.8656 C.3       1 UNK         0.1400 
      6 C6          1.7571  -13.2388  -52.2330 C.3       23 UNK        -0.0398 
      7 S7          2.9452  -14.6294  -52.2626 S.3       23 UNK        -0.2404 
      8 C8          1.9352  -15.9663  -52.9815 C.3       23 UNK        -0.0205 
      9 C9          2.2550  -17.3189  -52.3598 C.ar      23 UNK        -0.0193 
     10 C10         2.6143  -18.4098  -53.1582 C.ar      23 UNK        -0.1150 
     11 C11         2.8994  -19.6507  -52.5774 C.ar      23 UNK        -0.0193 
     12 C12         2.8179  -19.7966  -51.1892 C.ar      23 UNK        -0.1150 
     13 C13         2.4606  -18.7158  -50.3808 C.ar      23 UNK        -0.0193 
     14 C14         2.1785  -17.4833  -50.9745 C.ar      23 UNK        -0.1150 
     15 C15         2.4414  -18.8685  -48.8664 C.3       23 UNK        -0.0205 
     16 S16         0.9730  -18.1253  -48.0894 S.3       23 UNK        -0.2404 
     17 C17        -0.3861  -19.2191  -48.6246 C.3       23 UNK        -0.0398 
     18 CA         -0.2270  -20.7175  -48.2537 C.3       11 UNK         0.1400 
     19 N           0.2492  -20.9432  -46.8823 N.am      11 UNK        -0.5000 
     20 C           0.6072  -22.1393  -46.3911 C.2       10 UNK         0.5000 
     21 O           0.6328  -23.1689  -47.0638 O.2       10 UNK        -0.5000 
     22 CA          0.9352  -22.2173  -44.8905 C.3       10 UNK         0.1400 
     23 CB          2.4144  -21.8967  -44.6281 C.3       10 UNK        -0.1800 
     24 N           0.0750  -21.3323  -44.1046 N.am      10 UNK        -0.5000 
     25 C          -1.2118  -21.5933  -43.8313 C.2       9 UNK         0.5000 
     26 O          -1.7750  -22.6357  -44.1659 O.2       9 UNK        -0.5000 
     27 CA         -2.0197  -20.4974  -43.1049 C.3       9 UNK         0.1400 
     28 CB         -1.8591  -20.6267  -41.5833 C.3       9 UNK        -0.1800 
     29 N          -1.6567  -19.1398  -43.5126 N.am      9 UNK        -0.5000 
     30 C          -1.7637  -18.6625  -44.7602 C.2       8 UNK         0.5000 
     31 O          -2.2588  -19.2951  -45.6913 O.2       8 UNK        -0.5000 
     32 CA         -1.1495  -17.2784  -45.0341 C.3       8 UNK         0.1400 
     33 CB         -2.1828  -16.1681  -44.8016 C.3       8 UNK        -0.1800 
     34 N           0.0575  -17.0081  -44.2478 N.am      8 UNK        -0.5000 
     35 C           1.1703  -17.7577  -44.2450 C.2       7 UNK         0.5000 
     36 O           1.3003  -18.7864  -44.9045 O.2       7 UNK        -0.5000 
     37 CA          2.3010  -17.3270  -43.2986 C.3       7 UNK         0.1400 
     38 CB          3.1105  -16.1644  -43.8868 C.3       7 UNK        -0.1800 
     39 N           1.7720  -16.9493  -41.9914 N.am      7 UNK        -0.5000 
     40 C           1.4320  -17.8269  -41.0378 C.2       6 UNK         0.5000 
     41 O           1.5991  -19.0428  -41.1349 O.2       6 UNK        -0.5000 
     42 CA          0.7769  -17.2511  -39.7683 C.3       6 UNK         0.1400 
     43 CB          1.8444  -16.9125  -38.7170 C.3       6 UNK        -0.1800 
     44 N          -0.0314  -16.0595  -40.0330 N.am      6 UNK        -0.5000 
     45 C          -1.1736  -16.0591  -40.7338 C.2       5 UNK         0.5000 
     46 O          -1.6801  -17.0711  -41.2199 O.2       5 UNK        -0.5000 
     47 CA         -1.8341  -14.6865  -40.9646 C.3       5 UNK         0.1400 
     48 CB         -2.7256  -14.3109  -39.7716 C.3       5 UNK        -0.1800 
     49 N          -0.8814  -13.5992  -41.2209 N.am      5 UNK        -0.5000 
     50 C          -0.0183  -13.5663  -42.2450 C.2       4 UNK         0.5000 
     51 O           0.1474  -14.5017  -43.0283 O.2       4 UNK        -0.5000 
     52 CA          0.8284  -12.2931  -42.4108 C.3       4 UNK         0.1400 
     53 CB          2.2533  -12.5287  -41.8875 C.3       4 UNK        -0.1800 
     54 N           0.8982  -11.8801  -43.8129 N.am      4 UNK        -0.5000 
     55 C          -0.1368  -11.4505  -44.5445 C.2       3 UNK         0.5000 
     56 O          -1.2687  -11.2919  -44.0845 O.2       3 UNK        -0.5000 
     57 CA          0.1104  -11.1343  -46.0341 C.3       3 UNK         0.1400 
     58 CB          0.5130   -9.6597  -46.2254 C.3       3 UNK        -0.1800 
     59 N           1.0355  -12.0311  -46.7416 N.am      3 UNK        -0.5000 
     60 C           2.3601  -12.1884  -46.5866 C.2       2 UNK         0.5000 
     61 O           3.0140  -11.6365  -45.7012 O.2       2 UNK        -0.5000 
     62 CA          3.0879  -13.1230  -47.5785 C.3       2 UNK         0.1400 
     63 CB          3.4436  -14.4541  -46.9031 C.3       2 UNK        -0.1800 
     64 N           2.3165  -13.4151  -48.7857 N.am      2 UNK        -0.5000 
     65 C           2.0449  -12.5478  -49.7712 C.2       1 UNK         0.5000 
     66 O           2.5101  -11.4086  -49.8227 O.2       1 UNK        -0.5000 
     67 C          -1.5472  -21.4725  -48.5172 C.2       11 UNK         0.5000 
     68 O          -1.6988  -22.0902  -49.5706 O.2       11 UNK        -0.5000 
     69 N          -2.4573  -21.4337  -47.5337 N.am      12 UNK        -0.5000 
     70 CA         -3.7218  -22.1661  -47.5125 C.3       12 UNK         0.1400 
     71 CB         -4.5603  -21.6938  -46.3155 C.3       12 UNK        -0.1800 
     72 C          -3.5269  -23.6897  -47.4832 C.2       12 UNK         0.5000 
     73 O          -4.2128  -24.4000  -48.2180 O.2       12 UNK        -0.5000 
     74 N          -2.5678  -24.1639  -46.6752 N.am      13 UNK        -0.5000 
     75 CA         -2.1712  -25.5715  -46.6082 C.3       13 UNK         0.1400 
     76 CB         -1.2096  -25.7869  -45.4304 C.3       13 UNK        -0.1800 
     77 C          -1.5509  -26.0757  -47.9249 C.2       13 UNK         0.5000 
     78 O          -1.8617  -27.1884  -48.3494 O.2       13 UNK        -0.5000 
     79 N          -0.7212  -25.2382  -48.5641 N.am      14 UNK        -0.5000 
     80 CA         -0.1164  -25.4987  -49.8717 C.3       14 UNK         0.1400 
     81 CB          0.9805  -24.4586  -50.1454 C.3       14 UNK        -0.1800 
     82 C          -1.1507  -25.5231  -51.0137 C.2       14 UNK         0.5000 
     83 O          -1.0424  -26.3597  -51.9103 O.2       14 UNK        -0.5000 
     84 N          -2.1454  -24.6266  -50.9491 N.am      15 UNK        -0.5000 
     85 CA         -3.2947  -24.5904  -51.8575 C.3       15 UNK         0.1400 
     86 CB         -4.0324  -23.2538  -51.6788 C.3       15 UNK        -0.1800 
     87 C          -4.2778  -25.7565  -51.6356 C.2       15 UNK         0.5000 
     88 O          -4.9786  -26.1413  -52.5721 O.2       15 UNK        -0.5000 
     89 N          -4.3227  -26.2678  -50.3963 N.am      16 UNK        -0.5000 
     90 CA         -5.2722  -27.2436  -49.8539 C.3       16 UNK         0.1400 
     91 CB         -5.1198  -28.6146  -50.5446 C.3       16 UNK        -0.1800 
     92 C          -6.7185  -26.7034  -49.8646 C.2       16 UNK         0.5000 
     93 O          -7.6599  -27.4470  -50.1485 O.2       16 UNK        -0.5000 
     94 N          -6.8606  -25.4057  -49.5697 N.am      17 UNK        -0.5000 
     95 CA         -8.1040  -24.6420  -49.6142 C.3       17 UNK         0.1400 
     96 CB         -8.5384  -24.4134  -51.0816 C.3       17 UNK        -0.1800 
     97 C          -7.8959  -23.3410  -48.8174 C.2       17 UNK         0.5000 
     98 O          -7.2933  -23.3815  -47.7441 O.2       17 UNK        -0.5000 
     99 N          -8.3764  -22.2104  -49.3495 N.am      18 UNK        -0.5000 
    100 CA        -8.0527  -20.8622  -48.8807 C.3       18 UNK         0.1400 
    101 CB        -9.0989  -19.8867  -49.4437 C.3       18 UNK        -0.1800 
    102 C         -6.6364  -20.4531  -49.3306 C.2       18 UNK         0.5000 
    103 O         -6.0578  -21.1026  -50.2047 O.2       18 UNK        -0.5000 
    104 N         -6.1091  -19.3608  -48.7616 N.am      19 UNK        -0.5000 
    105 CA        -4.7793  -18.7949  -49.0338 C.3       19 UNK         0.1400 
    106 CB        -4.4128  -17.8297  -47.8913 C.3       19 UNK        -0.1800 
    107 C         -4.6463  -18.1317  -50.4262 C.2       19 UNK         0.5000 
    108 O         -4.1078  -17.0314  -50.5447 O.2       19 UNK        -0.5000 
    109 N         -5.1225  -18.8148  -51.4705 N.am      20 UNK        -0.5000 
    110 CA        -5.1972  -18.3647  -52.8604 C.3       20 UNK         0.1400 
    111 CB        -6.3347  -19.1394  -53.5514 C.3       20 UNK        -0.1800 
    112 C         -3.8543  -18.4792  -53.6170 C.2       20 UNK         0.5000 
    113 O         -3.8472  -18.8652  -54.7866 O.2       20 UNK        -0.5000 
    114 N         -2.7499  -18.1261  -52.9409 N.am      21 UNK        -0.5000 
    115 CA        -1.3668  -18.1171  -53.4317 C.3       21 UNK         0.1400 
    116 CB        -1.1797  -16.9967  -54.4774 C.3       21 UNK        -0.1800 
    117 C         -0.9015  -19.4999  -53.9371 C.2       21 UNK         0.5000 
    118 O         -0.5144  -19.6303  -55.0997 O.2       21 UNK        -0.5000 
    119 N         -0.9732  -20.4940  -53.0388 N.am      22 UNK        -0.5000 
    120 CA        -0.6341  -21.9138  -53.2459 C.3       22 UNK         0.1400 
    121 C         -1.3585  -22.5911  -54.4530 C.2       22 UNK         0.5000 
    122 N         -0.7404  -23.5376  -55.1481 N.am      22 UNK        -0.7600 
    123 O         -2.5249  -22.3162  -54.7214 O.2       22 UNK        -0.5000 
    124 C124        0.8853  -22.2288  -53.0934 C.3       23 UNK        -0.0398 
    125 S125        1.9802  -21.5619  -54.3970 S.3       23 UNK        -0.2404 
    126 C126        3.3422  -20.8248  -53.4399 C.3       23 UNK        -0.0205 
    127 H127       -1.1541  -16.2607  -49.9622 H         1 UNK         0.0600 
    128 H128       -2.4828  -15.3153  -49.2821 H         1 UNK         0.0600 
    129 H129       -1.1820  -15.8843  -48.2354 H         1 UNK         0.0600 
    130 H130        0.3684  -15.0091  -51.0240 H         1 UNK         0.3000 
    131 H131        0.3597  -12.1895  -51.0022 H         1 UNK         0.0600 
    132 H132        2.2939  -12.3345  -52.5251 H         1 UNK         0.0800 
    133 H133        1.0083  -13.3863  -53.0124 H         1 UNK         0.0800 
    134 H134        0.8764  -15.7623  -52.8277 H         1 UNK         0.0800 
    135 H135        2.0950  -15.9835  -54.0607 H         1 UNK         0.0800 
    136 H136        2.6775  -18.2973  -54.2316 H         1 UNK         0.1150 
    137 H137        3.0551  -20.7487  -50.7355 H         1 UNK         0.1150 
    138 H138        1.9185  -16.6408  -50.3506 H         1 UNK         0.1150 
    139 H139        2.5218  -19.9149  -48.5703 H         1 UNK         0.0800 
    140 H140        3.3257  -18.3729  -48.4642 H         1 UNK         0.0800 
    141 H141       -0.5018  -19.1118  -49.7044 H         1 UNK         0.0800 
    142 H142       -1.2972  -18.8106  -48.1853 H         1 UNK         0.0800 
    143 H143        0.5200  -21.1470  -48.9242 H         1 UNK         0.0600 
    144 H144        0.3063  -20.1311  -46.2781 H         1 UNK         0.3000 
    145 H145        0.7591  -23.2436  -44.5619 H         1 UNK         0.0600 
    146 H146        2.6401  -21.9138  -43.5617 H         1 UNK         0.0600 
    147 H147        3.0580  -22.6342  -45.1091 H         1 UNK         0.0600 
    148 H148        2.6997  -20.9197  -45.0166 H         1 UNK         0.0600 
    149 H149        0.4543  -20.4207  -43.8789 H         1 UNK         0.3000 
    150 H150       -3.0730  -20.6455  -43.3511 H         1 UNK         0.0600 
    151 H151       -2.1500  -21.6210  -41.2423 H         1 UNK         0.0600 
    152 H152       -2.4859  -19.9057  -41.0580 H         1 UNK         0.0600 
    153 H153       -0.8269  -20.4607  -41.2729 H         1 UNK         0.0600 
    154 H154       -1.2909  -18.5272  -42.7931 H         1 UNK         0.3000 
    155 H155       -0.8657  -17.2490  -46.0853 H         1 UNK         0.0600 
    156 H156       -2.5235  -16.1503  -43.7670 H         1 UNK         0.0600 
    157 H157       -3.0597  -16.3139  -45.4336 H         1 UNK         0.0600 
    158 H158       -1.7702  -15.1871  -45.0387 H         1 UNK         0.0600 
    159 H159        0.0525  -16.1488  -43.7008 H         1 UNK         0.3000 
    160 H160        2.9788  -18.1747  -43.1761 H         1 UNK         0.0600 
    161 H161        2.4874  -15.2926  -44.0877 H         1 UNK         0.0600 
    162 H162        3.5768  -16.4643  -44.8256 H         1 UNK         0.0600 
    163 H163        3.9094  -15.8573  -43.2120 H         1 UNK         0.0600 
    164 H164        1.5408  -15.9749  -41.8608 H         1 UNK         0.3000 
    165 H165        0.1218  -18.0216  -39.3559 H         1 UNK         0.0600 
    166 H166        1.3884  -16.5745  -37.7862 H         1 UNK         0.0600 
    167 H167        2.4511  -17.7878  -38.4811 H         1 UNK         0.0600 
    168 H168        2.5192  -16.1294  -39.0652 H         1 UNK         0.0600 
    169 H169        0.3137  -15.1818  -39.6734 H         1 UNK         0.3000 
    170 H170       -2.4724  -14.7743  -41.8453 H         1 UNK         0.0600 
    171 H171       -3.4580  -15.0939  -39.5696 H         1 UNK         0.0600 
    172 H172       -2.1421  -14.1645  -38.8618 H         1 UNK         0.0600 
    173 H173       -3.2802  -13.3929  -39.9668 H         1 UNK         0.0600 
    174 H174       -0.9479  -12.7953  -40.6133 H         1 UNK         0.3000 
    175 H175        0.3731  -11.4826  -41.8382 H         1 UNK         0.0600 
    176 H176        2.2420  -12.8269  -40.8384 H         1 UNK         0.0600 
    177 H177        2.7636  -13.3134  -42.4475 H         1 UNK         0.0600 
    178 H178        2.8543  -11.6221  -41.9609 H         1 UNK         0.0600 
    179 H179        1.7970  -11.9583  -44.2784 H         1 UNK         0.3000 
    180 H180       -0.8496  -11.2718  -46.5344 H         1 UNK         0.0600 
    181 H181        1.4615   -9.4295  -45.7395 H         1 UNK         0.0600 
    182 H182       -0.2390   -8.9933  -45.8013 H         1 UNK         0.0600 
    183 H183        0.6081   -9.4116  -47.2826 H         1 UNK         0.0600 
    184 H184        0.5904  -12.5641  -47.4821 H         1 UNK         0.3000 
    185 H185        4.0148  -12.6279  -47.8750 H         1 UNK         0.0600 
    186 H186        4.0460  -14.2878  -46.0092 H         1 UNK         0.0600 
    187 H187        2.5487  -15.0030  -46.6065 H         1 UNK         0.0600 
    188 H188        4.0231  -15.0939  -47.5692 H         1 UNK         0.0600 
    189 H189        1.8919  -14.3289  -48.8363 H         1 UNK         0.3000 
    190 H190       -2.2729  -20.8348  -46.7317 H         1 UNK         0.3000 
    191 H191       -4.2610  -21.9305  -48.4293 H         1 UNK         0.0600 
    192 H192       -4.0464  -21.8644  -45.3704 H         1 UNK         0.0600 
    193 H193       -5.5115  -22.2221  -46.2662 H         1 UNK         0.0600 
    194 H194       -4.7837  -20.6303  -46.3845 H         1 UNK         0.0600 
    195 H195       -2.0848  -23.5224  -46.0569 H         1 UNK         0.3000 
    196 H196       -3.0716  -26.1600  -46.4196 H         1 UNK         0.0600 
    197 H197       -0.9477  -26.8409  -45.3301 H         1 UNK         0.0600 
    198 H198       -1.6611  -25.4729  -44.4892 H         1 UNK         0.0600 
    199 H199       -0.2815  -25.2308  -45.5592 H         1 UNK         0.0600 
    200 H200       -0.4591  -24.3690  -48.1072 H         1 UNK         0.3000 
    201 H201        0.3550  -26.4829  -49.8305 H         1 UNK         0.0600 
    202 H202        1.7383  -24.4708  -49.3618 H         1 UNK         0.0600 
    203 H203        0.5753  -23.4484  -50.2002 H         1 UNK         0.0600 
    204 H204        1.4876  -24.6668  -51.0878 H         1 UNK         0.0600 
    205 H205       -2.1194  -23.9195  -50.2207 H         1 UNK         0.3000 
    206 H206       -2.9291  -24.6525  -52.8841 H         1 UNK         0.0600 
    207 H207       -3.3863  -22.4012  -51.8825 H         1 UNK         0.0600 
    208 H208       -4.8838  -23.1807  -52.3565 H         1 UNK         0.0600 
    209 H209       -4.4137  -23.1440  -50.6639 H         1 UNK         0.0600 
    210 H210       -3.7461  -25.8133  -49.6982 H         1 UNK         0.3000 
    211 H211       -5.0036  -27.3726  -48.8044 H         1 UNK         0.0600 
    212 H212       -5.4370  -28.5837  -51.5871 H         1 UNK         0.0600 
    213 H213       -5.7227  -29.3722  -50.0429 H         1 UNK         0.0600 
    214 H214       -4.0843  -28.9542  -50.5178 H         1 UNK         0.0600 
    215 H215       -6.0461  -24.8877  -49.2527 H         1 UNK         0.3000 
    216 H216       -8.8811  -25.2098  -49.0992 H         1 UNK         0.0600 
    217 H217       -7.8010  -23.8258  -51.6308 H         1 UNK         0.0600 
    218 H218       -9.4966  -23.8959  -51.1394 H         1 UNK         0.0600 
    219 H219       -8.6646  -25.3570  -51.6121 H         1 UNK         0.0600 
    220 H220       -8.8252  -22.2673  -50.2515 H         1 UNK         0.3000 
    221 H221       -8.0928  -20.8405  -47.7896 H         1 UNK         0.0600 
    222 H222      -10.1065  -20.1719  -49.1404 H         1 UNK         0.0600 
    223 H223       -9.0737  -19.8539  -50.5339 H         1 UNK         0.0600 
    224 H224       -8.9294  -18.8720  -49.0816 H         1 UNK         0.0600 
    225 H225       -6.6655  -18.8566  -48.0865 H         1 UNK         0.3000 
    226 H226       -4.0564  -19.6107  -49.0176 H         1 UNK         0.0600 
    227 H227       -4.4873  -18.3155  -46.9191 H         1 UNK         0.0600 
    228 H228       -3.3876  -17.4720  -47.9901 H         1 UNK         0.0600 
    229 H229       -5.0659  -16.9564  -47.8784 H         1 UNK         0.0600 
    230 H230       -5.4988  -19.7400  -51.2745 H         1 UNK         0.3000 
    231 H231       -5.4683  -17.3070  -52.8642 H         1 UNK         0.0600 
    232 H232       -6.1164  -20.2070  -53.6031 H         1 UNK         0.0600 
    233 H233       -6.4942  -18.7839  -54.5701 H         1 UNK         0.0600 
    234 H234       -7.2770  -19.0164  -53.0170 H         1 UNK         0.0600 
    235 H235       -2.8947  -17.7770  -51.9999 H         1 UNK         0.3000 
    236 H236       -0.7344  -17.8752  -52.5762 H         1 UNK         0.0600 
    237 H237       -0.1469  -16.9522  -54.8235 H         1 UNK         0.0600 
    238 H238       -1.8060  -17.1517  -55.3562 H         1 UNK         0.0600 
    239 H239       -1.4270  -16.0212  -54.0588 H         1 UNK         0.0600 
    240 H240       -1.3638  -20.2799  -52.1344 H         1 UNK         0.3000 
    241 H241       -1.0972  -22.4024  -52.3897 H         1 UNK         0.0600 
    242 H242       -1.2306  -23.9825  -55.9080 H         1 UNK         0.3800 
    243 H243        0.2245  -23.7714  -54.9767 H         1 UNK         0.3800 
    244 H244        1.0395  -23.3073  -53.0508 H         1 UNK         0.0800 
    245 H245        1.2180  -21.8642  -52.1229 H         1 UNK         0.0800 
    246 H246        3.8089  -21.5998  -52.8299 H         1 UNK         0.0800 
    247 H247        4.1115  -20.4843  -54.1344 H         1 UNK         0.0800 
@<TRIPOS>BOND
     1    1    2 1    
     2    1  127 1    
     3    1  128 1    
     4    1  129 1    
     5    2    3 2    
     6    2    4 am   BACKBONE|DICT|INTERRES
     7    4    5 1    
     8    4  130 1    
     9    5    6 1    
    10    5   65 1    
    11    5  131 1    
    12    6    7 1    
    13    6  132 1    
    14    6  133 1    
    15    7    8 1    
    16    8    9 1    
    17    8  134 1    
    18    8  135 1    
    19    9   10 ar   
    20    9   14 ar   
    21   10   11 ar   
    22   10  136 1    
    23   11   12 ar   
    24   11  126 1    
    25   12   13 ar   
    26   12  137 1    
    27   13   14 ar   
    28   13   15 1    
    29   14  138 1    
    30   15   16 1    
    31   15  139 1    
    32   15  140 1    
    33   16   17 1    
    34   17   18 1    
    35   17  141 1    
    36   17  142 1    
    37   18   19 1    
    38   18   67 1    
    39   18  143 1    
    40   19   20 am   BACKBONE|DICT|INTERRES
    41   19  144 1    
    42   20   21 2    
    43   20   22 1    
    44   22   23 1    
    45   22   24 1    
    46   22  145 1    
    47   23  146 1    
    48   23  147 1    
    49   23  148 1    
    50   24   25 am   BACKBONE|DICT|INTERRES
    51   24  149 1    
    52   25   26 2    
    53   25   27 1    
    54   27   28 1    
    55   27   29 1    
    56   27  150 1    
    57   28  151 1    
    58   28  152 1    
    59   28  153 1    
    60   29   30 am   BACKBONE|DICT|INTERRES
    61   29  154 1    
    62   30   31 2    
    63   30   32 1    
    64   32   33 1    
    65   32   34 1    
    66   32  155 1    
    67   33  156 1    
    68   33  157 1    
    69   33  158 1    
    70   34   35 am   BACKBONE|DICT|INTERRES
    71   34  159 1    
    72   35   36 2    
    73   35   37 1    
    74   37   38 1    
    75   37   39 1    
    76   37  160 1    
    77   38  161 1    
    78   38  162 1    
    79   38  163 1    
    80   39   40 am   BACKBONE|DICT|INTERRES
    81   39  164 1    
    82   40   41 2    
    83   40   42 1    
    84   42   43 1    
    85   42   44 1    
    86   42  165 1    
    87   43  166 1    
    88   43  167 1    
    89   43  168 1    
    90   44   45 am   BACKBONE|DICT|INTERRES
    91   44  169 1    
    92   45   46 2    
    93   45   47 1    
    94   47   48 1    
    95   47   49 1    
    96   47  170 1    
    97   48  171 1    
    98   48  172 1    
    99   48  173 1    
   100   49   50 am   BACKBONE|DICT|INTERRES
   101   49  174 1    
   102   50   51 2    
   103   50   52 1    
   104   52   53 1    
   105   52   54 1    
   106   52  175 1    
   107   53  176 1    
   108   53  177 1    
   109   53  178 1    
   110   54   55 am   BACKBONE|DICT|INTERRES
   111   54  179 1    
   112   55   56 2    
   113   55   57 1    
   114   57   58 1    
   115   57   59 1    
   116   57  180 1    
   117   58  181 1    
   118   58  182 1    
   119   58  183 1    
   120   59   60 am   BACKBONE|DICT|INTERRES
   121   59  184 1    
   122   60   61 2    
   123   60   62 1    
   124   62   63 1    
   125   62   64 1    
   126   62  185 1    
   127   63  186 1    
   128   63  187 1    
   129   63  188 1    
   130   64   65 am   BACKBONE|DICT|INTERRES
   131   64  189 1    
   132   65   66 2    
   133   67   68 2    
   134   67   69 am   BACKBONE|DICT|INTERRES
   135   69   70 1    
   136   69  190 1    
   137   70   71 1    
   138   70   72 1    
   139   70  191 1    
   140   71  192 1    
   141   71  193 1    
   142   71  194 1    
   143   72   73 2    
   144   72   74 am   BACKBONE|DICT|INTERRES
   145   74   75 1    
   146   74  195 1    
   147   75   76 1    
   148   75   77 1    
   149   75  196 1    
   150   76  197 1    
   151   76  198 1    
   152   76  199 1    
   153   77   78 2    
   154   77   79 am   BACKBONE|DICT|INTERRES
   155   79   80 1    
   156   79  200 1    
   157   80   81 1    
   158   80   82 1    
   159   80  201 1    
   160   81  202 1    
   161   81  203 1    
   162   81  204 1    
   163   82   83 2    
   164   82   84 am   BACKBONE|DICT|INTERRES
   165   84   85 1    
   166   84  205 1    
   167   85   86 1    
   168   85   87 1    
   169   85  206 1    
   170   86  207 1    
   171   86  208 1    
   172   86  209 1    
   173   87   88 2    
   174   87   89 am   BACKBONE|DICT|INTERRES
   175   89   90 1    
   176   89  210 1    
   177   90   91 1    
   178   90   92 1    
   179   90  211 1    
   180   91  212 1    
   181   91  213 1    
   182   91  214 1    
   183   92   93 2    
   184   92   94 am   BACKBONE|DICT|INTERRES
   185   94   95 1    
   186   94  215 1    
   187   95   96 1    
   188   95   97 1    
   189   95  216 1    
   190   96  217 1    
   191   96  218 1    
   192   96  219 1    
   193   97   98 2    
   194   97   99 am   BACKBONE|DICT|INTERRES
   195   99  100 1    
   196   99  220 1    
   197  100  101 1    
   198  100  102 1    
   199  100  221 1    
   200  101  222 1    
   201  101  223 1    
   202  101  224 1    
   203  102  103 2    
   204  102  104 am   BACKBONE|DICT|INTERRES
   205  104  105 1    
   206  104  225 1    
   207  105  106 1    
   208  105  107 1    
   209  105  226 1    
   210  106  227 1    
   211  106  228 1    
   212  106  229 1    
   213  107  108 2    
   214  107  109 am   BACKBONE|DICT|INTERRES
   215  109  110 1    
   216  109  230 1    
   217  110  111 1    
   218  110  112 1    
   219  110  231 1    
   220  111  232 1    
   221  111  233 1    
   222  111  234 1    
   223  112  113 2    
   224  112  114 am   BACKBONE|DICT|INTERRES
   225  114  115 1    
   226  114  235 1    
   227  115  116 1    
   228  115  117 1    
   229  115  236 1    
   230  116  237 1    
   231  116  238 1    
   232  116  239 1    
   233  117  118 2    
   234  117  119 am   BACKBONE|DICT|INTERRES
   235  119  120 1    
   236  119  240 1    
   237  120  121 1    
   238  120  124 1    
   239  120  241 1    
   240  121  122 am   BACKBONE|DICT|INTERRES
   241  121  123 2    
   242  122  242 1    
   243  122  243 1    
   244  124  125 1    
   245  124  244 1    
   246  124  245 1    
   247  125  126 1    
   248  126  246 1    
   249  126  247 1    
@<TRIPOS>SUBSTRUCTURE
     1 UNK         1 GROUP             0       ****    0 ROOT    
