@<TRIPOS>MOLECULE
3R540
247   249    1
SMALL
USER_CHARGES


@<TRIPOS>ATOM
      1 CA         -2.9410  -14.6771  -45.1479 C.3       0 UNK        -0.1800 
      2 C          -2.2800  -13.3878  -45.6182 C.2       0 UNK         0.5000 
      3 O          -2.6941  -12.3023  -45.2117 O.2       0 UNK        -0.5000 
      4 N          -1.2587  -13.5116  -46.4756 N.am      1 UNK        -0.5000 
      5 CA         -0.4032  -12.4386  -46.9926 C.3       1 UNK         0.1400 
      6 C6          0.6540  -12.9628  -48.0036 C.3       23 UNK        -0.0398 
      7 S7         -0.0215  -14.0643  -49.2992 S.3       23 UNK        -0.2404 
      8 C8          1.3441  -15.2603  -49.4568 C.3       23 UNK        -0.0205 
      9 C9          1.0309  -16.3711  -50.4476 C.ar      23 UNK        -0.0193 
     10 C10         1.2465  -16.1661  -51.8131 C.ar      23 UNK        -0.1150 
     11 C11         1.0164  -17.1939  -52.7311 C.ar      23 UNK        -0.0193 
     12 C12         0.5775  -18.4391  -52.2729 C.ar      23 UNK        -0.1150 
     13 C13         0.3424  -18.6540  -50.9122 C.ar      23 UNK        -0.0193 
     14 C14         0.5656  -17.6143  -50.0028 C.ar      23 UNK        -0.1150 
     15 C15        -0.1705  -20.0054  -50.4397 C.3       23 UNK        -0.0205 
     16 S16         1.1828  -21.1072  -49.9033 S.3       23 UNK        -0.2404 
     17 C17         1.0744  -20.9740  -48.0808 C.3       23 UNK        -0.0398 
     18 CA          0.2875  -22.1258  -47.3970 C.3       11 UNK         0.1400 
     19 N           0.2938  -22.0024  -45.9353 N.am      11 UNK        -0.5000 
     20 C          -0.2453  -22.8825  -45.0764 C.2       10 UNK         0.5000 
     21 O          -0.7359  -23.9601  -45.4134 O.2       10 UNK        -0.5000 
     22 CA         -0.3129  -22.4562  -43.5978 C.3       10 UNK         0.1400 
     23 CB          1.0358  -22.6620  -42.8925 C.3       10 UNK        -0.1800 
     24 N          -0.7544  -21.0688  -43.4413 N.am      10 UNK        -0.5000 
     25 C          -1.9668  -20.6207  -43.8016 C.2       9 UNK         0.5000 
     26 O          -2.8610  -21.3445  -44.2399 O.2       9 UNK        -0.5000 
     27 CA         -2.2044  -19.1033  -43.7076 C.3       9 UNK         0.1400 
     28 CB         -2.5762  -18.6964  -42.2745 C.3       9 UNK        -0.1800 
     29 N          -1.0489  -18.3296  -44.1638 N.am      9 UNK        -0.5000 
     30 C          -0.5892  -18.3317  -45.4229 C.2       8 UNK         0.5000 
     31 O          -1.1392  -18.9267  -46.3467 O.2       8 UNK        -0.5000 
     32 CA          0.7275  -17.5872  -45.6975 C.3       8 UNK         0.1400 
     33 CB          0.4705  -16.0963  -45.9047 C.3       8 UNK        -0.1800 
     34 N           1.7087  -17.7657  -44.6354 N.am      8 UNK        -0.5000 
     35 C           2.2859  -18.9320  -44.3247 C.2       7 UNK         0.5000 
     36 O           2.0766  -19.9808  -44.9337 O.2       7 UNK        -0.5000 
     37 CA          3.2168  -18.9274  -43.1020 C.3       7 UNK         0.1400 
     38 CB          4.6270  -18.4621  -43.4931 C.3       7 UNK        -0.1800 
     39 N           2.6977  -18.0746  -42.0319 N.am      7 UNK        -0.5000 
     40 C           1.6220  -18.3689  -41.2892 C.2       6 UNK         0.5000 
     41 O           0.9738  -19.4098  -41.4075 O.2       6 UNK        -0.5000 
     42 CA          1.1792  -17.3014  -40.2706 C.3       6 UNK         0.1400 
     43 CB          2.0525  -17.3571  -39.0082 C.3       6 UNK        -0.1800 
     44 N           1.2062  -15.9446  -40.8237 N.am      6 UNK        -0.5000 
     45 C           0.3765  -15.5114  -41.7827 C.2       5 UNK         0.5000 
     46 O          -0.4968  -16.2105  -42.2927 O.2       5 UNK        -0.5000 
     47 CA          0.5688  -14.0704  -42.2893 C.3       5 UNK         0.1400 
     48 CB         -0.2194  -13.0776  -41.4234 C.3       5 UNK        -0.1800 
     49 N           1.9612  -13.6224  -42.3961 N.am      5 UNK        -0.5000 
     50 C           2.9241  -14.2398  -43.0944 C.2       4 UNK         0.5000 
     51 O           2.7987  -15.3580  -43.5951 O.2       4 UNK        -0.5000 
     52 CA          4.2194  -13.4430  -43.3017 C.3       4 UNK         0.1400 
     53 CB          5.2951  -14.2414  -44.0687 C.3       4 UNK        -0.1800 
     54 N           3.9010  -12.2034  -44.0097 N.am      4 UNK        -0.5000 
     55 C           4.6870  -11.1186  -44.0462 C.2       3 UNK         0.5000 
     56 O           5.7588  -11.0368  -43.4442 O.2       3 UNK        -0.5000 
     57 CA          4.2197   -9.9199  -44.8990 C.3       3 UNK         0.1400 
     58 CB          4.8851   -9.9605  -46.2836 C.3       3 UNK        -0.1800 
     59 N           2.7697   -9.8414  -45.0772 N.am      3 UNK        -0.5000 
     60 C           1.8890   -9.5760  -44.1039 C.2       2 UNK         0.5000 
     61 O           2.2134   -9.3197  -42.9437 O.2       2 UNK        -0.5000 
     62 CA          0.3918   -9.6112  -44.4768 C.3       2 UNK         0.1400 
     63 CB         -0.1404   -8.1831  -44.6737 C.3       2 UNK        -0.1800 
     64 N           0.0326  -10.4143  -45.6545 N.am      2 UNK        -0.5000 
     65 C           0.3000  -11.7163  -45.8241 C.2       1 UNK         0.5000 
     66 O           1.0597  -12.3591  -45.0986 O.2       1 UNK        -0.5000 
     67 C          -1.1526  -22.2436  -47.9367 C.2       11 UNK         0.5000 
     68 O          -1.4426  -23.1788  -48.6815 O.2       11 UNK        -0.5000 
     69 N          -2.0269  -21.3096  -47.5334 N.am      12 UNK        -0.5000 
     70 CA         -3.4268  -21.2442  -47.9458 C.3       12 UNK         0.1400 
     71 CB         -4.0948  -19.9885  -47.3684 C.3       12 UNK        -0.1800 
     72 C          -4.2195  -22.5092  -47.5913 C.2       12 UNK         0.5000 
     73 O          -4.9393  -23.0219  -48.4479 O.2       12 UNK        -0.5000 
     74 N          -4.0314  -23.0002  -46.3585 N.am      13 UNK        -0.5000 
     75 CA         -4.6027  -24.2451  -45.8519 C.3       13 UNK         0.1400 
     76 CB         -4.2963  -24.3763  -44.3522 C.3       13 UNK        -0.1800 
     77 C          -4.1103  -25.4837  -46.6217 C.2       13 UNK         0.5000 
     78 O          -4.9298  -26.3140  -47.0160 O.2       13 UNK        -0.5000 
     79 N          -2.7892  -25.5795  -46.8296 N.am      14 UNK        -0.5000 
     80 CA         -2.1395  -26.6896  -47.5275 C.3       14 UNK         0.1400 
     81 CB         -0.6168  -26.5871  -47.3523 C.3       14 UNK        -0.1800 
     82 C          -2.5078  -26.7642  -49.0191 C.2       14 UNK         0.5000 
     83 O          -2.7935  -27.8518  -49.5237 O.2       14 UNK        -0.5000 
     84 N          -2.5113  -25.6109  -49.6981 N.am      15 UNK        -0.5000 
     85 CA         -2.8214  -25.4756  -51.1181 C.3       15 UNK         0.1400 
     86 CB         -2.1156  -24.2289  -51.6669 C.3       15 UNK        -0.1800 
     87 C          -4.3423  -25.4663  -51.3636 C.2       15 UNK         0.5000 
     88 O          -4.9186  -24.4311  -51.7138 O.2       15 UNK        -0.5000 
     89 N          -4.9538  -26.6409  -51.1576 N.am      16 UNK        -0.5000 
     90 CA         -6.3533  -26.9965  -51.4239 C.3       16 UNK         0.1400 
     91 CB         -6.6391  -26.9258  -52.9386 C.3       16 UNK        -0.1800 
     92 C          -7.3875  -26.1982  -50.6025 C.2       16 UNK         0.5000 
     93 O          -8.5499  -26.1229  -51.0039 O.2       16 UNK        -0.5000 
     94 N          -6.9492  -25.6070  -49.4804 N.am      17 UNK        -0.5000 
     95 CA         -7.7018  -24.6998  -48.6054 C.3       17 UNK         0.1400 
     96 CB         -8.8545  -25.4446  -47.9002 C.3       17 UNK        -0.1800 
     97 C          -8.1655  -23.4056  -49.3143 C.2       17 UNK         0.5000 
     98 O          -9.1388  -22.7879  -48.8777 O.2       17 UNK        -0.5000 
     99 N          -7.4774  -23.0271  -50.4005 N.am      18 UNK        -0.5000 
    100 CA        -7.8702  -21.9438  -51.3010 C.3       18 UNK         0.1400 
    101 CB        -8.6124  -22.5599  -52.5012 C.3       18 UNK        -0.1800 
    102 C         -6.6818  -21.0860  -51.7698 C.2       18 UNK         0.5000 
    103 O         -6.8946  -20.1789  -52.5754 O.2       18 UNK        -0.5000 
    104 N         -5.4614  -21.3839  -51.2930 N.am      19 UNK        -0.5000 
    105 CA        -4.1906  -20.7943  -51.7397 C.3       19 UNK         0.1400 
    106 CB        -4.0887  -19.3043  -51.3499 C.3       19 UNK        -0.1800 
    107 C         -3.9137  -21.0528  -53.2350 C.2       19 UNK         0.5000 
    108 O         -3.4158  -20.1717  -53.9388 O.2       19 UNK        -0.5000 
    109 N         -4.2291  -22.2777  -53.6857 N.am      20 UNK        -0.5000 
    110 CA        -4.1520  -22.7323  -55.0792 C.3       20 UNK         0.1400 
    111 CB        -4.6626  -24.1784  -55.1582 C.3       20 UNK        -0.1800 
    112 C         -2.7556  -22.6141  -55.7232 C.2       20 UNK         0.5000 
    113 O         -2.6596  -22.4709  -56.9427 O.2       20 UNK        -0.5000 
    114 N         -1.7044  -22.6149  -54.8914 N.am      21 UNK        -0.5000 
    115 CA        -0.3097  -22.3723  -55.2651 C.3       21 UNK         0.1400 
    116 CB         0.5724  -22.5680  -54.0216 C.3       21 UNK        -0.1800 
    117 C         -0.0634  -20.9805  -55.8848 C.2       21 UNK         0.5000 
    118 O          0.8980  -20.8216  -56.6377 O.2       21 UNK        -0.5000 
    119 N         -0.9360  -20.0119  -55.5747 N.am      22 UNK        -0.5000 
    120 CA        -0.9548  -18.6684  -56.1697 C.3       22 UNK         0.1400 
    121 C         -1.8064  -18.5648  -57.4712 C.2       22 UNK         0.5000 
    122 N         -2.4205  -19.6351  -57.9643 N.am      22 UNK        -0.7600 
    123 O         -1.9016  -17.4920  -58.0608 O.2       22 UNK        -0.5000 
    124 C124       -1.3450  -17.5972  -55.1090 C.3       23 UNK        -0.0398 
    125 S125       -0.1665  -16.2043  -55.0498 S.3       23 UNK        -0.2404 
    126 C126        1.2657  -16.9634  -54.2137 C.3       23 UNK        -0.0205 
    127 H127       -2.6891  -14.8675  -44.1043 H         1 UNK         0.0600 
    128 H128       -4.0250  -14.5979  -45.2302 H         1 UNK         0.0600 
    129 H129       -2.6204  -15.5371  -45.7365 H         1 UNK         0.0600 
    130 H130       -0.9920  -14.4345  -46.7813 H         1 UNK         0.3000 
    131 H131       -1.0516  -11.7303  -47.5120 H         1 UNK         0.0600 
    132 H132        1.1434  -12.1229  -48.4996 H         1 UNK         0.0800 
    133 H133        1.4463  -13.4995  -47.4786 H         1 UNK         0.0800 
    134 H134        2.2443  -14.7318  -49.7748 H         1 UNK         0.0800 
    135 H135        1.5775  -15.6927  -48.4845 H         1 UNK         0.0800 
    136 H136        1.5997  -15.2055  -52.1614 H         1 UNK         0.1150 
    137 H137        0.4102  -19.2403  -52.9789 H         1 UNK         0.1150 
    138 H138        0.3868  -17.7769  -48.9498 H         1 UNK         0.1150 
    139 H139       -0.8978  -19.8588  -49.6412 H         1 UNK         0.0800 
    140 H140       -0.7151  -20.4977  -51.2468 H         1 UNK         0.0800 
    141 H141        0.6534  -20.0052  -47.8206 H         1 UNK         0.0800 
    142 H142        2.0947  -20.9597  -47.6953 H         1 UNK         0.0800 
    143 H143        0.7968  -23.0620  -47.6352 H         1 UNK         0.0600 
    144 H144        0.7312  -21.1673  -45.5547 H         1 UNK         0.3000 
    145 H145       -1.0491  -23.0942  -43.1042 H         1 UNK         0.0600 
    146 H146        0.9705  -22.4035  -41.8354 H         1 UNK         0.0600 
    147 H147        1.3510  -23.7042  -42.9544 H         1 UNK         0.0600 
    148 H148        1.8250  -22.0555  -43.3353 H         1 UNK         0.0600 
    149 H149       -0.0851  -20.4138  -43.0548 H         1 UNK         0.3000 
    150 H150       -3.0477  -18.8581  -44.3560 H         1 UNK         0.0600 
    151 H151       -3.4288  -19.2725  -41.9127 H         1 UNK         0.0600 
    152 H152       -2.8523  -17.6431  -42.2249 H         1 UNK         0.0600 
    153 H153       -1.7502  -18.8588  -41.5814 H         1 UNK         0.0600 
    154 H154       -0.5890  -17.7495  -43.4682 H         1 UNK         0.3000 
    155 H155        1.1597  -17.9866  -46.6164 H         1 UNK         0.0600 
    156 H156       -0.1774  -15.9515  -46.7681 H         1 UNK         0.0600 
    157 H157        1.3980  -15.5530  -46.0855 H         1 UNK         0.0600 
    158 H158       -0.0109  -15.6493  -45.0355 H         1 UNK         0.0600 
    159 H159        1.9853  -16.9320  -44.1210 H         1 UNK         0.3000 
    160 H160        3.2855  -19.9506  -42.7266 H         1 UNK         0.0600 
    161 H161        5.3026  -18.4860  -42.6380 H         1 UNK         0.0600 
    162 H162        4.6214  -17.4464  -43.8894 H         1 UNK         0.0600 
    163 H163        5.0508  -19.1104  -44.2611 H         1 UNK         0.0600 
    164 H164        3.1292  -17.1680  -41.9245 H         1 UNK         0.3000 
    165 H165        0.1510  -17.5288  -39.9806 H         1 UNK         0.0600 
    166 H166        1.6909  -16.6639  -38.2485 H         1 UNK         0.0600 
    167 H167        2.0390  -18.3553  -38.5685 H         1 UNK         0.0600 
    168 H168        3.0921  -17.1070  -39.2234 H         1 UNK         0.0600 
    169 H169        1.9050  -15.3107  -40.4650 H         1 UNK         0.3000 
    170 H170        0.1459  -14.0352  -43.2942 H         1 UNK         0.0600 
    171 H171       -1.2666  -13.3730  -41.3447 H         1 UNK         0.0600 
    172 H172        0.1836  -13.0172  -40.4118 H         1 UNK         0.0600 
    173 H173       -0.1984  -12.0770  -41.8558 H         1 UNK         0.0600 
    174 H174        2.1579  -12.7006  -42.0347 H         1 UNK         0.3000 
    175 H175        4.6075  -13.2001  -42.3104 H         1 UNK         0.0600 
    176 H176        6.2238  -13.6786  -44.1610 H         1 UNK         0.0600 
    177 H177        5.5351  -15.1699  -43.5498 H         1 UNK         0.0600 
    178 H178        4.9602  -14.5008  -45.0739 H         1 UNK         0.0600 
    179 H179        3.0041  -12.1896  -44.4889 H         1 UNK         0.3000 
    180 H180        4.5461   -9.0101  -44.3907 H         1 UNK         0.0600 
    181 H181        4.5794  -10.8408  -46.8506 H         1 UNK         0.0600 
    182 H182        5.9720   -9.9888  -46.1945 H         1 UNK         0.0600 
    183 H183        4.6319   -9.0770  -46.8700 H         1 UNK         0.0600 
    184 H184        2.4121  -10.0464  -45.9981 H         1 UNK         0.3000 
    185 H185       -0.1307  -10.0510  -43.6249 H         1 UNK         0.0600 
    186 H186       -1.2220   -8.1792  -44.8099 H         1 UNK         0.0600 
    187 H187        0.0767   -7.5592  -43.8054 H         1 UNK         0.0600 
    188 H188        0.3109   -7.7037  -45.5433 H         1 UNK         0.0600 
    189 H189       -0.5964   -9.9683  -46.3067 H         1 UNK         0.3000 
    190 H190       -1.6975  -20.5474  -46.9442 H         1 UNK         0.3000 
    191 H191       -3.4300  -21.1524  -49.0283 H         1 UNK         0.0600 
    192 H192       -4.1017  -19.9996  -46.2789 H         1 UNK         0.0600 
    193 H193       -5.1300  -19.9096  -47.7031 H         1 UNK         0.0600 
    194 H194       -3.5795  -19.0837  -47.6913 H         1 UNK         0.0600 
    195 H195       -3.4422  -22.4789  -45.7148 H         1 UNK         0.3000 
    196 H196       -5.6859  -24.1854  -45.9647 H         1 UNK         0.0600 
    197 H197       -3.2231  -24.3930  -44.1590 H         1 UNK         0.0600 
    198 H198       -4.7192  -25.2954  -43.9449 H         1 UNK         0.0600 
    199 H199       -4.7219  -23.5449  -43.7900 H         1 UNK         0.0600 
    200 H200       -2.1768  -24.8583  -46.4594 H         1 UNK         0.3000 
    201 H201       -2.4711  -27.6184  -47.0588 H         1 UNK         0.0600 
    202 H202       -0.2272  -25.6528  -47.7589 H         1 UNK         0.0600 
    203 H203       -0.1070  -27.4064  -47.8607 H         1 UNK         0.0600 
    204 H204       -0.3381  -26.6343  -46.2995 H         1 UNK         0.0600 
    205 H205       -2.2546  -24.7533  -49.2122 H         1 UNK         0.3000 
    206 H206       -2.4114  -26.3347  -51.6535 H         1 UNK         0.0600 
    207 H207       -1.0366  -24.2911  -51.5232 H         1 UNK         0.0600 
    208 H208       -2.2974  -24.1300  -52.7347 H         1 UNK         0.0600 
    209 H209       -2.4628  -23.3244  -51.1729 H         1 UNK         0.0600 
    210 H210       -4.3780  -27.3900  -50.7867 H         1 UNK         0.3000 
    211 H211       -6.4633  -28.0367  -51.1146 H         1 UNK         0.0600 
    212 H212       -6.6445  -25.8967  -53.2980 H         1 UNK         0.0600 
    213 H213       -7.6117  -27.3583  -53.1759 H         1 UNK         0.0600 
    214 H214       -5.8930  -27.4780  -53.5099 H         1 UNK         0.0600 
    215 H215       -5.9775  -25.7342  -49.2299 H         1 UNK         0.3000 
    216 H216       -7.0102  -24.3841  -47.8280 H         1 UNK         0.0600 
    217 H217       -8.4956  -26.3498  -47.4103 H         1 UNK         0.0600 
    218 H218       -9.3101  -24.8208  -47.1304 H         1 UNK         0.0600 
    219 H219       -9.6429  -25.7288  -48.5975 H         1 UNK         0.0600 
    220 H220       -6.6898  -23.5952  -50.6918 H         1 UNK         0.3000 
    221 H221       -8.5486  -21.2584  -50.7894 H         1 UNK         0.0600 
    222 H222       -7.9673  -23.2371  -53.0629 H         1 UNK         0.0600 
    223 H223       -9.4860  -23.1253  -52.1763 H         1 UNK         0.0600 
    224 H224       -8.9637  -21.7903  -53.1896 H         1 UNK         0.0600 
    225 H225       -5.3858  -22.1407  -50.6245 H         1 UNK         0.3000 
    226 H226       -3.3992  -21.3183  -51.2100 H         1 UNK         0.0600 
    227 H227       -4.2969  -19.1548  -50.2911 H         1 UNK         0.0600 
    228 H228       -3.0859  -18.9195  -51.5405 H         1 UNK         0.0600 
    229 H229       -4.7854  -18.6868  -51.9172 H         1 UNK         0.0600 
    230 H230       -4.6112  -22.9451  -53.0217 H         1 UNK         0.3000 
    231 H231       -4.8258  -22.1006  -55.6613 H         1 UNK         0.0600 
    232 H232       -5.6929  -24.2486  -54.8097 H         1 UNK         0.0600 
    233 H233       -4.0568  -24.8541  -54.5535 H         1 UNK         0.0600 
    234 H234       -4.6425  -24.5471  -56.1846 H         1 UNK         0.0600 
    235 H235       -1.8902  -22.7209  -53.9066 H         1 UNK         0.3000 
    236 H236       -0.0291  -23.1184  -56.0111 H         1 UNK         0.0600 
    237 H237        1.6253  -22.4111  -54.2597 H         1 UNK         0.0600 
    238 H238        0.3095  -21.8700  -53.2258 H         1 UNK         0.0600 
    239 H239        0.4786  -23.5792  -53.6255 H         1 UNK         0.0600 
    240 H240       -1.7250  -20.2301  -54.9735 H         1 UNK         0.3000 
    241 H241        0.0598  -18.4549  -56.5089 H         1 UNK         0.0600 
    242 H242       -2.3525  -20.5412  -57.5156 H         1 UNK         0.3800 
    243 H243       -2.9588  -19.5435  -58.8112 H         1 UNK         0.3800 
    244 H244       -2.3417  -17.1925  -55.2942 H         1 UNK         0.0800 
    245 H245       -1.4132  -18.0292  -54.1109 H         1 UNK         0.0800 
    246 H246        2.1284  -16.3072  -54.3378 H         1 UNK         0.0800 
    247 H247        1.5310  -17.9010  -54.7043 H         1 UNK         0.0800 
@<TRIPOS>BOND
     1    1    2 1    
     2    1  127 1    
     3    1  128 1    
     4    1  129 1    
     5    2    3 2    
     6    2    4 am   BACKBONE|DICT|INTERRES
     7    4    5 1    
     8    4  130 1    
     9    5    6 1    
    10    5   65 1    
    11    5  131 1    
    12    6    7 1    
    13    6  132 1    
    14    6  133 1    
    15    7    8 1    
    16    8    9 1    
    17    8  134 1    
    18    8  135 1    
    19    9   10 ar   
    20    9   14 ar   
    21   10   11 ar   
    22   10  136 1    
    23   11   12 ar   
    24   11  126 1    
    25   12   13 ar   
    26   12  137 1    
    27   13   14 ar   
    28   13   15 1    
    29   14  138 1    
    30   15   16 1    
    31   15  139 1    
    32   15  140 1    
    33   16   17 1    
    34   17   18 1    
    35   17  141 1    
    36   17  142 1    
    37   18   19 1    
    38   18   67 1    
    39   18  143 1    
    40   19   20 am   BACKBONE|DICT|INTERRES
    41   19  144 1    
    42   20   21 2    
    43   20   22 1    
    44   22   23 1    
    45   22   24 1    
    46   22  145 1    
    47   23  146 1    
    48   23  147 1    
    49   23  148 1    
    50   24   25 am   BACKBONE|DICT|INTERRES
    51   24  149 1    
    52   25   26 2    
    53   25   27 1    
    54   27   28 1    
    55   27   29 1    
    56   27  150 1    
    57   28  151 1    
    58   28  152 1    
    59   28  153 1    
    60   29   30 am   BACKBONE|DICT|INTERRES
    61   29  154 1    
    62   30   31 2    
    63   30   32 1    
    64   32   33 1    
    65   32   34 1    
    66   32  155 1    
    67   33  156 1    
    68   33  157 1    
    69   33  158 1    
    70   34   35 am   BACKBONE|DICT|INTERRES
    71   34  159 1    
    72   35   36 2    
    73   35   37 1    
    74   37   38 1    
    75   37   39 1    
    76   37  160 1    
    77   38  161 1    
    78   38  162 1    
    79   38  163 1    
    80   39   40 am   BACKBONE|DICT|INTERRES
    81   39  164 1    
    82   40   41 2    
    83   40   42 1    
    84   42   43 1    
    85   42   44 1    
    86   42  165 1    
    87   43  166 1    
    88   43  167 1    
    89   43  168 1    
    90   44   45 am   BACKBONE|DICT|INTERRES
    91   44  169 1    
    92   45   46 2    
    93   45   47 1    
    94   47   48 1    
    95   47   49 1    
    96   47  170 1    
    97   48  171 1    
    98   48  172 1    
    99   48  173 1    
   100   49   50 am   BACKBONE|DICT|INTERRES
   101   49  174 1    
   102   50   51 2    
   103   50   52 1    
   104   52   53 1    
   105   52   54 1    
   106   52  175 1    
   107   53  176 1    
   108   53  177 1    
   109   53  178 1    
   110   54   55 am   BACKBONE|DICT|INTERRES
   111   54  179 1    
   112   55   56 2    
   113   55   57 1    
   114   57   58 1    
   115   57   59 1    
   116   57  180 1    
   117   58  181 1    
   118   58  182 1    
   119   58  183 1    
   120   59   60 am   BACKBONE|DICT|INTERRES
   121   59  184 1    
   122   60   61 2    
   123   60   62 1    
   124   62   63 1    
   125   62   64 1    
   126   62  185 1    
   127   63  186 1    
   128   63  187 1    
   129   63  188 1    
   130   64   65 am   BACKBONE|DICT|INTERRES
   131   64  189 1    
   132   65   66 2    
   133   67   68 2    
   134   67   69 am   BACKBONE|DICT|INTERRES
   135   69   70 1    
   136   69  190 1    
   137   70   71 1    
   138   70   72 1    
   139   70  191 1    
   140   71  192 1    
   141   71  193 1    
   142   71  194 1    
   143   72   73 2    
   144   72   74 am   BACKBONE|DICT|INTERRES
   145   74   75 1    
   146   74  195 1    
   147   75   76 1    
   148   75   77 1    
   149   75  196 1    
   150   76  197 1    
   151   76  198 1    
   152   76  199 1    
   153   77   78 2    
   154   77   79 am   BACKBONE|DICT|INTERRES
   155   79   80 1    
   156   79  200 1    
   157   80   81 1    
   158   80   82 1    
   159   80  201 1    
   160   81  202 1    
   161   81  203 1    
   162   81  204 1    
   163   82   83 2    
   164   82   84 am   BACKBONE|DICT|INTERRES
   165   84   85 1    
   166   84  205 1    
   167   85   86 1    
   168   85   87 1    
   169   85  206 1    
   170   86  207 1    
   171   86  208 1    
   172   86  209 1    
   173   87   88 2    
   174   87   89 am   BACKBONE|DICT|INTERRES
   175   89   90 1    
   176   89  210 1    
   177   90   91 1    
   178   90   92 1    
   179   90  211 1    
   180   91  212 1    
   181   91  213 1    
   182   91  214 1    
   183   92   93 2    
   184   92   94 am   BACKBONE|DICT|INTERRES
   185   94   95 1    
   186   94  215 1    
   187   95   96 1    
   188   95   97 1    
   189   95  216 1    
   190   96  217 1    
   191   96  218 1    
   192   96  219 1    
   193   97   98 2    
   194   97   99 am   BACKBONE|DICT|INTERRES
   195   99  100 1    
   196   99  220 1    
   197  100  101 1    
   198  100  102 1    
   199  100  221 1    
   200  101  222 1    
   201  101  223 1    
   202  101  224 1    
   203  102  103 2    
   204  102  104 am   BACKBONE|DICT|INTERRES
   205  104  105 1    
   206  104  225 1    
   207  105  106 1    
   208  105  107 1    
   209  105  226 1    
   210  106  227 1    
   211  106  228 1    
   212  106  229 1    
   213  107  108 2    
   214  107  109 am   BACKBONE|DICT|INTERRES
   215  109  110 1    
   216  109  230 1    
   217  110  111 1    
   218  110  112 1    
   219  110  231 1    
   220  111  232 1    
   221  111  233 1    
   222  111  234 1    
   223  112  113 2    
   224  112  114 am   BACKBONE|DICT|INTERRES
   225  114  115 1    
   226  114  235 1    
   227  115  116 1    
   228  115  117 1    
   229  115  236 1    
   230  116  237 1    
   231  116  238 1    
   232  116  239 1    
   233  117  118 2    
   234  117  119 am   BACKBONE|DICT|INTERRES
   235  119  120 1    
   236  119  240 1    
   237  120  121 1    
   238  120  124 1    
   239  120  241 1    
   240  121  122 am   BACKBONE|DICT|INTERRES
   241  121  123 2    
   242  122  242 1    
   243  122  243 1    
   244  124  125 1    
   245  124  244 1    
   246  124  245 1    
   247  125  126 1    
   248  126  246 1    
   249  126  247 1    
@<TRIPOS>SUBSTRUCTURE
     1 UNK         1 GROUP             0       ****    0 ROOT    
