@<TRIPOS>MOLECULE
3R540
247   249    1
SMALL
USER_CHARGES


@<TRIPOS>ATOM
      1 CA          3.4378  -16.3436  -47.7320 C.3       0 UNK        -0.1800 
      2 C           4.0614  -15.1593  -48.4655 C.2       0 UNK         0.5000 
      3 O           5.0594  -15.3372  -49.1606 O.2       0 UNK        -0.5000 
      4 N           3.5226  -13.9405  -48.3485 N.am      1 UNK        -0.5000 
      5 CA          2.3817  -13.5499  -47.5217 C.3       1 UNK         0.1400 
      6 C6          1.1878  -13.0549  -48.3802 C.3       23 UNK        -0.0398 
      7 S7          0.0622  -14.4232  -48.7907 S.3       23 UNK        -0.2404 
      8 C8          0.5958  -14.8996  -50.4602 C.3       23 UNK        -0.0205 
      9 C9          0.1235  -16.3133  -50.7530 C.ar      23 UNK        -0.0193 
     10 C10        -1.2134  -16.5553  -51.0843 C.ar      23 UNK        -0.1150 
     11 C11        -1.6736  -17.8631  -51.2589 C.ar      23 UNK        -0.0193 
     12 C12        -0.7838  -18.9293  -51.1037 C.ar      23 UNK        -0.1150 
     13 C13         0.5592  -18.7015  -50.7907 C.ar      23 UNK        -0.0193 
     14 C14         1.0098  -17.3870  -50.6329 C.ar      23 UNK        -0.1150 
     15 C15         1.5056  -19.8864  -50.6292 C.3       23 UNK        -0.0205 
     16 S16         2.5939  -19.8041  -49.1635 S.3       23 UNK        -0.2404 
     17 C17         1.4679  -19.3721  -47.7911 C.3       23 UNK        -0.0398 
     18 CA          0.7661  -20.5927  -47.1498 C.3       11 UNK         0.1400 
     19 N           0.5380  -20.4101  -45.7143 N.am      11 UNK        -0.5000 
     20 C           0.1213  -21.3763  -44.8829 C.2       10 UNK         0.5000 
     21 O          -0.0779  -22.5405  -45.2313 O.2       10 UNK        -0.5000 
     22 CA         -0.1693  -20.9606  -43.4291 C.3       10 UNK         0.1400 
     23 CB          1.1313  -20.8284  -42.6232 C.3       10 UNK        -0.1800 
     24 N          -0.9283  -19.7130  -43.3427 N.am      10 UNK        -0.5000 
     25 C          -2.1634  -19.5375  -43.8333 C.2       9 UNK         0.5000 
     26 O          -2.8141  -20.4222  -44.3864 O.2       9 UNK        -0.5000 
     27 CA         -2.7555  -18.1233  -43.7300 C.3       9 UNK         0.1400 
     28 CB         -3.3651  -17.8833  -42.3412 C.3       9 UNK        -0.1800 
     29 N          -1.7649  -17.0885  -44.0206 N.am      9 UNK        -0.5000 
     30 C          -1.2149  -16.8860  -45.2253 C.2       8 UNK         0.5000 
     31 O          -1.4808  -17.5539  -46.2253 O.2       8 UNK        -0.5000 
     32 CA         -0.1558  -15.7731  -45.3077 C.3       8 UNK         0.1400 
     33 CB         -0.8240  -14.3889  -45.2830 C.3       8 UNK        -0.1800 
     34 N           0.8423  -15.8530  -44.2391 N.am      8 UNK        -0.5000 
     35 C           1.6599  -16.8978  -44.0460 C.2       7 UNK         0.5000 
     36 O           1.6930  -17.8850  -44.7791 O.2       7 UNK        -0.5000 
     37 CA          2.5637  -16.8566  -42.8020 C.3       7 UNK         0.1400 
     38 CB          3.8503  -16.0744  -43.1030 C.3       7 UNK        -0.1800 
     39 N           1.9197  -16.3064  -41.6058 N.am      7 UNK        -0.5000 
     40 C           0.7793  -16.7579  -41.0581 C.2       6 UNK         0.5000 
     41 O           0.0956  -17.6549  -41.5550 O.2       6 UNK        -0.5000 
     42 CA          0.3364  -16.0991  -39.7328 C.3       6 UNK         0.1400 
     43 CB         -0.7260  -16.9210  -38.9745 C.3       6 UNK        -0.1800 
     44 N           1.4630  -15.7734  -38.8534 N.am      6 UNK        -0.5000 
     45 C           2.3902  -16.6166  -38.3676 C.2       5 UNK         0.5000 
     46 O           2.3441  -17.8390  -38.5140 O.2       5 UNK        -0.5000 
     47 CA          3.5763  -15.9896  -37.5961 C.3       5 UNK         0.1400 
     48 CB          4.8960  -16.7526  -37.8371 C.3       5 UNK        -0.1800 
     49 N           3.7651  -14.5527  -37.8430 N.am      5 UNK        -0.5000 
     50 C           4.0054  -13.9586  -39.0206 C.2       4 UNK         0.5000 
     51 O           4.1243  -14.5568  -40.0917 O.2       4 UNK        -0.5000 
     52 CA          4.0432  -12.4212  -39.0058 C.3       4 UNK         0.1400 
     53 CB          5.4213  -11.9030  -39.4454 C.3       4 UNK        -0.1800 
     54 N           3.0180  -11.8560  -39.8823 N.am      4 UNK        -0.5000 
     55 C           1.6966  -12.0764  -39.7996 C.2       3 UNK         0.5000 
     56 O           1.1685  -12.7622  -38.9227 O.2       3 UNK        -0.5000 
     57 CA          0.8184  -11.4312  -40.8892 C.3       3 UNK         0.1400 
     58 CB          0.2267  -10.1053  -40.3875 C.3       3 UNK        -0.1800 
     59 N           1.5605  -11.1881  -42.1290 N.am      3 UNK        -0.5000 
     60 C           1.8716  -12.1441  -43.0110 C.2       2 UNK         0.5000 
     61 O           1.4855  -13.3151  -42.9255 O.2       2 UNK        -0.5000 
     62 CA          2.7883  -11.7274  -44.1689 C.3       2 UNK         0.1400 
     63 CB          4.2658  -11.7612  -43.7358 C.3       2 UNK        -0.1800 
     64 N           2.5589  -12.6547  -45.2666 N.am      2 UNK        -0.5000 
     65 C           2.8595  -12.4587  -46.5529 C.2       1 UNK         0.5000 
     66 O           3.4587  -11.4719  -46.9858 O.2       1 UNK        -0.5000 
     67 C          -0.5411  -20.9403  -47.8871 C.2       11 UNK         0.5000 
     68 O          -0.5593  -21.8911  -48.6677 O.2       11 UNK        -0.5000 
     69 N          -1.6218  -20.2012  -47.5953 N.am      12 UNK        -0.5000 
     70 CA         -2.9486  -20.4326  -48.1661 C.3       12 UNK         0.1400 
     71 CB         -3.8966  -19.2966  -47.7580 C.3       12 UNK        -0.1800 
     72 C          -3.5347  -21.8075  -47.7979 C.2       12 UNK         0.5000 
     73 O          -4.0977  -22.4713  -48.6670 O.2       12 UNK        -0.5000 
     74 N          -3.3546  -22.2307  -46.5389 N.am      13 UNK        -0.5000 
     75 CA         -3.7503  -23.5486  -46.0403 C.3       13 UNK         0.1400 
     76 CB         -3.5890  -23.5931  -44.5135 C.3       13 UNK        -0.1800 
     77 C          -2.9721  -24.7004  -46.7021 C.2       13 UNK         0.5000 
     78 O          -3.5636  -25.7422  -46.9843 O.2       13 UNK        -0.5000 
     79 N          -1.6737  -24.4909  -46.9608 N.am      14 UNK        -0.5000 
     80 CA         -0.8204  -25.4320  -47.6871 C.3       14 UNK         0.1400 
     81 CB          0.6535  -25.0394  -47.5018 C.3       14 UNK        -0.1800 
     82 C          -1.1851  -25.5167  -49.1814 C.2       14 UNK         0.5000 
     83 O          -1.2294  -26.6149  -49.7374 O.2       14 UNK        -0.5000 
     84 N          -1.4569  -24.3588  -49.7983 N.am      15 UNK        -0.5000 
     85 CA         -1.8267  -24.2251  -51.2077 C.3       15 UNK         0.1400 
     86 CB         -1.7203  -22.7495  -51.6201 C.3       15 UNK        -0.1800 
     87 C          -3.2280  -24.7640  -51.5452 C.2       15 UNK         0.5000 
     88 O          -3.4658  -25.0942  -52.7048 O.2       15 UNK        -0.5000 
     89 N          -4.1223  -24.8442  -50.5481 N.am      16 UNK        -0.5000 
     90 CA         -5.5501  -25.1729  -50.6610 C.3       16 UNK         0.1400 
     91 CB         -6.1580  -25.2532  -49.2522 C.3       16 UNK        -0.1800 
     92 C          -5.9023  -26.4486  -51.4546 C.2       16 UNK         0.5000 
     93 O          -7.0002  -26.5263  -52.0071 O.2       16 UNK        -0.5000 
     94 N          -4.9725  -27.4114  -51.5184 N.am      17 UNK        -0.5000 
     95 CA         -5.0847  -28.6421  -52.3051 C.3       17 UNK         0.1400 
     96 CB         -3.9159  -29.5692  -51.9379 C.3       17 UNK        -0.1800 
     97 C          -5.1299  -28.4131  -53.8323 C.2       17 UNK         0.5000 
     98 O          -5.6619  -29.2610  -54.5503 O.2       17 UNK        -0.5000 
     99 N          -4.5842  -27.2851  -54.3027 N.am      18 UNK        -0.5000 
    100 CA        -4.5561  -26.8700  -55.7027 C.3       18 UNK         0.1400 
    101 CB        -3.3958  -27.5685  -56.4395 C.3       18 UNK        -0.1800 
    102 C         -4.4678  -25.3367  -55.7362 C.2       18 UNK         0.5000 
    103 O         -3.4809  -24.7817  -56.2224 O.2       18 UNK        -0.5000 
    104 N         -5.4814  -24.6919  -55.1386 N.am      19 UNK        -0.5000 
    105 CA        -5.5121  -23.2655  -54.8031 C.3       19 UNK         0.1400 
    106 CB        -6.8361  -22.9483  -54.0900 C.3       19 UNK        -0.1800 
    107 C         -5.3051  -22.3160  -55.9956 C.2       19 UNK         0.5000 
    108 O         -4.5711  -21.3361  -55.8617 O.2       19 UNK        -0.5000 
    109 N         -5.9520  -22.6254  -57.1303 N.am      20 UNK        -0.5000 
    110 CA        -5.9230  -21.8743  -58.3903 C.3       20 UNK         0.1400 
    111 CB        -4.5671  -22.0850  -59.1007 C.3       20 UNK        -0.1800 
    112 C         -6.2981  -20.3913  -58.1760 C.2       20 UNK         0.5000 
    113 O         -7.4531  -20.1045  -57.8549 O.2       20 UNK        -0.5000 
    114 N         -5.3163  -19.4869  -58.2977 N.am      21 UNK        -0.5000 
    115 CA        -5.4403  -18.0477  -58.0510 C.3       21 UNK         0.1400 
    116 CB        -4.1157  -17.3644  -58.4240 C.3       21 UNK        -0.1800 
    117 C         -5.8470  -17.6823  -56.6075 C.2       21 UNK         0.5000 
    118 O         -6.4384  -16.6209  -56.4044 O.2       21 UNK        -0.5000 
    119 N         -5.5525  -18.5627  -55.6412 N.am      22 UNK        -0.5000 
    120 CA        -6.0137  -18.4544  -54.2475 C.3       22 UNK         0.1400 
    121 C         -7.5051  -18.8619  -54.0438 C.2       22 UNK         0.5000 
    122 N         -8.2048  -19.4021  -55.0363 N.am      22 UNK        -0.7600 
    123 O         -8.0449  -18.6764  -52.9569 O.2       22 UNK        -0.5000 
    124 C124       -5.0966  -19.2314  -53.2670 C.3       23 UNK        -0.0398 
    125 S125       -3.3581  -18.6735  -53.3015 S.3       23 UNK        -0.2404 
    126 C126       -3.1356  -18.1344  -51.5782 C.3       23 UNK        -0.0205 
    127 H127        2.3833  -16.4490  -47.9860 H         1 UNK         0.0600 
    128 H128        3.5313  -16.2242  -46.6526 H         1 UNK         0.0600 
    129 H129        3.9407  -17.2701  -48.0085 H         1 UNK         0.0600 
    130 H130        3.9873  -13.1628  -48.7974 H         1 UNK         0.3000 
    131 H131        2.0473  -14.3819  -46.9032 H         1 UNK         0.0600 
    132 H132        1.5231  -12.5489  -49.2872 H         1 UNK         0.0800 
    133 H133        0.5840  -12.3239  -47.8386 H         1 UNK         0.0800 
    134 H134        1.6822  -14.8372  -50.5371 H         1 UNK         0.0800 
    135 H135        0.1863  -14.2024  -51.1924 H         1 UNK         0.0800 
    136 H136       -1.9000  -15.7251  -51.1735 H         1 UNK         0.1150 
    137 H137       -1.1433  -19.9403  -51.2285 H         1 UNK         0.1150 
    138 H138        2.0446  -17.2030  -50.3808 H         1 UNK         0.1150 
    139 H139        0.9462  -20.8209  -50.5862 H         1 UNK         0.0800 
    140 H140        2.1307  -19.9517  -51.5204 H         1 UNK         0.0800 
    141 H141        0.7611  -18.5925  -48.0797 H         1 UNK         0.0800 
    142 H142        2.1152  -18.9034  -47.0518 H         1 UNK         0.0800 
    143 H143        1.4297  -21.4554  -47.2426 H         1 UNK         0.0600 
    144 H144        0.7138  -19.4817  -45.3404 H         1 UNK         0.3000 
    145 H145       -0.7736  -21.7474  -42.9729 H         1 UNK         0.0600 
    146 H146        0.9269  -20.5764  -41.5823 H         1 UNK         0.0600 
    147 H147        1.7816  -20.0552  -43.0318 H         1 UNK         0.0600 
    148 H148        1.6904  -21.7648  -42.6293 H         1 UNK         0.0600 
    149 H149       -0.4828  -18.9352  -42.8625 H         1 UNK         0.3000 
    150 H150       -3.5549  -18.0409  -44.4693 H         1 UNK         0.0600 
    151 H151       -4.1466  -18.6140  -42.1292 H         1 UNK         0.0600 
    152 H152       -3.8175  -16.8939  -42.2728 H         1 UNK         0.0600 
    153 H153       -2.6176  -17.9675  -41.5527 H         1 UNK         0.0600 
    154 H154       -1.4306  -16.5469  -43.2373 H         1 UNK         0.3000 
    155 H155        0.3633  -15.8968  -46.2588 H         1 UNK         0.0600 
    156 H156       -1.5966  -14.3149  -46.0496 H         1 UNK         0.0600 
    157 H157       -0.1058  -13.5940  -45.4757 H         1 UNK         0.0600 
    158 H158       -1.2952  -14.1845  -44.3209 H         1 UNK         0.0600 
    159 H159        0.8912  -15.0772  -43.5845 H         1 UNK         0.3000 
    160 H160        2.8425  -17.8859  -42.5699 H         1 UNK         0.0600 
    161 H161        3.6482  -15.0156  -43.2635 H         1 UNK         0.0600 
    162 H162        4.3432  -16.4559  -43.9982 H         1 UNK         0.0600 
    163 H163        4.5623  -16.1580  -42.2819 H         1 UNK         0.0600 
    164 H164        2.4328  -15.5772  -41.1242 H         1 UNK         0.3000 
    165 H165       -0.1187  -15.1467  -40.0082 H         1 UNK         0.0600 
    166 H166       -1.0066  -16.4358  -38.0397 H         1 UNK         0.0600 
    167 H167       -1.6345  -17.0269  -39.5672 H         1 UNK         0.0600 
    168 H168       -0.3702  -17.9244  -38.7389 H         1 UNK         0.0600 
    169 H169        1.5859  -14.7822  -38.6745 H         1 UNK         0.3000 
    170 H170        3.3283  -16.0857  -36.5382 H         1 UNK         0.0600 
    171 H171        5.1690  -16.7649  -38.8927 H         1 UNK         0.0600 
    172 H172        5.7193  -16.3022  -37.2827 H         1 UNK         0.0600 
    173 H173        4.8164  -17.7895  -37.5089 H         1 UNK         0.0600 
    174 H174        3.6442  -13.9623  -37.0313 H         1 UNK         0.3000 
    175 H175        3.8489  -12.0651  -37.9921 H         1 UNK         0.0600 
    176 H176        5.6537  -12.1962  -40.4702 H         1 UNK         0.0600 
    177 H177        5.4719  -10.8156  -39.3874 H         1 UNK         0.0600 
    178 H178        6.2094  -12.2995  -38.8040 H         1 UNK         0.0600 
    179 H179        3.3529  -11.2990  -40.6525 H         1 UNK         0.3000 
    180 H180       -0.0069  -12.1155  -41.0983 H         1 UNK         0.0600 
    181 H181       -0.4430   -9.6676  -41.1279 H         1 UNK         0.0600 
    182 H182        1.0049   -9.3746  -40.1636 H         1 UNK         0.0600 
    183 H183       -0.3531  -10.2571  -39.4760 H         1 UNK         0.0600 
    184 H184        1.8937  -10.2464  -42.2795 H         1 UNK         0.3000 
    185 H185        2.5171  -10.7191  -44.4891 H         1 UNK         0.0600 
    186 H186        4.5637  -12.7537  -43.3961 H         1 UNK         0.0600 
    187 H187        4.9272  -11.4767  -44.5541 H         1 UNK         0.0600 
    188 H188        4.4511  -11.0656  -42.9169 H         1 UNK         0.0600 
    189 H189        2.0530  -13.4825  -44.9792 H         1 UNK         0.3000 
    190 H190       -1.5317  -19.4137  -46.9600 H         1 UNK         0.3000 
    191 H191       -2.8416  -20.4098  -49.2512 H         1 UNK         0.0600 
    192 H192       -4.0173  -19.2434  -46.6758 H         1 UNK         0.0600 
    193 H193       -4.8862  -19.4373  -48.1945 H         1 UNK         0.0600 
    194 H194       -3.5231  -18.3315  -48.1013 H         1 UNK         0.0600 
    195 H195       -2.9337  -21.5981  -45.8628 H         1 UNK         0.3000 
    196 H196       -4.8078  -23.6887  -46.2736 H         1 UNK         0.0600 
    197 H197       -4.2137  -22.8421  -44.0298 H         1 UNK         0.0600 
    198 H198       -2.5563  -23.4130  -44.2128 H         1 UNK         0.0600 
    199 H199       -3.8833  -24.5654  -44.1165 H         1 UNK         0.0600 
    200 H200       -1.2450  -23.6242  -46.6555 H         1 UNK         0.3000 
    201 H201       -0.9609  -26.4242  -47.2529 H         1 UNK         0.0600 
    202 H202        0.9306  -25.0391  -46.4474 H         1 UNK         0.0600 
    203 H203        0.8625  -24.0467  -47.9007 H         1 UNK         0.0600 
    204 H204        1.3118  -25.7436  -48.0118 H         1 UNK         0.0600 
    205 H205       -1.3336  -23.4917  -49.2803 H         1 UNK         0.3000 
    206 H206       -1.1084  -24.7953  -51.8003 H         1 UNK         0.0600 
    207 H207       -0.7047  -22.3786  -51.4861 H         1 UNK         0.0600 
    208 H208       -1.9791  -22.6132  -52.6712 H         1 UNK         0.0600 
    209 H209       -2.3903  -22.1209  -51.0328 H         1 UNK         0.0600 
    210 H210       -3.8289  -24.4925  -49.6454 H         1 UNK         0.3000 
    211 H211       -6.0185  -24.3359  -51.1800 H         1 UNK         0.0600 
    212 H212       -5.7009  -26.0507  -48.6656 H         1 UNK         0.0600 
    213 H213       -7.2295  -25.4526  -49.2972 H         1 UNK         0.0600 
    214 H214       -6.0286  -24.3187  -48.7072 H         1 UNK         0.0600 
    215 H215       -4.0946  -27.2530  -51.0448 H         1 UNK         0.3000 
    216 H216       -6.0161  -29.1365  -52.0219 H         1 UNK         0.0600 
    217 H217       -3.9767  -30.5115  -52.4841 H         1 UNK         0.0600 
    218 H218       -3.9217  -29.8103  -50.8747 H         1 UNK         0.0600 
    219 H219       -2.9532  -29.1137  -52.1742 H         1 UNK         0.0600 
    220 H220       -4.1891  -26.6133  -53.6469 H         1 UNK         0.3000 
    221 H221       -5.4946  -27.1494  -56.1859 H         1 UNK         0.0600 
    222 H222       -2.4341  -27.3423  -55.9774 H         1 UNK         0.0600 
    223 H223       -3.5204  -28.6513  -56.4386 H         1 UNK         0.0600 
    224 H224       -3.3462  -27.2494  -57.4812 H         1 UNK         0.0600 
    225 H225       -6.2320  -25.2500  -54.7580 H         1 UNK         0.3000 
    226 H226       -4.6970  -23.0826  -54.1001 H         1 UNK         0.0600 
    227 H227       -6.9630  -23.5596  -53.1975 H         1 UNK         0.0600 
    228 H228       -6.8758  -21.9055  -53.7754 H         1 UNK         0.0600 
    229 H229       -7.6949  -23.1252  -54.7386 H         1 UNK         0.0600 
    230 H230       -6.5452  -23.4427  -57.1215 H         1 UNK         0.3000 
    231 H231       -6.7004  -22.2975  -59.0280 H         1 UNK         0.0600 
    232 H232       -4.5347  -21.5577  -60.0551 H         1 UNK         0.0600 
    233 H233       -4.4039  -23.1416  -59.3138 H         1 UNK         0.0600 
    234 H234       -3.7251  -21.7423  -58.4983 H         1 UNK         0.0600 
    235 H235       -4.3908  -19.8232  -58.5205 H         1 UNK         0.3000 
    236 H236       -6.2203  -17.6670  -58.7134 H         1 UNK         0.0600 
    237 H237       -3.2907  -17.7271  -57.8094 H         1 UNK         0.0600 
    238 H238       -3.8604  -17.5400  -59.4692 H         1 UNK         0.0600 
    239 H239       -4.1795  -16.2845  -58.2835 H         1 UNK         0.0600 
    240 H240       -5.0714  -19.4244  -55.8816 H         1 UNK         0.3000 
    241 H241       -5.9593  -17.4017  -53.9636 H         1 UNK         0.0600 
    242 H242       -9.1689  -19.6472  -54.8769 H         1 UNK         0.3800 
    243 H243       -7.8010  -19.5520  -55.9543 H         1 UNK         0.3800 
    244 H244       -5.4757  -19.1425  -52.2476 H         1 UNK         0.0800 
    245 H245       -5.1096  -20.2972  -53.4927 H         1 UNK         0.0800 
    246 H246       -3.5092  -18.9057  -50.9050 H         1 UNK         0.0800 
    247 H247       -3.7431  -17.2460  -51.3981 H         1 UNK         0.0800 
@<TRIPOS>BOND
     1    1    2 1    
     2    1  127 1    
     3    1  128 1    
     4    1  129 1    
     5    2    3 2    
     6    2    4 am   BACKBONE|DICT|INTERRES
     7    4    5 1    
     8    4  130 1    
     9    5    6 1    
    10    5   65 1    
    11    5  131 1    
    12    6    7 1    
    13    6  132 1    
    14    6  133 1    
    15    7    8 1    
    16    8    9 1    
    17    8  134 1    
    18    8  135 1    
    19    9   10 ar   
    20    9   14 ar   
    21   10   11 ar   
    22   10  136 1    
    23   11   12 ar   
    24   11  126 1    
    25   12   13 ar   
    26   12  137 1    
    27   13   14 ar   
    28   13   15 1    
    29   14  138 1    
    30   15   16 1    
    31   15  139 1    
    32   15  140 1    
    33   16   17 1    
    34   17   18 1    
    35   17  141 1    
    36   17  142 1    
    37   18   19 1    
    38   18   67 1    
    39   18  143 1    
    40   19   20 am   BACKBONE|DICT|INTERRES
    41   19  144 1    
    42   20   21 2    
    43   20   22 1    
    44   22   23 1    
    45   22   24 1    
    46   22  145 1    
    47   23  146 1    
    48   23  147 1    
    49   23  148 1    
    50   24   25 am   BACKBONE|DICT|INTERRES
    51   24  149 1    
    52   25   26 2    
    53   25   27 1    
    54   27   28 1    
    55   27   29 1    
    56   27  150 1    
    57   28  151 1    
    58   28  152 1    
    59   28  153 1    
    60   29   30 am   BACKBONE|DICT|INTERRES
    61   29  154 1    
    62   30   31 2    
    63   30   32 1    
    64   32   33 1    
    65   32   34 1    
    66   32  155 1    
    67   33  156 1    
    68   33  157 1    
    69   33  158 1    
    70   34   35 am   BACKBONE|DICT|INTERRES
    71   34  159 1    
    72   35   36 2    
    73   35   37 1    
    74   37   38 1    
    75   37   39 1    
    76   37  160 1    
    77   38  161 1    
    78   38  162 1    
    79   38  163 1    
    80   39   40 am   BACKBONE|DICT|INTERRES
    81   39  164 1    
    82   40   41 2    
    83   40   42 1    
    84   42   43 1    
    85   42   44 1    
    86   42  165 1    
    87   43  166 1    
    88   43  167 1    
    89   43  168 1    
    90   44   45 am   BACKBONE|DICT|INTERRES
    91   44  169 1    
    92   45   46 2    
    93   45   47 1    
    94   47   48 1    
    95   47   49 1    
    96   47  170 1    
    97   48  171 1    
    98   48  172 1    
    99   48  173 1    
   100   49   50 am   BACKBONE|DICT|INTERRES
   101   49  174 1    
   102   50   51 2    
   103   50   52 1    
   104   52   53 1    
   105   52   54 1    
   106   52  175 1    
   107   53  176 1    
   108   53  177 1    
   109   53  178 1    
   110   54   55 am   BACKBONE|DICT|INTERRES
   111   54  179 1    
   112   55   56 2    
   113   55   57 1    
   114   57   58 1    
   115   57   59 1    
   116   57  180 1    
   117   58  181 1    
   118   58  182 1    
   119   58  183 1    
   120   59   60 am   BACKBONE|DICT|INTERRES
   121   59  184 1    
   122   60   61 2    
   123   60   62 1    
   124   62   63 1    
   125   62   64 1    
   126   62  185 1    
   127   63  186 1    
   128   63  187 1    
   129   63  188 1    
   130   64   65 am   BACKBONE|DICT|INTERRES
   131   64  189 1    
   132   65   66 2    
   133   67   68 2    
   134   67   69 am   BACKBONE|DICT|INTERRES
   135   69   70 1    
   136   69  190 1    
   137   70   71 1    
   138   70   72 1    
   139   70  191 1    
   140   71  192 1    
   141   71  193 1    
   142   71  194 1    
   143   72   73 2    
   144   72   74 am   BACKBONE|DICT|INTERRES
   145   74   75 1    
   146   74  195 1    
   147   75   76 1    
   148   75   77 1    
   149   75  196 1    
   150   76  197 1    
   151   76  198 1    
   152   76  199 1    
   153   77   78 2    
   154   77   79 am   BACKBONE|DICT|INTERRES
   155   79   80 1    
   156   79  200 1    
   157   80   81 1    
   158   80   82 1    
   159   80  201 1    
   160   81  202 1    
   161   81  203 1    
   162   81  204 1    
   163   82   83 2    
   164   82   84 am   BACKBONE|DICT|INTERRES
   165   84   85 1    
   166   84  205 1    
   167   85   86 1    
   168   85   87 1    
   169   85  206 1    
   170   86  207 1    
   171   86  208 1    
   172   86  209 1    
   173   87   88 2    
   174   87   89 am   BACKBONE|DICT|INTERRES
   175   89   90 1    
   176   89  210 1    
   177   90   91 1    
   178   90   92 1    
   179   90  211 1    
   180   91  212 1    
   181   91  213 1    
   182   91  214 1    
   183   92   93 2    
   184   92   94 am   BACKBONE|DICT|INTERRES
   185   94   95 1    
   186   94  215 1    
   187   95   96 1    
   188   95   97 1    
   189   95  216 1    
   190   96  217 1    
   191   96  218 1    
   192   96  219 1    
   193   97   98 2    
   194   97   99 am   BACKBONE|DICT|INTERRES
   195   99  100 1    
   196   99  220 1    
   197  100  101 1    
   198  100  102 1    
   199  100  221 1    
   200  101  222 1    
   201  101  223 1    
   202  101  224 1    
   203  102  103 2    
   204  102  104 am   BACKBONE|DICT|INTERRES
   205  104  105 1    
   206  104  225 1    
   207  105  106 1    
   208  105  107 1    
   209  105  226 1    
   210  106  227 1    
   211  106  228 1    
   212  106  229 1    
   213  107  108 2    
   214  107  109 am   BACKBONE|DICT|INTERRES
   215  109  110 1    
   216  109  230 1    
   217  110  111 1    
   218  110  112 1    
   219  110  231 1    
   220  111  232 1    
   221  111  233 1    
   222  111  234 1    
   223  112  113 2    
   224  112  114 am   BACKBONE|DICT|INTERRES
   225  114  115 1    
   226  114  235 1    
   227  115  116 1    
   228  115  117 1    
   229  115  236 1    
   230  116  237 1    
   231  116  238 1    
   232  116  239 1    
   233  117  118 2    
   234  117  119 am   BACKBONE|DICT|INTERRES
   235  119  120 1    
   236  119  240 1    
   237  120  121 1    
   238  120  124 1    
   239  120  241 1    
   240  121  122 am   BACKBONE|DICT|INTERRES
   241  121  123 2    
   242  122  242 1    
   243  122  243 1    
   244  124  125 1    
   245  124  244 1    
   246  124  245 1    
   247  125  126 1    
   248  126  246 1    
   249  126  247 1    
@<TRIPOS>SUBSTRUCTURE
     1 UNK         1 GROUP             0       ****    0 ROOT    
