@<TRIPOS>MOLECULE
3R540
247   249    1
SMALL
USER_CHARGES


@<TRIPOS>ATOM
      1 CA          6.6299  -14.7236  -46.4564 C.3       0 UNK        -0.1800 
      2 C           5.3183  -14.2743  -45.8292 C.2       0 UNK         0.5000 
      3 O           4.8813  -14.8664  -44.8443 O.2       0 UNK        -0.5000 
      4 N           4.6992  -13.2335  -46.3957 N.am      1 UNK        -0.5000 
      5 CA          3.4224  -12.6545  -45.9562 C.3       1 UNK         0.1400 
      6 C6          2.3295  -12.7569  -47.0519 C.3       23 UNK        -0.0398 
      7 S7          1.9428  -14.4824  -47.4952 S.3       23 UNK        -0.2404 
      8 C8          1.4608  -14.3114  -49.2382 C.3       23 UNK        -0.0205 
      9 C9          0.6243  -15.4965  -49.6972 C.ar      23 UNK        -0.0193 
     10 C10        -0.7666  -15.3804  -49.7858 C.ar      23 UNK        -0.1150 
     11 C11        -1.5436  -16.4587  -50.2177 C.ar      23 UNK        -0.0193 
     12 C12        -0.9186  -17.6553  -50.5755 C.ar      23 UNK        -0.1150 
     13 C13         0.4692  -17.7920  -50.4746 C.ar      23 UNK        -0.0193 
     14 C14         1.2362  -16.7075  -50.0369 C.ar      23 UNK        -0.1150 
     15 C15         1.1364  -19.1091  -50.8466 C.3       23 UNK        -0.0205 
     16 S16         1.2659  -20.2399  -49.4234 S.3       23 UNK        -0.2404 
     17 C17        -0.4902  -20.6123  -49.1084 C.3       23 UNK        -0.0398 
     18 CA         -0.7011  -21.8728  -48.2401 C.3       11 UNK         0.1400 
     19 N          -0.2104  -21.7201  -46.8684 N.am      11 UNK        -0.5000 
     20 C          -0.2018  -22.6933  -45.9451 C.2       10 UNK         0.5000 
     21 O          -0.5424  -23.8559  -46.1690 O.2       10 UNK        -0.5000 
     22 CA          0.1896  -22.2828  -44.5147 C.3       10 UNK         0.1400 
     23 CB          1.7147  -22.1812  -44.3600 C.3       10 UNK        -0.1800 
     24 N          -0.4381  -21.0209  -44.1192 N.am      10 UNK        -0.5000 
     25 C          -1.7554  -20.8625  -43.9243 C.2       9 UNK         0.5000 
     26 O          -2.5737  -21.7773  -44.0096 O.2       9 UNK        -0.5000 
     27 CA         -2.2477  -19.4349  -43.6308 C.3       9 UNK         0.1400 
     28 CB         -2.1062  -19.0998  -42.1389 C.3       9 UNK        -0.1800 
     29 N          -1.5392  -18.4352  -44.4275 N.am      9 UNK        -0.5000 
     30 C          -1.6768  -18.2950  -45.7544 C.2       8 UNK         0.5000 
     31 O          -2.4411  -18.9734  -46.4392 O.2       8 UNK        -0.5000 
     32 CA         -0.7769  -17.2515  -46.4372 C.3       8 UNK         0.1400 
     33 CB         -1.4626  -15.8776  -46.4078 C.3       8 UNK        -0.1800 
     34 N           0.5550  -17.1679  -45.8318 N.am      8 UNK        -0.5000 
     35 C           1.4248  -18.1892  -45.7862 C.2       7 UNK         0.5000 
     36 O           1.1801  -19.3023  -46.2474 O.2       7 UNK        -0.5000 
     37 CA          2.7669  -17.9772  -45.0603 C.3       7 UNK         0.1400 
     38 CB          3.8801  -17.6801  -46.0744 C.3       7 UNK        -0.1800 
     39 N           2.7401  -16.9429  -44.0224 N.am      7 UNK        -0.5000 
     40 C           1.9570  -16.9850  -42.9329 C.2       6 UNK         0.5000 
     41 O           1.1739  -17.9075  -42.6967 O.2       6 UNK        -0.5000 
     42 CA          2.0187  -15.7976  -41.9483 C.3       6 UNK         0.1400 
     43 CB          3.3000  -14.9474  -42.0501 C.3       6 UNK        -0.1800 
     44 N           0.8483  -14.9190  -42.0304 N.am      6 UNK        -0.5000 
     45 C           0.3034  -14.3834  -43.1349 C.2       5 UNK         0.5000 
     46 O           0.6479  -14.6475  -44.2854 O.2       5 UNK        -0.5000 
     47 CA         -0.7764  -13.3109  -42.9002 C.3       5 UNK         0.1400 
     48 CB         -2.1177  -13.9574  -42.5185 C.3       5 UNK        -0.1800 
     49 N          -0.3886  -12.3371  -41.8730 N.am      5 UNK        -0.5000 
     50 C           0.7050  -11.5631  -41.9349 C.2       4 UNK         0.5000 
     51 O           1.4792  -11.5507  -42.8957 O.2       4 UNK        -0.5000 
     52 CA          0.9852  -10.6659  -40.7182 C.3       4 UNK         0.1400 
     53 CB          1.2064  -11.4936  -39.4382 C.3       4 UNK        -0.1800 
     54 N           2.1810   -9.8799  -40.9936 N.am      4 UNK        -0.5000 
     55 C           2.4695   -8.6602  -40.5398 C.2       3 UNK         0.5000 
     56 O           1.7391   -8.0361  -39.7687 O.2       3 UNK        -0.5000 
     57 CA          3.7793   -8.0046  -41.0328 C.3       3 UNK         0.1400 
     58 CB          4.9025   -8.1764  -39.9917 C.3       3 UNK        -0.1800 
     59 N           4.2381   -8.4042  -42.3760 N.am      3 UNK        -0.5000 
     60 C           4.6836   -9.5959  -42.7997 C.2       2 UNK         0.5000 
     61 O           4.7417  -10.6044  -42.0927 O.2       2 UNK        -0.5000 
     62 CA          5.1668   -9.6654  -44.2575 C.3       2 UNK         0.1400 
     63 CB          6.6937   -9.5070  -44.3234 C.3       2 UNK        -0.1800 
     64 N           4.8004  -10.9505  -44.8476 N.am      2 UNK        -0.5000 
     65 C           3.6506  -11.1996  -45.4883 C.2       1 UNK         0.5000 
     66 O           2.8169  -10.3265  -45.7379 O.2       1 UNK        -0.5000 
     67 C          -2.1845  -22.2830  -48.2623 C.2       11 UNK         0.5000 
     68 O          -2.5239  -23.2322  -48.9641 O.2       11 UNK        -0.5000 
     69 N          -3.0307  -21.5959  -47.4807 N.am      12 UNK        -0.5000 
     70 CA         -4.4591  -21.8882  -47.3503 C.3       12 UNK         0.1400 
     71 CB         -5.1425  -20.7920  -46.5207 C.3       12 UNK        -0.1800 
     72 C          -4.7430  -23.2802  -46.7578 C.2       12 UNK         0.5000 
     73 O          -5.6241  -23.9755  -47.2625 O.2       12 UNK        -0.5000 
     74 N          -3.9714  -23.6839  -45.7378 N.am      13 UNK        -0.5000 
     75 CA         -4.0488  -25.0059  -45.1081 C.3       13 UNK         0.1400 
     76 CB         -3.1581  -25.0345  -43.8570 C.3       13 UNK        -0.1800 
     77 C          -3.6785  -26.1546  -46.0664 C.2       13 UNK         0.5000 
     78 O          -4.3212  -27.2045  -46.0356 O.2       13 UNK        -0.5000 
     79 N          -2.6760  -25.9210  -46.9232 N.am      14 UNK        -0.5000 
     80 CA         -2.2589  -26.8324  -47.9920 C.3       14 UNK         0.1400 
     81 CB         -0.7933  -26.5246  -48.3402 C.3       14 UNK        -0.1800 
     82 C          -3.1350  -26.7283  -49.2589 C.2       14 UNK         0.5000 
     83 O          -2.9355  -27.5049  -50.1957 O.2       14 UNK        -0.5000 
     84 N          -4.0285  -25.7272  -49.3026 N.am      15 UNK        -0.5000 
     85 CA         -4.8317  -25.2757  -50.4453 C.3       15 UNK         0.1400 
     86 CB         -5.9339  -26.3047  -50.7671 C.3       15 UNK        -0.1800 
     87 C          -3.9778  -24.9196  -51.6818 C.2       15 UNK         0.5000 
     88 O          -4.4512  -25.0564  -52.8089 O.2       15 UNK        -0.5000 
     89 N          -2.7183  -24.5219  -51.4500 N.am      16 UNK        -0.5000 
     90 CA         -1.6348  -24.3288  -52.4185 C.3       16 UNK         0.1400 
     91 CB         -1.7908  -22.9703  -53.1221 C.3       16 UNK        -0.1800 
     92 C          -1.4701  -25.5150  -53.3967 C.2       16 UNK         0.5000 
     93 O          -1.3079  -25.3051  -54.5991 O.2       16 UNK        -0.5000 
     94 N          -1.5514  -26.7400  -52.8524 N.am      17 UNK        -0.5000 
     95 CA         -1.5460  -28.0249  -53.5606 C.3       17 UNK         0.1400 
     96 CB         -0.2100  -28.2597  -54.2976 C.3       17 UNK        -0.1800 
     97 C          -2.7880  -28.1952  -54.4614 C.2       17 UNK         0.5000 
     98 O          -2.6673  -28.5467  -55.6363 O.2       17 UNK        -0.5000 
     99 N          -3.9631  -27.9388  -53.8682 N.am      18 UNK        -0.5000 
    100 CA        -5.3070  -28.0427  -54.4520 C.3       18 UNK         0.1400 
    101 CB        -5.6233  -29.4953  -54.8663 C.3       18 UNK        -0.1800 
    102 C         -5.5949  -27.0176  -55.5718 C.2       18 UNK         0.5000 
    103 O         -6.4326  -27.2726  -56.4389 O.2       18 UNK        -0.5000 
    104 N         -4.9295  -25.8582  -55.5095 N.am      19 UNK        -0.5000 
    105 CA        -5.1888  -24.6893  -56.3541 C.3       19 UNK         0.1400 
    106 CB        -3.8513  -23.9991  -56.6616 C.3       19 UNK        -0.1800 
    107 C         -6.1762  -23.7004  -55.6955 C.2       19 UNK         0.5000 
    108 O         -6.6169  -22.7625  -56.3595 O.2       19 UNK        -0.5000 
    109 N         -6.4905  -23.9226  -54.4092 N.am      20 UNK        -0.5000 
    110 CA        -7.3501  -23.1350  -53.5154 C.3       20 UNK         0.1400 
    111 CB        -8.7585  -22.9174  -54.1065 C.3       20 UNK        -0.1800 
    112 C         -6.6992  -21.8284  -53.0145 C.2       20 UNK         0.5000 
    113 O         -7.3979  -20.9739  -52.4648 O.2       20 UNK        -0.5000 
    114 N         -5.3715  -21.7125  -53.1733 N.am      21 UNK        -0.5000 
    115 CA        -4.5209  -20.5943  -52.7528 C.3       21 UNK         0.1400 
    116 CB        -4.3098  -20.6403  -51.2211 C.3       21 UNK        -0.1800 
    117 C         -5.0297  -19.2413  -53.2950 C.2       21 UNK         0.5000 
    118 O         -5.1258  -19.0846  -54.5136 O.2       21 UNK        -0.5000 
    119 N         -5.3527  -18.3060  -52.3962 N.am      22 UNK        -0.5000 
    120 CA        -5.9376  -16.9941  -52.7176 C.3       22 UNK         0.1400 
    121 C         -7.4955  -17.0021  -52.7766 C.2       22 UNK         0.5000 
    122 N         -8.1754  -18.1323  -52.6166 N.am      22 UNK        -0.7600 
    123 O         -8.1076  -15.9581  -52.9859 O.2       22 UNK        -0.5000 
    124 C124       -5.4043  -15.8843  -51.7730 C.3       23 UNK        -0.0398 
    125 S125       -3.5927  -15.6816  -51.8930 S.3       23 UNK        -0.2404 
    126 C126       -3.0572  -16.3396  -50.2857 C.3       23 UNK        -0.0205 
    127 H127        6.9053  -14.1047  -47.3107 H         1 UNK         0.0600 
    128 H128        6.5458  -15.7557  -46.7969 H         1 UNK         0.0600 
    129 H129        7.4341  -14.6697  -45.7228 H         1 UNK         0.0600 
    130 H130        5.1251  -12.7797  -47.1916 H         1 UNK         0.3000 
    131 H131        3.0485  -13.1843  -45.0778 H         1 UNK         0.0600 
    132 H132        2.6360  -12.2109  -47.9456 H         1 UNK         0.0800 
    133 H133        1.3993  -12.2998  -46.7098 H         1 UNK         0.0800 
    134 H134        2.3563  -14.2237  -49.8550 H         1 UNK         0.0800 
    135 H135        0.8993  -13.3854  -49.3723 H         1 UNK         0.0800 
    136 H136       -1.2473  -14.4511  -49.5143 H         1 UNK         0.1150 
    137 H137       -1.5163  -18.4856  -50.9225 H         1 UNK         0.1150 
    138 H138        2.3098  -16.8053  -49.9563 H         1 UNK         0.1150 
    139 H139        0.5894  -19.5969  -51.6549 H         1 UNK         0.0800 
    140 H140        2.1384  -18.9177  -51.2332 H         1 UNK         0.0800 
    141 H141       -0.9788  -20.7381  -50.0767 H         1 UNK         0.0800 
    142 H142       -0.9513  -19.7438  -48.6366 H         1 UNK         0.0800 
    143 H143       -0.1384  -22.6918  -48.6932 H         1 UNK         0.0600 
    144 H144        0.1530  -20.8028  -46.6173 H         1 UNK         0.3000 
    145 H145       -0.1655  -23.0614  -43.8363 H         1 UNK         0.0600 
    146 H146        2.1443  -21.4314  -45.0241 H         1 UNK         0.0600 
    147 H147        1.9912  -21.9217  -43.3380 H         1 UNK         0.0600 
    148 H148        2.1912  -23.1339  -44.5940 H         1 UNK         0.0600 
    149 H149        0.1591  -20.2079  -44.0706 H         1 UNK         0.3000 
    150 H150       -3.3076  -19.3863  -43.8891 H         1 UNK         0.0600 
    151 H151       -2.6720  -19.8039  -41.5276 H         1 UNK         0.0600 
    152 H152       -2.4853  -18.1012  -41.9206 H         1 UNK         0.0600 
    153 H153       -1.0672  -19.1433  -41.8108 H         1 UNK         0.0600 
    154 H154       -0.8406  -17.8808  -43.9499 H         1 UNK         0.3000 
    155 H155       -0.6446  -17.5478  -47.4793 H         1 UNK         0.0600 
    156 H156       -2.4104  -15.9063  -46.9464 H         1 UNK         0.0600 
    157 H157       -0.8473  -15.1118  -46.8769 H         1 UNK         0.0600 
    158 H158       -1.6747  -15.5551  -45.3891 H         1 UNK         0.0600 
    159 H159        0.8102  -16.2786  -45.4100 H         1 UNK         0.3000 
    160 H160        3.0122  -18.9194  -44.5661 H         1 UNK         0.0600 
    161 H161        4.8524  -17.6110  -45.5868 H         1 UNK         0.0600 
    162 H162        3.6993  -16.7451  -46.6041 H         1 UNK         0.0600 
    163 H163        3.9468  -18.4705  -46.8233 H         1 UNK         0.0600 
    164 H164        3.3374  -16.1360  -44.1744 H         1 UNK         0.3000 
    165 H165        2.0051  -16.2420  -40.9520 H         1 UNK         0.0600 
    166 H166        3.2888  -14.3065  -42.9306 H         1 UNK         0.0600 
    167 H167        3.4000  -14.2950  -41.1826 H         1 UNK         0.0600 
    168 H168        4.1960  -15.5681  -42.0905 H         1 UNK         0.0600 
    169 H169        0.4596  -14.6386  -41.1422 H         1 UNK         0.3000 
    170 H170       -0.9128  -12.7690  -43.8386 H         1 UNK         0.0600 
    171 H171       -2.0592  -14.4784  -41.5622 H         1 UNK         0.0600 
    172 H172       -2.9078  -13.2099  -42.4452 H         1 UNK         0.0600 
    173 H173       -2.4305  -14.6850  -43.2680 H         1 UNK         0.0600 
    174 H174       -0.9815  -12.2823  -41.0576 H         1 UNK         0.3000 
    175 H175        0.1299  -10.0002  -40.5864 H         1 UNK         0.0600 
    176 H176        2.0279  -12.2014  -39.5575 H         1 UNK         0.0600 
    177 H177        1.4409  -10.8514  -38.5890 H         1 UNK         0.0600 
    178 H178        0.3155  -12.0630  -39.1719 H         1 UNK         0.0600 
    179 H179        2.8349  -10.3209  -41.6347 H         1 UNK         0.3000 
    180 H180        3.5698   -6.9363  -41.1070 H         1 UNK         0.0600 
    181 H181        5.1557   -9.2251  -39.8343 H         1 UNK         0.0600 
    182 H182        4.6030   -7.7676  -39.0258 H         1 UNK         0.0600 
    183 H183        5.8086   -7.6538  -40.2982 H         1 UNK         0.0600 
    184 H184        4.2096   -7.6573  -43.0566 H         1 UNK         0.3000 
    185 H185        4.7120   -8.8527  -44.8280 H         1 UNK         0.0600 
    186 H186        7.0493   -9.5422  -45.3534 H         1 UNK         0.0600 
    187 H187        7.0053   -8.5493  -43.9046 H         1 UNK         0.0600 
    188 H188        7.2057  -10.2917  -43.7648 H         1 UNK         0.0600 
    189 H189        5.4099  -11.7287  -44.6416 H         1 UNK         0.3000 
    190 H190       -2.6883  -20.7904  -46.9634 H         1 UNK         0.3000 
    191 H191       -4.8901  -21.8667  -48.3533 H         1 UNK         0.0600 
    192 H192       -4.7230  -20.7271  -45.5166 H         1 UNK         0.0600 
    193 H193       -5.0338  -19.8157  -46.9932 H         1 UNK         0.0600 
    194 H194       -6.2110  -20.9862  -46.4194 H         1 UNK         0.0600 
    195 H195       -3.3027  -23.0310  -45.3395 H         1 UNK         0.3000 
    196 H196       -5.0820  -25.1621  -44.7911 H         1 UNK         0.0600 
    197 H197       -3.4761  -24.2868  -43.1303 H         1 UNK         0.0600 
    198 H198       -2.1136  -24.8400  -44.1017 H         1 UNK         0.0600 
    199 H199       -3.2055  -26.0066  -43.3646 H         1 UNK         0.0600 
    200 H200       -2.1641  -25.0480  -46.8471 H         1 UNK         0.3000 
    201 H201       -2.3189  -27.8615  -47.6324 H         1 UNK         0.0600 
    202 H202       -0.4166  -27.2058  -49.1043 H         1 UNK         0.0600 
    203 H203       -0.1506  -26.6309  -47.4660 H         1 UNK         0.0600 
    204 H204       -0.6759  -25.5077  -48.7174 H         1 UNK         0.0600 
    205 H205       -4.0879  -25.1325  -48.4864 H         1 UNK         0.3000 
    206 H206       -5.3157  -24.3485  -50.1358 H         1 UNK         0.0600 
    207 H207       -6.5420  -26.5129  -49.8867 H         1 UNK         0.0600 
    208 H208       -5.5169  -27.2498  -51.1151 H         1 UNK         0.0600 
    209 H209       -6.6063  -25.9364  -51.5424 H         1 UNK         0.0600 
    210 H210       -2.4783  -24.3377  -50.4789 H         1 UNK         0.3000 
    211 H211       -0.7110  -24.2910  -51.8397 H         1 UNK         0.0600 
    212 H212       -1.7871  -22.1570  -52.3969 H         1 UNK         0.0600 
    213 H213       -0.9707  -22.7855  -53.8168 H         1 UNK         0.0600 
    214 H214       -2.7202  -22.9212  -53.6856 H         1 UNK         0.0600 
    215 H215       -1.7503  -26.8030  -51.8602 H         1 UNK         0.3000 
    216 H216       -1.6265  -28.7926  -52.7894 H         1 UNK         0.0600 
    217 H217       -0.1636  -29.2715  -54.7018 H         1 UNK         0.0600 
    218 H218       -0.0747  -27.5717  -55.1323 H         1 UNK         0.0600 
    219 H219        0.6382  -28.1409  -53.6235 H         1 UNK         0.0600 
    220 H220       -3.9349  -27.6149  -52.9112 H         1 UNK         0.3000 
    221 H221       -5.9942  -27.7849  -53.6451 H         1 UNK         0.0600 
    222 H222       -5.0324  -29.8103  -55.7266 H         1 UNK         0.0600 
    223 H223       -5.4264  -30.1903  -54.0501 H         1 UNK         0.0600 
    224 H224       -6.6742  -29.6055  -55.1362 H         1 UNK         0.0600 
    225 H225       -4.2964  -25.7185  -54.7295 H         1 UNK         0.3000 
    226 H226       -5.6287  -25.0063  -57.3017 H         1 UNK         0.0600 
    227 H227       -3.1636  -24.6810  -57.1624 H         1 UNK         0.0600 
    228 H228       -3.9932  -23.1395  -57.3178 H         1 UNK         0.0600 
    229 H229       -3.3636  -23.6444  -55.7551 H         1 UNK         0.0600 
    230 H230       -5.9832  -24.6710  -53.9476 H         1 UNK         0.3000 
    231 H231       -7.4735  -23.7513  -52.6240 H         1 UNK         0.0600 
    232 H232       -9.4384  -22.5164  -53.3540 H         1 UNK         0.0600 
    233 H233       -9.1872  -23.8540  -54.4630 H         1 UNK         0.0600 
    234 H234       -8.7473  -22.2122  -54.9376 H         1 UNK         0.0600 
    235 H235       -4.9028  -22.4663  -53.6534 H         1 UNK         0.3000 
    236 H236       -3.5503  -20.7418  -53.2248 H         1 UNK         0.0600 
    237 H237       -3.8869  -21.5985  -50.9191 H         1 UNK         0.0600 
    238 H238       -3.6134  -19.8692  -50.8908 H         1 UNK         0.0600 
    239 H239       -5.2432  -20.5098  -50.6725 H         1 UNK         0.0600 
    240 H240       -5.2834  -18.5327  -51.4161 H         1 UNK         0.3000 
    241 H241       -5.6253  -16.7185  -53.7267 H         1 UNK         0.0600 
    242 H242       -7.7099  -19.0255  -52.4869 H         1 UNK         0.3800 
    243 H243       -9.1814  -18.1075  -52.6637 H         1 UNK         0.3800 
    244 H244       -5.8485  -14.9204  -52.0269 H         1 UNK         0.0800 
    245 H245       -5.6936  -16.0860  -50.7405 H         1 UNK         0.0800 
    246 H246       -3.4174  -15.6880  -49.4880 H         1 UNK         0.0800 
    247 H247       -3.5137  -17.3159  -50.1168 H         1 UNK         0.0800 
@<TRIPOS>BOND
     1    1    2 1    
     2    1  127 1    
     3    1  128 1    
     4    1  129 1    
     5    2    3 2    
     6    2    4 am   BACKBONE|DICT|INTERRES
     7    4    5 1    
     8    4  130 1    
     9    5    6 1    
    10    5   65 1    
    11    5  131 1    
    12    6    7 1    
    13    6  132 1    
    14    6  133 1    
    15    7    8 1    
    16    8    9 1    
    17    8  134 1    
    18    8  135 1    
    19    9   10 ar   
    20    9   14 ar   
    21   10   11 ar   
    22   10  136 1    
    23   11   12 ar   
    24   11  126 1    
    25   12   13 ar   
    26   12  137 1    
    27   13   14 ar   
    28   13   15 1    
    29   14  138 1    
    30   15   16 1    
    31   15  139 1    
    32   15  140 1    
    33   16   17 1    
    34   17   18 1    
    35   17  141 1    
    36   17  142 1    
    37   18   19 1    
    38   18   67 1    
    39   18  143 1    
    40   19   20 am   BACKBONE|DICT|INTERRES
    41   19  144 1    
    42   20   21 2    
    43   20   22 1    
    44   22   23 1    
    45   22   24 1    
    46   22  145 1    
    47   23  146 1    
    48   23  147 1    
    49   23  148 1    
    50   24   25 am   BACKBONE|DICT|INTERRES
    51   24  149 1    
    52   25   26 2    
    53   25   27 1    
    54   27   28 1    
    55   27   29 1    
    56   27  150 1    
    57   28  151 1    
    58   28  152 1    
    59   28  153 1    
    60   29   30 am   BACKBONE|DICT|INTERRES
    61   29  154 1    
    62   30   31 2    
    63   30   32 1    
    64   32   33 1    
    65   32   34 1    
    66   32  155 1    
    67   33  156 1    
    68   33  157 1    
    69   33  158 1    
    70   34   35 am   BACKBONE|DICT|INTERRES
    71   34  159 1    
    72   35   36 2    
    73   35   37 1    
    74   37   38 1    
    75   37   39 1    
    76   37  160 1    
    77   38  161 1    
    78   38  162 1    
    79   38  163 1    
    80   39   40 am   BACKBONE|DICT|INTERRES
    81   39  164 1    
    82   40   41 2    
    83   40   42 1    
    84   42   43 1    
    85   42   44 1    
    86   42  165 1    
    87   43  166 1    
    88   43  167 1    
    89   43  168 1    
    90   44   45 am   BACKBONE|DICT|INTERRES
    91   44  169 1    
    92   45   46 2    
    93   45   47 1    
    94   47   48 1    
    95   47   49 1    
    96   47  170 1    
    97   48  171 1    
    98   48  172 1    
    99   48  173 1    
   100   49   50 am   BACKBONE|DICT|INTERRES
   101   49  174 1    
   102   50   51 2    
   103   50   52 1    
   104   52   53 1    
   105   52   54 1    
   106   52  175 1    
   107   53  176 1    
   108   53  177 1    
   109   53  178 1    
   110   54   55 am   BACKBONE|DICT|INTERRES
   111   54  179 1    
   112   55   56 2    
   113   55   57 1    
   114   57   58 1    
   115   57   59 1    
   116   57  180 1    
   117   58  181 1    
   118   58  182 1    
   119   58  183 1    
   120   59   60 am   BACKBONE|DICT|INTERRES
   121   59  184 1    
   122   60   61 2    
   123   60   62 1    
   124   62   63 1    
   125   62   64 1    
   126   62  185 1    
   127   63  186 1    
   128   63  187 1    
   129   63  188 1    
   130   64   65 am   BACKBONE|DICT|INTERRES
   131   64  189 1    
   132   65   66 2    
   133   67   68 2    
   134   67   69 am   BACKBONE|DICT|INTERRES
   135   69   70 1    
   136   69  190 1    
   137   70   71 1    
   138   70   72 1    
   139   70  191 1    
   140   71  192 1    
   141   71  193 1    
   142   71  194 1    
   143   72   73 2    
   144   72   74 am   BACKBONE|DICT|INTERRES
   145   74   75 1    
   146   74  195 1    
   147   75   76 1    
   148   75   77 1    
   149   75  196 1    
   150   76  197 1    
   151   76  198 1    
   152   76  199 1    
   153   77   78 2    
   154   77   79 am   BACKBONE|DICT|INTERRES
   155   79   80 1    
   156   79  200 1    
   157   80   81 1    
   158   80   82 1    
   159   80  201 1    
   160   81  202 1    
   161   81  203 1    
   162   81  204 1    
   163   82   83 2    
   164   82   84 am   BACKBONE|DICT|INTERRES
   165   84   85 1    
   166   84  205 1    
   167   85   86 1    
   168   85   87 1    
   169   85  206 1    
   170   86  207 1    
   171   86  208 1    
   172   86  209 1    
   173   87   88 2    
   174   87   89 am   BACKBONE|DICT|INTERRES
   175   89   90 1    
   176   89  210 1    
   177   90   91 1    
   178   90   92 1    
   179   90  211 1    
   180   91  212 1    
   181   91  213 1    
   182   91  214 1    
   183   92   93 2    
   184   92   94 am   BACKBONE|DICT|INTERRES
   185   94   95 1    
   186   94  215 1    
   187   95   96 1    
   188   95   97 1    
   189   95  216 1    
   190   96  217 1    
   191   96  218 1    
   192   96  219 1    
   193   97   98 2    
   194   97   99 am   BACKBONE|DICT|INTERRES
   195   99  100 1    
   196   99  220 1    
   197  100  101 1    
   198  100  102 1    
   199  100  221 1    
   200  101  222 1    
   201  101  223 1    
   202  101  224 1    
   203  102  103 2    
   204  102  104 am   BACKBONE|DICT|INTERRES
   205  104  105 1    
   206  104  225 1    
   207  105  106 1    
   208  105  107 1    
   209  105  226 1    
   210  106  227 1    
   211  106  228 1    
   212  106  229 1    
   213  107  108 2    
   214  107  109 am   BACKBONE|DICT|INTERRES
   215  109  110 1    
   216  109  230 1    
   217  110  111 1    
   218  110  112 1    
   219  110  231 1    
   220  111  232 1    
   221  111  233 1    
   222  111  234 1    
   223  112  113 2    
   224  112  114 am   BACKBONE|DICT|INTERRES
   225  114  115 1    
   226  114  235 1    
   227  115  116 1    
   228  115  117 1    
   229  115  236 1    
   230  116  237 1    
   231  116  238 1    
   232  116  239 1    
   233  117  118 2    
   234  117  119 am   BACKBONE|DICT|INTERRES
   235  119  120 1    
   236  119  240 1    
   237  120  121 1    
   238  120  124 1    
   239  120  241 1    
   240  121  122 am   BACKBONE|DICT|INTERRES
   241  121  123 2    
   242  122  242 1    
   243  122  243 1    
   244  124  125 1    
   245  124  244 1    
   246  124  245 1    
   247  125  126 1    
   248  126  246 1    
   249  126  247 1    
@<TRIPOS>SUBSTRUCTURE
     1 UNK         1 GROUP             0       ****    0 ROOT    
