@<TRIPOS>MOLECULE
3R540
247   249    1
SMALL
USER_CHARGES


@<TRIPOS>ATOM
      1 CA         -5.0882  -14.2130  -49.7432 C.3       0 UNK        -0.1800 
      2 C          -3.9899  -13.7629  -48.7900 C.2       0 UNK         0.5000 
      3 O          -4.2215  -12.8963  -47.9472 O.2       0 UNK        -0.5000 
      4 N          -2.7966  -14.3569  -48.9120 N.am      1 UNK        -0.5000 
      5 CA         -1.6118  -14.0600  -48.0957 C.3       1 UNK         0.1400 
      6 C6         -0.3057  -14.4944  -48.8048 C.3       23 UNK        -0.0398 
      7 S7         -0.2500  -16.2664  -49.2424 S.3       23 UNK        -0.2404 
      8 C8          1.2786  -16.2907  -50.2252 C.3       23 UNK        -0.0205 
      9 C9          1.5458  -17.6756  -50.7887 C.ar      23 UNK        -0.0193 
     10 C10         1.2576  -17.9678  -52.1237 C.ar      23 UNK        -0.1150 
     11 C11         1.5174  -19.2395  -52.6417 C.ar      23 UNK        -0.0193 
     12 C12         2.0490  -20.2274  -51.8072 C.ar      23 UNK        -0.1150 
     13 C13         2.3335  -19.9539  -50.4649 C.ar      23 UNK        -0.0193 
     14 C14         2.0944  -18.6649  -49.9708 C.ar      23 UNK        -0.1150 
     15 C15         2.9177  -21.0646  -49.5901 C.3       23 UNK        -0.0205 
     16 S16         2.6199  -20.8785  -47.7965 S.3       23 UNK        -0.2404 
     17 C17         0.8016  -21.0137  -47.7146 C.3       23 UNK        -0.0398 
     18 CA          0.3486  -22.3034  -46.9942 C.3       11 UNK         0.1400 
     19 N           0.8700  -22.4051  -45.6292 N.am      11 UNK        -0.5000 
     20 C           0.8130  -23.5050  -44.8666 C.2       10 UNK         0.5000 
     21 O           0.3489  -24.5791  -45.2465 O.2       10 UNK        -0.5000 
     22 CA          1.3125  -23.3580  -43.4185 C.3       10 UNK         0.1400 
     23 CB          2.8396  -23.5048  -43.3514 C.3       10 UNK        -0.1800 
     24 N           0.9182  -22.0750  -42.8345 N.am      10 UNK        -0.5000 
     25 C          -0.3487  -21.7378  -42.5478 C.2       9 UNK         0.5000 
     26 O          -1.3041  -22.5012  -42.6842 O.2       9 UNK        -0.5000 
     27 CA         -0.5975  -20.2886  -42.0874 C.3       9 UNK         0.1400 
     28 CB         -0.4661  -20.1787  -40.5627 C.3       9 UNK        -0.1800 
     29 N           0.3007  -19.3302  -42.7378 N.am      9 UNK        -0.5000 
     30 C           0.3035  -19.0861  -44.0565 C.2       8 UNK         0.5000 
     31 O          -0.5197  -19.5733  -44.8297 O.2       8 UNK        -0.5000 
     32 CA          1.4213  -18.1966  -44.6293 C.3       8 UNK         0.1400 
     33 CB          0.8449  -16.8967  -45.2016 C.3       8 UNK        -0.1800 
     34 N           2.4856  -17.8779  -43.6752 N.am      8 UNK        -0.5000 
     35 C           3.4362  -18.7409  -43.2912 C.2       7 UNK         0.5000 
     36 O           3.4270  -19.9331  -43.6003 O.2       7 UNK        -0.5000 
     37 CA          4.5705  -18.1971  -42.4100 C.3       7 UNK         0.1400 
     38 CB          5.6291  -17.4790  -43.2629 C.3       7 UNK        -0.1800 
     39 N           4.0775  -17.2919  -41.3710 N.am      7 UNK        -0.5000 
     40 C           4.5448  -17.2601  -40.1137 C.2       6 UNK         0.5000 
     41 O           5.4674  -17.9702  -39.7109 O.2       6 UNK        -0.5000 
     42 CA          3.8773  -16.2780  -39.1258 C.3       6 UNK         0.1400 
     43 CB          4.7221  -15.0022  -38.9866 C.3       6 UNK        -0.1800 
     44 N           2.5147  -15.9005  -39.5014 N.am      6 UNK        -0.5000 
     45 C           1.4748  -16.7403  -39.5798 C.2       5 UNK         0.5000 
     46 O           1.5267  -17.9156  -39.2199 O.2       5 UNK        -0.5000 
     47 CA          0.1698  -16.1997  -40.1991 C.3       5 UNK         0.1400 
     48 CB         -0.9233  -16.0631  -39.1289 C.3       5 UNK        -0.1800 
     49 N           0.2827  -14.9269  -40.9184 N.am      5 UNK        -0.5000 
     50 C           1.0500  -14.6653  -41.9847 C.2       4 UNK         0.5000 
     51 O           1.9089  -15.4417  -42.4106 O.2       4 UNK        -0.5000 
     52 CA          0.7840  -13.3201  -42.6926 C.3       4 UNK         0.1400 
     53 CB          1.6992  -13.1039  -43.9107 C.3       4 UNK        -0.1800 
     54 N          -0.6143  -13.2276  -43.1212 N.am      4 UNK        -0.5000 
     55 C          -1.6499  -12.9098  -42.3286 C.2       3 UNK         0.5000 
     56 O          -1.5159  -12.5708  -41.1517 O.2       3 UNK        -0.5000 
     57 CA         -3.0717  -13.0390  -42.9156 C.3       3 UNK         0.1400 
     58 CB         -3.5524  -11.6858  -43.4599 C.3       3 UNK        -0.1800 
     59 N          -3.1809  -14.0425  -43.9753 N.am      3 UNK        -0.5000 
     60 C          -2.9409  -15.3543  -43.8360 C.2       2 UNK         0.5000 
     61 O          -2.7159  -15.8951  -42.7532 O.2       2 UNK        -0.5000 
     62 CA         -2.9191  -16.2070  -45.1227 C.3       2 UNK         0.1400 
     63 CB         -4.2310  -16.9949  -45.2570 C.3       2 UNK        -0.1800 
     64 N          -2.6876  -15.4750  -46.3760 N.am      2 UNK        -0.5000 
     65 C          -1.6876  -14.6238  -46.6588 C.2       1 UNK         0.5000 
     66 O          -0.8461  -14.2642  -45.8363 O.2       1 UNK        -0.5000 
     67 C          -1.1853  -22.4315  -47.0082 C.2       11 UNK         0.5000 
     68 O          -1.7187  -23.1765  -47.8273 O.2       11 UNK        -0.5000 
     69 N          -1.8618  -21.7550  -46.0691 N.am      12 UNK        -0.5000 
     70 CA         -3.3075  -21.8337  -45.8616 C.3       12 UNK         0.1400 
     71 CB         -3.7307  -20.8132  -44.7954 C.3       12 UNK        -0.1800 
     72 C          -3.7772  -23.2516  -45.4869 C.2       12 UNK         0.5000 
     73 O          -4.7638  -23.7261  -46.0490 O.2       12 UNK        -0.5000 
     74 N          -3.0350  -23.9243  -44.5945 N.am      13 UNK        -0.5000 
     75 CA         -3.2630  -25.3186  -44.2022 C.3       13 UNK         0.1400 
     76 CB         -2.3509  -25.6744  -43.0187 C.3       13 UNK        -0.1800 
     77 C          -3.0651  -26.3149  -45.3624 C.2       13 UNK         0.5000 
     78 O          -3.8068  -27.2932  -45.4570 O.2       13 UNK        -0.5000 
     79 N          -2.0977  -26.0280  -46.2437 N.am      14 UNK        -0.5000 
     80 CA         -1.8337  -26.7688  -47.4801 C.3       14 UNK         0.1400 
     81 CB         -0.3856  -26.4930  -47.9179 C.3       14 UNK        -0.1800 
     82 C          -2.8180  -26.4363  -48.6238 C.2       14 UNK         0.5000 
     83 O          -2.7539  -27.0818  -49.6708 O.2       14 UNK        -0.5000 
     84 N          -3.6895  -25.4370  -48.4168 N.am      15 UNK        -0.5000 
     85 CA         -4.6569  -24.8696  -49.3619 C.3       15 UNK         0.1400 
     86 CB         -5.7064  -25.9175  -49.7874 C.3       15 UNK        -0.1800 
     87 C          -4.0005  -24.1500  -50.5603 C.2       15 UNK         0.5000 
     88 O          -4.6213  -24.0231  -51.6161 O.2       15 UNK        -0.5000 
     89 N          -2.7729  -23.6513  -50.3718 N.am      16 UNK        -0.5000 
     90 CA         -2.0161  -22.8553  -51.3335 C.3       16 UNK         0.1400 
     91 CB         -0.5143  -23.1341  -51.1416 C.3       16 UNK        -0.1800 
     92 C          -2.3757  -21.3678  -51.1677 C.2       16 UNK         0.5000 
     93 O          -1.5549  -20.5697  -50.7149 O.2       16 UNK        -0.5000 
     94 N          -3.6288  -21.0344  -51.4967 N.am      17 UNK        -0.5000 
     95 CA         -4.1471  -19.6711  -51.5285 C.3       17 UNK         0.1400 
     96 CB         -5.6807  -19.7222  -51.5939 C.3       17 UNK        -0.1800 
     97 C          -3.5760  -18.9012  -52.7319 C.2       17 UNK         0.5000 
     98 O          -3.6834  -19.3832  -53.8652 O.2       17 UNK        -0.5000 
     99 N          -3.0021  -17.7205  -52.4604 N.am      18 UNK        -0.5000 
    100 CA        -2.3893  -16.8180  -53.4374 C.3       18 UNK         0.1400 
    101 CB        -1.9156  -15.5416  -52.7262 C.3       18 UNK        -0.1800 
    102 C         -3.3442  -16.4685  -54.5913 C.2       18 UNK         0.5000 
    103 O         -4.4611  -16.0104  -54.3388 O.2       18 UNK        -0.5000 
    104 N         -2.8943  -16.7389  -55.8236 N.am      19 UNK        -0.5000 
    105 CA        -3.6047  -16.6574  -57.1069 C.3       19 UNK         0.1400 
    106 CB        -4.0542  -15.2169  -57.4160 C.3       19 UNK        -0.1800 
    107 C         -4.7760  -17.6516  -57.2507 C.2       19 UNK         0.5000 
    108 O         -4.8601  -18.3331  -58.2725 O.2       19 UNK        -0.5000 
    109 N         -5.6422  -17.7285  -56.2330 N.am      20 UNK        -0.5000 
    110 CA        -6.8551  -18.5453  -56.1817 C.3       20 UNK         0.1400 
    111 CB        -7.5966  -18.2586  -54.8675 C.3       20 UNK        -0.1800 
    112 C         -6.6028  -20.0546  -56.3477 C.2       20 UNK         0.5000 
    113 O         -7.3605  -20.7142  -57.0611 O.2       20 UNK        -0.5000 
    114 N         -5.5411  -20.5622  -55.7101 N.am      21 UNK        -0.5000 
    115 CA        -5.0706  -21.9391  -55.8555 C.3       21 UNK         0.1400 
    116 CB        -4.9690  -22.5929  -54.4724 C.3       21 UNK        -0.1800 
    117 C         -3.7086  -21.9827  -56.5641 C.2       21 UNK         0.5000 
    118 O         -3.4640  -22.9160  -57.3297 O.2       21 UNK        -0.5000 
    119 N         -2.8488  -20.9858  -56.3066 N.am      22 UNK        -0.5000 
    120 CA        -1.5045  -20.8821  -56.9014 C.3       22 UNK         0.1400 
    121 C         -1.4806  -20.6005  -58.4340 C.2       22 UNK         0.5000 
    122 N         -2.5436  -20.0892  -59.0433 N.am      22 UNK        -0.7600 
    123 O         -0.4710  -20.8542  -59.0852 O.2       22 UNK        -0.5000 
    124 C124       -0.6138  -19.8525  -56.1636 C.3       23 UNK        -0.0398 
    125 S125       -0.4202  -20.1862  -54.3802 S.3       23 UNK        -0.2404 
    126 C126        1.2532  -19.5295  -54.1104 C.3       23 UNK        -0.0205 
    127 H127       -5.9344  -14.6080  -49.1812 H         1 UNK         0.0600 
    128 H128       -4.7415  -14.9890  -50.4263 H         1 UNK         0.0600 
    129 H129       -5.4369  -13.3689  -50.3381 H         1 UNK         0.0600 
    130 H130       -2.6613  -15.0703  -49.6134 H         1 UNK         0.3000 
    131 H131       -1.5607  -12.9749  -47.9816 H         1 UNK         0.0600 
    132 H132       -0.1901  -13.9138  -49.7211 H         1 UNK         0.0800 
    133 H133        0.5659  -14.2545  -48.1925 H         1 UNK         0.0800 
    134 H134        1.2072  -15.5601  -51.0325 H         1 UNK         0.0800 
    135 H135        2.1171  -15.9804  -49.5997 H         1 UNK         0.0800 
    136 H136        0.8415  -17.2029  -52.7635 H         1 UNK         0.1150 
    137 H137        2.2452  -21.2120  -52.2077 H         1 UNK         0.1150 
    138 H138        2.3207  -18.4206  -48.9433 H         1 UNK         0.1150 
    139 H139        2.5205  -22.0312  -49.9043 H         1 UNK         0.0800 
    140 H140        3.9945  -21.1025  -49.7586 H         1 UNK         0.0800 
    141 H141        0.3886  -20.9784  -48.7241 H         1 UNK         0.0800 
    142 H142        0.4185  -20.1260  -47.2108 H         1 UNK         0.0800 
    143 H143        0.7449  -23.1514  -47.5570 H         1 UNK         0.0600 
    144 H144        1.2677  -21.5652  -45.2373 H         1 UNK         0.3000 
    145 H145        0.8647  -24.1580  -42.8251 H         1 UNK         0.0600 
    146 H146        3.1961  -23.4516  -42.3226 H         1 UNK         0.0600 
    147 H147        3.1563  -24.4669  -43.7562 H         1 UNK         0.0600 
    148 H148        3.3462  -22.7256  -43.9225 H         1 UNK         0.0600 
    149 H149        1.6470  -21.3831  -42.7240 H         1 UNK         0.3000 
    150 H150       -1.6223  -20.0268  -42.3582 H         1 UNK         0.0600 
    151 H151       -1.1029  -20.9092  -40.0619 H         1 UNK         0.0600 
    152 H152       -0.7718  -19.1944  -40.2104 H         1 UNK         0.0600 
    153 H153        0.5581  -20.3547  -40.2316 H         1 UNK         0.0600 
    154 H154        1.0159  -18.9052  -42.1673 H         1 UNK         0.3000 
    155 H155        1.8703  -18.7478  -45.4582 H         1 UNK         0.0600 
    156 H156        0.3100  -16.3263  -44.4422 H         1 UNK         0.0600 
    157 H157        1.6277  -16.2596  -45.6129 H         1 UNK         0.0600 
    158 H158        0.1447  -17.1058  -46.0112 H         1 UNK         0.0600 
    159 H159        2.5008  -16.9177  -43.3412 H         1 UNK         0.3000 
    160 H160        5.0405  -19.0677  -41.9472 H         1 UNK         0.0600 
    161 H161        6.4862  -17.1828  -42.6580 H         1 UNK         0.0600 
    162 H162        5.2250  -16.5815  -43.7328 H         1 UNK         0.0600 
    163 H163        6.0001  -18.1291  -44.0564 H         1 UNK         0.0600 
    164 H164        3.3186  -16.6678  -41.6233 H         1 UNK         0.3000 
    165 H165        3.8336  -16.7706  -38.1523 H         1 UNK         0.0600 
    166 H166        4.3043  -14.3314  -38.2357 H         1 UNK         0.0600 
    167 H167        5.7409  -15.2396  -38.6772 H         1 UNK         0.0600 
    168 H168        4.7840  -14.4567  -39.9292 H         1 UNK         0.0600 
    169 H169        2.3805  -14.9549  -39.8272 H         1 UNK         0.3000 
    170 H170       -0.1626  -16.9411  -40.9278 H         1 UNK         0.0600 
    171 H171       -1.0704  -17.0019  -38.5932 H         1 UNK         0.0600 
    172 H172       -0.6699  -15.2993  -38.3927 H         1 UNK         0.0600 
    173 H173       -1.8803  -15.7945  -39.5775 H         1 UNK         0.0600 
    174 H174       -0.3889  -14.2123  -40.6596 H         1 UNK         0.3000 
    175 H175        0.9933  -12.5245  -41.9748 H         1 UNK         0.0600 
    176 H176        1.5028  -12.1427  -44.3856 H         1 UNK         0.0600 
    177 H177        1.5622  -13.8817  -44.6623 H         1 UNK         0.0600 
    178 H178        2.7495  -13.1135  -43.6170 H         1 UNK         0.0600 
    179 H179       -0.8044  -13.5450  -44.0689 H         1 UNK         0.3000 
    180 H180       -3.7361  -13.3397  -42.1031 H         1 UNK         0.0600 
    181 H181       -2.9388  -11.3484  -44.2963 H         1 UNK         0.0600 
    182 H182       -3.5086  -10.9160  -42.6883 H         1 UNK         0.0600 
    183 H183       -4.5858  -11.7424  -43.8026 H         1 UNK         0.0600 
    184 H184       -3.3523  -13.6948  -44.9076 H         1 UNK         0.3000 
    185 H185       -2.1054  -16.9254  -45.0133 H         1 UNK         0.0600 
    186 H186       -4.4282  -17.5850  -44.3608 H         1 UNK         0.0600 
    187 H187       -5.0833  -16.3310  -45.4066 H         1 UNK         0.0600 
    188 H188       -4.1927  -17.6873  -46.0981 H         1 UNK         0.0600 
    189 H189       -3.3288  -15.6820  -47.1269 H         1 UNK         0.3000 
    190 H190       -1.3515  -21.1124  -45.4681 H         1 UNK         0.3000 
    191 H191       -3.7878  -21.5602  -46.8034 H         1 UNK         0.0600 
    192 H192       -3.3867  -19.8120  -45.0524 H         1 UNK         0.0600 
    193 H193       -4.8165  -20.7740  -44.7024 H         1 UNK         0.0600 
    194 H194       -3.3264  -21.0616  -43.8144 H         1 UNK         0.0600 
    195 H195       -2.2691  -23.4431  -44.1326 H         1 UNK         0.3000 
    196 H196       -4.2992  -25.4040  -43.8685 H         1 UNK         0.0600 
    197 H197       -2.5185  -26.7009  -42.6905 H         1 UNK         0.0600 
    198 H198       -2.5421  -25.0245  -42.1647 H         1 UNK         0.0600 
    199 H199       -1.2967  -25.5810  -43.2802 H         1 UNK         0.0600 
    200 H200       -1.4918  -25.2365  -46.0575 H         1 UNK         0.3000 
    201 H201       -1.9268  -27.8366  -47.2725 H         1 UNK         0.0600 
    202 H202        0.3219  -26.7629  -47.1337 H         1 UNK         0.0600 
    203 H203       -0.2316  -25.4413  -48.1596 H         1 UNK         0.0600 
    204 H204       -0.1248  -27.0738  -48.8033 H         1 UNK         0.0600 
    205 H205       -3.6442  -24.9624  -47.5239 H         1 UNK         0.3000 
    206 H206       -5.1846  -24.0917  -48.8088 H         1 UNK         0.0600 
    207 H207       -6.1505  -26.4053  -48.9197 H         1 UNK         0.0600 
    208 H208       -6.5184  -25.4515  -50.3468 H         1 UNK         0.0600 
    209 H209       -5.2754  -26.6898  -50.4246 H         1 UNK         0.0600 
    210 H210       -2.3743  -23.7016  -49.4358 H         1 UNK         0.3000 
    211 H211       -2.2802  -23.1513  -52.3510 H         1 UNK         0.0600 
    212 H212       -0.1773  -22.8755  -50.1382 H         1 UNK         0.0600 
    213 H213        0.0803  -22.5551  -51.8490 H         1 UNK         0.0600 
    214 H214       -0.2860  -24.1868  -51.3081 H         1 UNK         0.0600 
    215 H215       -4.2409  -21.7633  -51.8389 H         1 UNK         0.3000 
    216 H216       -3.8582  -19.1674  -50.6035 H         1 UNK         0.0600 
    217 H217       -6.1038  -18.7171  -51.6115 H         1 UNK         0.0600 
    218 H218       -6.0952  -20.2341  -50.7253 H         1 UNK         0.0600 
    219 H219       -6.0293  -20.2433  -52.4866 H         1 UNK         0.0600 
    220 H220       -2.9595  -17.4204  -51.4991 H         1 UNK         0.3000 
    221 H221       -1.5134  -17.3279  -53.8425 H         1 UNK         0.0600 
    222 H222       -1.1696  -15.7688  -51.9675 H         1 UNK         0.0600 
    223 H223       -1.4552  -14.8488  -53.4317 H         1 UNK         0.0600 
    224 H224       -2.7414  -15.0176  -52.2433 H         1 UNK         0.0600 
    225 H225       -1.9594  -17.1113  -55.8949 H         1 UNK         0.3000 
    226 H226       -2.8697  -16.9352  -57.8643 H         1 UNK         0.0600 
    227 H227       -3.2128  -14.5251  -57.3776 H         1 UNK         0.0600 
    228 H228       -4.4832  -15.1516  -58.4167 H         1 UNK         0.0600 
    229 H229       -4.8113  -14.8632  -56.7159 H         1 UNK         0.0600 
    230 H230       -5.4563  -17.1328  -55.4299 H         1 UNK         0.3000 
    231 H231       -7.4944  -18.2288  -57.0082 H         1 UNK         0.0600 
    232 H232       -6.9754  -18.4840  -54.0008 H         1 UNK         0.0600 
    233 H233       -8.5046  -18.8580  -54.7888 H         1 UNK         0.0600 
    234 H234       -7.8916  -17.2112  -54.8026 H         1 UNK         0.0600 
    235 H235       -4.9742  -19.9521  -55.1276 H         1 UNK         0.3000 
    236 H236       -5.7714  -22.5265  -56.4521 H         1 UNK         0.0600 
    237 H237       -5.9113  -22.5270  -53.9284 H         1 UNK         0.0600 
    238 H238       -4.7150  -23.6500  -54.5586 H         1 UNK         0.0600 
    239 H239       -4.1950  -22.1228  -53.8692 H         1 UNK         0.0600 
    240 H240       -3.0857  -20.2980  -55.6009 H         1 UNK         0.3000 
    241 H241       -1.0324  -21.8584  -56.7746 H         1 UNK         0.0600 
    242 H242       -3.3825  -19.8376  -58.5369 H         1 UNK         0.3800 
    243 H243       -2.5034  -19.9238  -60.0363 H         1 UNK         0.3800 
    244 H244        0.3796  -19.8346  -56.6162 H         1 UNK         0.0800 
    245 H245       -1.0181  -18.8477  -56.2817 H         1 UNK         0.0800 
    246 H246        1.3846  -18.6137  -54.6889 H         1 UNK         0.0800 
    247 H247        1.9860  -20.2417  -54.4926 H         1 UNK         0.0800 
@<TRIPOS>BOND
     1    1    2 1    
     2    1  127 1    
     3    1  128 1    
     4    1  129 1    
     5    2    3 2    
     6    2    4 am   BACKBONE|DICT|INTERRES
     7    4    5 1    
     8    4  130 1    
     9    5    6 1    
    10    5   65 1    
    11    5  131 1    
    12    6    7 1    
    13    6  132 1    
    14    6  133 1    
    15    7    8 1    
    16    8    9 1    
    17    8  134 1    
    18    8  135 1    
    19    9   10 ar   
    20    9   14 ar   
    21   10   11 ar   
    22   10  136 1    
    23   11   12 ar   
    24   11  126 1    
    25   12   13 ar   
    26   12  137 1    
    27   13   14 ar   
    28   13   15 1    
    29   14  138 1    
    30   15   16 1    
    31   15  139 1    
    32   15  140 1    
    33   16   17 1    
    34   17   18 1    
    35   17  141 1    
    36   17  142 1    
    37   18   19 1    
    38   18   67 1    
    39   18  143 1    
    40   19   20 am   BACKBONE|DICT|INTERRES
    41   19  144 1    
    42   20   21 2    
    43   20   22 1    
    44   22   23 1    
    45   22   24 1    
    46   22  145 1    
    47   23  146 1    
    48   23  147 1    
    49   23  148 1    
    50   24   25 am   BACKBONE|DICT|INTERRES
    51   24  149 1    
    52   25   26 2    
    53   25   27 1    
    54   27   28 1    
    55   27   29 1    
    56   27  150 1    
    57   28  151 1    
    58   28  152 1    
    59   28  153 1    
    60   29   30 am   BACKBONE|DICT|INTERRES
    61   29  154 1    
    62   30   31 2    
    63   30   32 1    
    64   32   33 1    
    65   32   34 1    
    66   32  155 1    
    67   33  156 1    
    68   33  157 1    
    69   33  158 1    
    70   34   35 am   BACKBONE|DICT|INTERRES
    71   34  159 1    
    72   35   36 2    
    73   35   37 1    
    74   37   38 1    
    75   37   39 1    
    76   37  160 1    
    77   38  161 1    
    78   38  162 1    
    79   38  163 1    
    80   39   40 am   BACKBONE|DICT|INTERRES
    81   39  164 1    
    82   40   41 2    
    83   40   42 1    
    84   42   43 1    
    85   42   44 1    
    86   42  165 1    
    87   43  166 1    
    88   43  167 1    
    89   43  168 1    
    90   44   45 am   BACKBONE|DICT|INTERRES
    91   44  169 1    
    92   45   46 2    
    93   45   47 1    
    94   47   48 1    
    95   47   49 1    
    96   47  170 1    
    97   48  171 1    
    98   48  172 1    
    99   48  173 1    
   100   49   50 am   BACKBONE|DICT|INTERRES
   101   49  174 1    
   102   50   51 2    
   103   50   52 1    
   104   52   53 1    
   105   52   54 1    
   106   52  175 1    
   107   53  176 1    
   108   53  177 1    
   109   53  178 1    
   110   54   55 am   BACKBONE|DICT|INTERRES
   111   54  179 1    
   112   55   56 2    
   113   55   57 1    
   114   57   58 1    
   115   57   59 1    
   116   57  180 1    
   117   58  181 1    
   118   58  182 1    
   119   58  183 1    
   120   59   60 am   BACKBONE|DICT|INTERRES
   121   59  184 1    
   122   60   61 2    
   123   60   62 1    
   124   62   63 1    
   125   62   64 1    
   126   62  185 1    
   127   63  186 1    
   128   63  187 1    
   129   63  188 1    
   130   64   65 am   BACKBONE|DICT|INTERRES
   131   64  189 1    
   132   65   66 2    
   133   67   68 2    
   134   67   69 am   BACKBONE|DICT|INTERRES
   135   69   70 1    
   136   69  190 1    
   137   70   71 1    
   138   70   72 1    
   139   70  191 1    
   140   71  192 1    
   141   71  193 1    
   142   71  194 1    
   143   72   73 2    
   144   72   74 am   BACKBONE|DICT|INTERRES
   145   74   75 1    
   146   74  195 1    
   147   75   76 1    
   148   75   77 1    
   149   75  196 1    
   150   76  197 1    
   151   76  198 1    
   152   76  199 1    
   153   77   78 2    
   154   77   79 am   BACKBONE|DICT|INTERRES
   155   79   80 1    
   156   79  200 1    
   157   80   81 1    
   158   80   82 1    
   159   80  201 1    
   160   81  202 1    
   161   81  203 1    
   162   81  204 1    
   163   82   83 2    
   164   82   84 am   BACKBONE|DICT|INTERRES
   165   84   85 1    
   166   84  205 1    
   167   85   86 1    
   168   85   87 1    
   169   85  206 1    
   170   86  207 1    
   171   86  208 1    
   172   86  209 1    
   173   87   88 2    
   174   87   89 am   BACKBONE|DICT|INTERRES
   175   89   90 1    
   176   89  210 1    
   177   90   91 1    
   178   90   92 1    
   179   90  211 1    
   180   91  212 1    
   181   91  213 1    
   182   91  214 1    
   183   92   93 2    
   184   92   94 am   BACKBONE|DICT|INTERRES
   185   94   95 1    
   186   94  215 1    
   187   95   96 1    
   188   95   97 1    
   189   95  216 1    
   190   96  217 1    
   191   96  218 1    
   192   96  219 1    
   193   97   98 2    
   194   97   99 am   BACKBONE|DICT|INTERRES
   195   99  100 1    
   196   99  220 1    
   197  100  101 1    
   198  100  102 1    
   199  100  221 1    
   200  101  222 1    
   201  101  223 1    
   202  101  224 1    
   203  102  103 2    
   204  102  104 am   BACKBONE|DICT|INTERRES
   205  104  105 1    
   206  104  225 1    
   207  105  106 1    
   208  105  107 1    
   209  105  226 1    
   210  106  227 1    
   211  106  228 1    
   212  106  229 1    
   213  107  108 2    
   214  107  109 am   BACKBONE|DICT|INTERRES
   215  109  110 1    
   216  109  230 1    
   217  110  111 1    
   218  110  112 1    
   219  110  231 1    
   220  111  232 1    
   221  111  233 1    
   222  111  234 1    
   223  112  113 2    
   224  112  114 am   BACKBONE|DICT|INTERRES
   225  114  115 1    
   226  114  235 1    
   227  115  116 1    
   228  115  117 1    
   229  115  236 1    
   230  116  237 1    
   231  116  238 1    
   232  116  239 1    
   233  117  118 2    
   234  117  119 am   BACKBONE|DICT|INTERRES
   235  119  120 1    
   236  119  240 1    
   237  120  121 1    
   238  120  124 1    
   239  120  241 1    
   240  121  122 am   BACKBONE|DICT|INTERRES
   241  121  123 2    
   242  122  242 1    
   243  122  243 1    
   244  124  125 1    
   245  124  244 1    
   246  124  245 1    
   247  125  126 1    
   248  126  246 1    
   249  126  247 1    
@<TRIPOS>SUBSTRUCTURE
     1 UNK         1 GROUP             0       ****    0 ROOT    
