@<TRIPOS>MOLECULE
3R540
247   249    1
SMALL
USER_CHARGES


@<TRIPOS>ATOM
      1 CA         -2.9358  -15.8755  -50.0542 C.3       0 UNK        -0.1800 
      2 C          -2.2374  -15.5530  -48.7440 C.2       0 UNK         0.5000 
      3 O          -1.0543  -15.2136  -48.7490 O.2       0 UNK        -0.5000 
      4 N          -2.9690  -15.6399  -47.6259 N.am      1 UNK        -0.5000 
      5 CA         -2.4600  -15.4701  -46.2595 C.3       1 UNK         0.1400 
      6 C6         -3.5339  -15.7520  -45.1768 C.3       23 UNK        -0.0398 
      7 S7         -4.5484  -17.2420  -45.4613 S.3       23 UNK        -0.2404 
      8 C8         -3.4168  -18.5955  -45.0136 C.3       23 UNK        -0.0205 
      9 C9         -2.5320  -19.0117  -46.1813 C.ar      23 UNK        -0.0193 
     10 C10        -3.1097  -19.5697  -47.3262 C.ar      23 UNK        -0.1150 
     11 C11        -2.3112  -19.9854  -48.3938 C.ar      23 UNK        -0.0193 
     12 C12        -0.9284  -19.8164  -48.3219 C.ar      23 UNK        -0.1150 
     13 C13        -0.3356  -19.2581  -47.1888 C.ar      23 UNK        -0.0193 
     14 C14        -1.1415  -18.8707  -46.1143 C.ar      23 UNK        -0.1150 
     15 C15         1.1724  -19.0579  -47.1418 C.3       23 UNK        -0.0205 
     16 S16         2.1122  -20.6060  -47.3209 S.3       23 UNK        -0.2404 
     17 C17         1.6897  -21.4691  -45.7763 C.3       23 UNK        -0.0398 
     18 CA          1.2086  -22.9249  -45.9850 C.3       11 UNK         0.1400 
     19 N           1.2170  -23.6562  -44.7165 N.am      11 UNK        -0.5000 
     20 C           1.0644  -24.9803  -44.5802 C.2       10 UNK         0.5000 
     21 O           0.9476  -25.7606  -45.5243 O.2       10 UNK        -0.5000 
     22 CA          0.9765  -25.5061  -43.1356 C.3       10 UNK         0.1400 
     23 CB          2.3801  -25.7225  -42.5508 C.3       10 UNK        -0.1800 
     24 N           0.2191  -24.6045  -42.2631 N.am      10 UNK        -0.5000 
     25 C          -1.0958  -24.3705  -42.3836 C.2       9 UNK         0.5000 
     26 O          -1.8120  -24.9339  -43.2093 O.2       9 UNK        -0.5000 
     27 CA         -1.7043  -23.2982  -41.4614 C.3       9 UNK         0.1400 
     28 CB         -2.1720  -23.9261  -40.1403 C.3       9 UNK        -0.1800 
     29 N          -0.7852  -22.1929  -41.1767 N.am      9 UNK        -0.5000 
     30 C          -0.3449  -21.3165  -42.0888 C.2       8 UNK         0.5000 
     31 O          -0.6469  -21.3618  -43.2835 O.2       8 UNK        -0.5000 
     32 CA          0.6589  -20.2635  -41.5869 C.3       8 UNK         0.1400 
     33 CB          2.0994  -20.7430  -41.8218 C.3       8 UNK        -0.1800 
     34 N           0.4852  -18.9612  -42.2288 N.am      8 UNK        -0.5000 
     35 C          -0.5294  -18.1202  -41.9864 C.2       7 UNK         0.5000 
     36 O          -1.4724  -18.3964  -41.2429 O.2       7 UNK        -0.5000 
     37 CA         -0.4720  -16.7341  -42.6746 C.3       7 UNK         0.1400 
     38 CB         -1.2523  -15.6533  -41.8986 C.3       7 UNK        -0.1800 
     39 N           0.8825  -16.2532  -42.9796 N.am      7 UNK        -0.5000 
     40 C           1.8923  -16.0574  -42.1155 C.2       6 UNK         0.5000 
     41 O           1.8412  -16.3198  -40.9136 O.2       6 UNK        -0.5000 
     42 CA          3.1836  -15.4590  -42.7037 C.3       6 UNK         0.1400 
     43 CB          4.0697  -16.5701  -43.2885 C.3       6 UNK        -0.1800 
     44 N           2.9318  -14.4541  -43.7382 N.am      6 UNK        -0.5000 
     45 C           2.3442  -13.2663  -43.5413 C.2       5 UNK         0.5000 
     46 O           1.9692  -12.8725  -42.4362 O.2       5 UNK        -0.5000 
     47 CA          2.1182  -12.3610  -44.7697 C.3       5 UNK         0.1400 
     48 CB          3.1589  -11.2271  -44.8302 C.3       5 UNK        -0.1800 
     49 N           2.0203  -13.0639  -46.0558 N.am      5 UNK        -0.5000 
     50 C           2.9643  -13.7070  -46.7573 C.2       4 UNK         0.5000 
     51 O           4.1230  -13.8591  -46.3718 O.2       4 UNK        -0.5000 
     52 CA          2.5283  -14.3186  -48.1016 C.3       4 UNK         0.1400 
     53 CB          2.1998  -15.8051  -47.9247 C.3       4 UNK        -0.1800 
     54 N           1.3624  -13.6488  -48.6766 N.am      4 UNK        -0.5000 
     55 C           1.3935  -12.4495  -49.2726 C.2       3 UNK         0.5000 
     56 O           2.4249  -11.8077  -49.4749 O.2       3 UNK        -0.5000 
     57 CA          0.0331  -11.8548  -49.6719 C.3       3 UNK         0.1400 
     58 CB         -0.4942  -12.4963  -50.9656 C.3       3 UNK        -0.1800 
     59 N          -0.9549  -12.0131  -48.6037 N.am      3 UNK        -0.5000 
     60 C          -0.9609  -11.3051  -47.4648 C.2       2 UNK         0.5000 
     61 O          -0.1493  -10.4160  -47.2083 O.2       2 UNK        -0.5000 
     62 CA         -2.0501  -11.6472  -46.4322 C.3       2 UNK         0.1400 
     63 CB         -3.2618  -10.7186  -46.6034 C.3       2 UNK        -0.1800 
     64 N          -2.4988  -13.0367  -46.5213 N.am      2 UNK        -0.5000 
     65 C          -1.8284  -14.0845  -46.0230 C.2       1 UNK         0.5000 
     66 O          -0.7558  -13.9956  -45.4259 O.2       1 UNK        -0.5000 
     67 C          -0.1768  -23.0082  -46.6604 C.2       11 UNK         0.5000 
     68 O          -0.2550  -23.2636  -47.8645 O.2       11 UNK        -0.5000 
     69 N          -1.2376  -22.8582  -45.8529 N.am      12 UNK        -0.5000 
     70 CA         -2.6316  -23.0108  -46.2637 C.3       12 UNK         0.1400 
     71 CB         -3.5569  -22.5643  -45.1224 C.3       12 UNK        -0.1800 
     72 C          -2.9666  -24.4403  -46.7198 C.2       12 UNK         0.5000 
     73 O          -3.5871  -24.6061  -47.7696 O.2       12 UNK        -0.5000 
     74 N          -2.5223  -25.4416  -45.9468 N.am      13 UNK        -0.5000 
     75 CA         -2.6989  -26.8667  -46.2354 C.3       13 UNK         0.1400 
     76 CB         -2.2371  -27.6953  -45.0272 C.3       13 UNK        -0.1800 
     77 C          -1.9701  -27.3184  -47.5142 C.2       13 UNK         0.5000 
     78 O          -2.5225  -28.1068  -48.2823 O.2       13 UNK        -0.5000 
     79 N          -0.7585  -26.7902  -47.7337 N.am      14 UNK        -0.5000 
     80 CA          0.0329  -27.0044  -48.9467 C.3       14 UNK         0.1400 
     81 CB          1.4870  -26.5962  -48.6634 C.3       14 UNK        -0.1800 
     82 C          -0.5038  -26.2349  -50.1708 C.2       14 UNK         0.5000 
     83 O          -0.1530  -26.5838  -51.2984 O.2       14 UNK        -0.5000 
     84 N          -1.3102  -25.1909  -49.9230 N.am      15 UNK        -0.5000 
     85 CA         -1.8303  -24.2041  -50.8757 C.3       15 UNK         0.1400 
     86 CB         -2.8062  -24.8567  -51.8757 C.3       15 UNK        -0.1800 
     87 C          -0.7030  -23.4010  -51.5659 C.2       15 UNK         0.5000 
     88 O          -0.8382  -23.0101  -52.7264 O.2       15 UNK        -0.5000 
     89 N           0.4056  -23.1946  -50.8406 N.am      16 UNK        -0.5000 
     90 CA          1.7170  -22.8495  -51.3949 C.3       16 UNK         0.1400 
     91 CB          2.7867  -23.0678  -50.3154 C.3       16 UNK        -0.1800 
     92 C           1.8332  -21.4447  -52.0144 C.2       16 UNK         0.5000 
     93 O           2.6997  -21.2401  -52.8657 O.2       16 UNK        -0.5000 
     94 N           0.9689  -20.5077  -51.6015 N.am      17 UNK        -0.5000 
     95 CA          0.9088  -19.1559  -52.1678 C.3       17 UNK         0.1400 
     96 CB          0.1880  -18.2119  -51.1936 C.3       17 UNK        -0.1800 
     97 C           0.2390  -19.1158  -53.5554 C.2       17 UNK         0.5000 
     98 O           0.4985  -18.1826  -54.3155 O.2       17 UNK        -0.5000 
     99 N          -0.6047  -20.1183  -53.8554 N.am      18 UNK        -0.5000 
    100 CA        -1.3358  -20.3233  -55.1131 C.3       18 UNK         0.1400 
    101 CB        -0.3560  -20.6997  -56.2435 C.3       18 UNK        -0.1800 
    102 C         -2.2789  -19.1611  -55.5045 C.2       18 UNK         0.5000 
    103 O         -2.5615  -18.9689  -56.6891 O.2       18 UNK        -0.5000 
    104 N         -2.7530  -18.4069  -54.5046 N.am      19 UNK        -0.5000 
    105 CA        -3.7022  -17.3061  -54.6605 C.3       19 UNK         0.1400 
    106 CB        -3.6471  -16.4404  -53.3921 C.3       19 UNK        -0.1800 
    107 C         -5.1347  -17.8198  -54.8925 C.2       19 UNK         0.5000 
    108 O         -5.4195  -18.9929  -54.6465 O.2       19 UNK        -0.5000 
    109 N         -6.0377  -16.9154  -55.2935 N.am      20 UNK        -0.5000 
    110 CA        -7.4683  -17.1951  -55.4763 C.3       20 UNK         0.1400 
    111 CB        -8.1428  -15.9648  -56.1025 C.3       20 UNK        -0.1800 
    112 C         -8.1944  -17.6071  -54.1767 C.2       20 UNK         0.5000 
    113 O         -9.2030  -18.3106  -54.2399 O.2       20 UNK        -0.5000 
    114 N         -7.6596  -17.1741  -53.0267 N.am      21 UNK        -0.5000 
    115 CA        -8.1193  -17.5528  -51.6905 C.3       21 UNK         0.1400 
    116 CB        -7.6298  -16.4932  -50.6898 C.3       21 UNK        -0.1800 
    117 C         -7.6415  -18.9538  -51.2543 C.2       21 UNK         0.5000 
    118 O         -8.2243  -19.5226  -50.3300 O.2       21 UNK        -0.5000 
    119 N         -6.5859  -19.4724  -51.8935 N.am      22 UNK        -0.5000 
    120 CA        -5.9739  -20.7725  -51.5905 C.3       22 UNK         0.1400 
    121 C         -6.6862  -21.9427  -52.3221 C.2       22 UNK         0.5000 
    122 N         -6.6082  -23.1517  -51.7818 N.am      22 UNK        -0.7600 
    123 O         -7.2834  -21.7814  -53.3839 O.2       22 UNK        -0.5000 
    124 C124       -4.4543  -20.7651  -51.8976 C.3       23 UNK        -0.0398 
    125 S125       -3.5539  -19.5667  -50.8536 S.3       23 UNK        -0.2404 
    126 C126       -2.9289  -20.6992  -49.5818 C.3       23 UNK        -0.0205 
    127 H127       -3.9410  -16.2660  -49.8938 H         1 UNK         0.0600 
    128 H128       -2.3656  -16.6264  -50.5995 H         1 UNK         0.0600 
    129 H129       -3.0066  -14.9816  -50.6734 H         1 UNK         0.0600 
    130 H130       -3.9297  -15.9460  -47.6875 H         1 UNK         0.3000 
    131 H131       -1.6577  -16.1973  -46.1358 H         1 UNK         0.0600 
    132 H132       -4.2345  -14.9171  -45.1144 H         1 UNK         0.0800 
    133 H133       -3.0761  -15.8238  -44.1905 H         1 UNK         0.0800 
    134 H134       -2.8264  -18.3213  -44.1395 H         1 UNK         0.0800 
    135 H135       -4.0221  -19.4495  -44.7108 H         1 UNK         0.0800 
    136 H136       -4.1813  -19.7027  -47.3750 H         1 UNK         0.1150 
    137 H137       -0.3019  -20.1480  -49.1344 H         1 UNK         0.1150 
    138 H138       -0.6836  -18.4575  -45.2296 H         1 UNK         0.1150 
    139 H139        1.4529  -18.4067  -47.9667 H         1 UNK         0.0800 
    140 H140        1.4776  -18.5505  -46.2255 H         1 UNK         0.0800 
    141 H141        0.9554  -20.8908  -45.2160 H         1 UNK         0.0800 
    142 H142        2.5964  -21.4694  -45.1707 H         1 UNK         0.0800 
    143 H143        1.9209  -23.4242  -46.6457 H         1 UNK         0.0600 
    144 H144        1.2527  -23.0963  -43.8788 H         1 UNK         0.3000 
    145 H145        0.4637  -26.4698  -43.1607 H         1 UNK         0.0600 
    146 H146        2.3281  -26.1622  -41.5546 H         1 UNK         0.0600 
    147 H147        2.9614  -26.4026  -43.1750 H         1 UNK         0.0600 
    148 H148        2.9369  -24.7875  -42.4769 H         1 UNK         0.0600 
    149 H149        0.7351  -24.1131  -41.5486 H         1 UNK         0.3000 
    150 H150       -2.5779  -22.8848  -41.9699 H         1 UNK         0.0600 
    151 H151       -1.3375  -24.3357  -39.5698 H         1 UNK         0.0600 
    152 H152       -2.8757  -24.7395  -40.3228 H         1 UNK         0.0600 
    153 H153       -2.6807  -23.1933  -39.5136 H         1 UNK         0.0600 
    154 H154       -0.4837  -22.0968  -40.2176 H         1 UNK         0.3000 
    155 H155        0.5149  -20.1301  -40.5125 H         1 UNK         0.0600 
    156 H156        2.3221  -20.8485  -42.8830 H         1 UNK         0.0600 
    157 H157        2.2755  -21.7105  -41.3500 H         1 UNK         0.0600 
    158 H158        2.8197  -20.0423  -41.3988 H         1 UNK         0.0600 
    159 H159        1.2129  -18.6669  -42.8613 H         1 UNK         0.3000 
    160 H160       -0.9650  -16.8558  -43.6372 H         1 UNK         0.0600 
    161 H161       -0.8367  -15.4935  -40.9033 H         1 UNK         0.0600 
    162 H162       -2.2995  -15.9316  -41.7750 H         1 UNK         0.0600 
    163 H163       -1.2316  -14.6996  -42.4267 H         1 UNK         0.0600 
    164 H164        1.0391  -15.9719  -43.9370 H         1 UNK         0.3000 
    165 H165        3.7287  -14.9762  -41.8899 H         1 UNK         0.0600 
    166 H166        5.0242  -16.1715  -43.6330 H         1 UNK         0.0600 
    167 H167        4.2883  -17.3317  -42.5387 H         1 UNK         0.0600 
    168 H168        3.5908  -17.0675  -44.1330 H         1 UNK         0.0600 
    169 H169        3.2843  -14.6470  -44.6678 H         1 UNK         0.3000 
    170 H170        1.1412  -11.8972  -44.6249 H         1 UNK         0.0600 
    171 H171        3.1341  -10.6284  -43.9189 H         1 UNK         0.0600 
    172 H172        4.1741  -11.6092  -44.9392 H         1 UNK         0.0600 
    173 H173        2.9597  -10.5555  -45.6656 H         1 UNK         0.0600 
    174 H174        1.0814  -13.1012  -46.4296 H         1 UNK         0.3000 
    175 H175        3.3653  -14.2305  -48.7974 H         1 UNK         0.0600 
    176 H176        1.3555  -15.9508  -47.2489 H         1 UNK         0.0600 
    177 H177        1.9450  -16.2608  -48.8817 H         1 UNK         0.0600 
    178 H178        3.0511  -16.3521  -47.5172 H         1 UNK         0.0600 
    179 H179        0.4731  -14.1396  -48.6045 H         1 UNK         0.3000 
    180 H180        0.1731  -10.7877  -49.8577 H         1 UNK         0.0600 
    181 H181       -0.6489  -13.5699  -50.8562 H         1 UNK         0.0600 
    182 H182        0.2104  -12.3508  -51.7853 H         1 UNK         0.0600 
    183 H183       -1.4416  -12.0506  -51.2691 H         1 UNK         0.0600 
    184 H184       -1.6260  -12.7585  -48.7136 H         1 UNK         0.3000 
    185 H185       -1.6297  -11.4771  -45.4384 H         1 UNK         0.0600 
    186 H186       -2.9670   -9.6719  -46.5167 H         1 UNK         0.0600 
    187 H187       -3.7343  -10.8468  -47.5781 H         1 UNK         0.0600 
    188 H188       -4.0143  -10.9071  -45.8375 H         1 UNK         0.0600 
    189 H189       -3.3669  -13.2055  -47.0088 H         1 UNK         0.3000 
    190 H190       -1.0763  -22.5970  -44.8866 H         1 UNK         0.3000 
    191 H191       -2.7950  -22.3510  -47.1137 H         1 UNK         0.0600 
    192 H192       -3.2471  -21.6018  -44.7193 H         1 UNK         0.0600 
    193 H193       -4.5838  -22.4612  -45.4743 H         1 UNK         0.0600 
    194 H194       -3.5639  -23.2771  -44.2985 H         1 UNK         0.0600 
    195 H195       -2.0728  -25.2118  -45.0641 H         1 UNK         0.3000 
    196 H196       -3.7660  -27.0455  -46.3821 H         1 UNK         0.0600 
    197 H197       -2.3765  -28.7619  -45.2076 H         1 UNK         0.0600 
    198 H198       -2.8063  -27.4397  -44.1333 H         1 UNK         0.0600 
    199 H199       -1.1812  -27.5335  -44.8089 H         1 UNK         0.0600 
    200 H200       -0.3413  -26.2034  -47.0177 H         1 UNK         0.3000 
    201 H201        0.0164  -28.0684  -49.1913 H         1 UNK         0.0600 
    202 H202        2.1167  -26.7433  -49.5417 H         1 UNK         0.0600 
    203 H203        1.9124  -27.1912  -47.8551 H         1 UNK         0.0600 
    204 H204        1.5588  -25.5460  -48.3774 H         1 UNK         0.0600 
    205 H205       -1.5102  -24.9879  -48.9520 H         1 UNK         0.3000 
    206 H206       -2.4074  -23.5031  -50.2768 H         1 UNK         0.0600 
    207 H207       -3.5846  -25.4161  -51.3566 H         1 UNK         0.0600 
    208 H208       -3.3029  -24.1030  -52.4876 H         1 UNK         0.0600 
    209 H209       -2.2958  -25.5410  -52.5537 H         1 UNK         0.0600 
    210 H210        0.3827  -23.4620  -49.8621 H         1 UNK         0.3000 
    211 H211        1.9185  -23.5572  -52.2020 H         1 UNK         0.0600 
    212 H212        2.5903  -22.4647  -49.4312 H         1 UNK         0.0600 
    213 H213        3.7792  -22.8025  -50.6820 H         1 UNK         0.0600 
    214 H214        2.8258  -24.1119  -50.0060 H         1 UNK         0.0600 
    215 H215        0.2861  -20.7576  -50.9039 H         1 UNK         0.3000 
    216 H216        1.9291  -18.7857  -52.2901 H         1 UNK         0.0600 
    217 H217        0.1325  -17.1992  -51.5954 H         1 UNK         0.0600 
    218 H218        0.7146  -18.1486  -50.2424 H         1 UNK         0.0600 
    219 H219       -0.8312  -18.5387  -50.9955 H         1 UNK         0.0600 
    220 H220       -0.7089  -20.8658  -53.1797 H         1 UNK         0.3000 
    221 H221       -1.9835  -21.1845  -54.9425 H         1 UNK         0.0600 
    222 H222        0.2917  -19.8644  -56.5111 H         1 UNK         0.0600 
    223 H223        0.2789  -21.5360  -55.9503 H         1 UNK         0.0600 
    224 H224       -0.8910  -21.0018  -57.1445 H         1 UNK         0.0600 
    225 H225       -2.4940  -18.6494  -53.5603 H         1 UNK         0.3000 
    226 H226       -3.4038  -16.7000  -55.5184 H         1 UNK         0.0600 
    227 H227       -2.6298  -16.1061  -53.1864 H         1 UNK         0.0600 
    228 H228       -4.2643  -15.5472  -53.4930 H         1 UNK         0.0600 
    229 H229       -4.0042  -16.9887  -52.5197 H         1 UNK         0.0600 
    230 H230       -5.7395  -15.9670  -55.4717 H         1 UNK         0.3000 
    231 H231       -7.5584  -18.0281  -56.1766 H         1 UNK         0.0600 
    232 H232       -8.0635  -15.0898  -55.4561 H         1 UNK         0.0600 
    233 H233       -9.2037  -16.1479  -56.2782 H         1 UNK         0.0600 
    234 H234       -7.6946  -15.7151  -57.0644 H         1 UNK         0.0600 
    235 H235       -6.8425  -16.5844  -53.0735 H         1 UNK         0.3000 
    236 H236       -9.2113  -17.5562  -51.6801 H         1 UNK         0.0600 
    237 H237       -8.0052  -15.5027  -50.9476 H         1 UNK         0.0600 
    238 H238       -7.9772  -16.7182  -49.6805 H         1 UNK         0.0600 
    239 H239       -6.5405  -16.4431  -50.6576 H         1 UNK         0.0600 
    240 H240       -6.2243  -19.0053  -52.7151 H         1 UNK         0.3000 
    241 H241       -6.0873  -20.9559  -50.5199 H         1 UNK         0.0600 
    242 H242       -6.1397  -23.3165  -50.9048 H         1 UNK         0.3800 
    243 H243       -7.0581  -23.9223  -52.2512 H         1 UNK         0.3800 
    244 H244       -4.0242  -21.7568  -51.7496 H         1 UNK         0.0800 
    245 H245       -4.2712  -20.5233  -52.9441 H         1 UNK         0.0800 
    246 H246       -3.7340  -21.3506  -49.2381 H         1 UNK         0.0800 
    247 H247       -2.1777  -21.3380  -50.0397 H         1 UNK         0.0800 
@<TRIPOS>BOND
     1    1    2 1    
     2    1  127 1    
     3    1  128 1    
     4    1  129 1    
     5    2    3 2    
     6    2    4 am   BACKBONE|DICT|INTERRES
     7    4    5 1    
     8    4  130 1    
     9    5    6 1    
    10    5   65 1    
    11    5  131 1    
    12    6    7 1    
    13    6  132 1    
    14    6  133 1    
    15    7    8 1    
    16    8    9 1    
    17    8  134 1    
    18    8  135 1    
    19    9   10 ar   
    20    9   14 ar   
    21   10   11 ar   
    22   10  136 1    
    23   11   12 ar   
    24   11  126 1    
    25   12   13 ar   
    26   12  137 1    
    27   13   14 ar   
    28   13   15 1    
    29   14  138 1    
    30   15   16 1    
    31   15  139 1    
    32   15  140 1    
    33   16   17 1    
    34   17   18 1    
    35   17  141 1    
    36   17  142 1    
    37   18   19 1    
    38   18   67 1    
    39   18  143 1    
    40   19   20 am   BACKBONE|DICT|INTERRES
    41   19  144 1    
    42   20   21 2    
    43   20   22 1    
    44   22   23 1    
    45   22   24 1    
    46   22  145 1    
    47   23  146 1    
    48   23  147 1    
    49   23  148 1    
    50   24   25 am   BACKBONE|DICT|INTERRES
    51   24  149 1    
    52   25   26 2    
    53   25   27 1    
    54   27   28 1    
    55   27   29 1    
    56   27  150 1    
    57   28  151 1    
    58   28  152 1    
    59   28  153 1    
    60   29   30 am   BACKBONE|DICT|INTERRES
    61   29  154 1    
    62   30   31 2    
    63   30   32 1    
    64   32   33 1    
    65   32   34 1    
    66   32  155 1    
    67   33  156 1    
    68   33  157 1    
    69   33  158 1    
    70   34   35 am   BACKBONE|DICT|INTERRES
    71   34  159 1    
    72   35   36 2    
    73   35   37 1    
    74   37   38 1    
    75   37   39 1    
    76   37  160 1    
    77   38  161 1    
    78   38  162 1    
    79   38  163 1    
    80   39   40 am   BACKBONE|DICT|INTERRES
    81   39  164 1    
    82   40   41 2    
    83   40   42 1    
    84   42   43 1    
    85   42   44 1    
    86   42  165 1    
    87   43  166 1    
    88   43  167 1    
    89   43  168 1    
    90   44   45 am   BACKBONE|DICT|INTERRES
    91   44  169 1    
    92   45   46 2    
    93   45   47 1    
    94   47   48 1    
    95   47   49 1    
    96   47  170 1    
    97   48  171 1    
    98   48  172 1    
    99   48  173 1    
   100   49   50 am   BACKBONE|DICT|INTERRES
   101   49  174 1    
   102   50   51 2    
   103   50   52 1    
   104   52   53 1    
   105   52   54 1    
   106   52  175 1    
   107   53  176 1    
   108   53  177 1    
   109   53  178 1    
   110   54   55 am   BACKBONE|DICT|INTERRES
   111   54  179 1    
   112   55   56 2    
   113   55   57 1    
   114   57   58 1    
   115   57   59 1    
   116   57  180 1    
   117   58  181 1    
   118   58  182 1    
   119   58  183 1    
   120   59   60 am   BACKBONE|DICT|INTERRES
   121   59  184 1    
   122   60   61 2    
   123   60   62 1    
   124   62   63 1    
   125   62   64 1    
   126   62  185 1    
   127   63  186 1    
   128   63  187 1    
   129   63  188 1    
   130   64   65 am   BACKBONE|DICT|INTERRES
   131   64  189 1    
   132   65   66 2    
   133   67   68 2    
   134   67   69 am   BACKBONE|DICT|INTERRES
   135   69   70 1    
   136   69  190 1    
   137   70   71 1    
   138   70   72 1    
   139   70  191 1    
   140   71  192 1    
   141   71  193 1    
   142   71  194 1    
   143   72   73 2    
   144   72   74 am   BACKBONE|DICT|INTERRES
   145   74   75 1    
   146   74  195 1    
   147   75   76 1    
   148   75   77 1    
   149   75  196 1    
   150   76  197 1    
   151   76  198 1    
   152   76  199 1    
   153   77   78 2    
   154   77   79 am   BACKBONE|DICT|INTERRES
   155   79   80 1    
   156   79  200 1    
   157   80   81 1    
   158   80   82 1    
   159   80  201 1    
   160   81  202 1    
   161   81  203 1    
   162   81  204 1    
   163   82   83 2    
   164   82   84 am   BACKBONE|DICT|INTERRES
   165   84   85 1    
   166   84  205 1    
   167   85   86 1    
   168   85   87 1    
   169   85  206 1    
   170   86  207 1    
   171   86  208 1    
   172   86  209 1    
   173   87   88 2    
   174   87   89 am   BACKBONE|DICT|INTERRES
   175   89   90 1    
   176   89  210 1    
   177   90   91 1    
   178   90   92 1    
   179   90  211 1    
   180   91  212 1    
   181   91  213 1    
   182   91  214 1    
   183   92   93 2    
   184   92   94 am   BACKBONE|DICT|INTERRES
   185   94   95 1    
   186   94  215 1    
   187   95   96 1    
   188   95   97 1    
   189   95  216 1    
   190   96  217 1    
   191   96  218 1    
   192   96  219 1    
   193   97   98 2    
   194   97   99 am   BACKBONE|DICT|INTERRES
   195   99  100 1    
   196   99  220 1    
   197  100  101 1    
   198  100  102 1    
   199  100  221 1    
   200  101  222 1    
   201  101  223 1    
   202  101  224 1    
   203  102  103 2    
   204  102  104 am   BACKBONE|DICT|INTERRES
   205  104  105 1    
   206  104  225 1    
   207  105  106 1    
   208  105  107 1    
   209  105  226 1    
   210  106  227 1    
   211  106  228 1    
   212  106  229 1    
   213  107  108 2    
   214  107  109 am   BACKBONE|DICT|INTERRES
   215  109  110 1    
   216  109  230 1    
   217  110  111 1    
   218  110  112 1    
   219  110  231 1    
   220  111  232 1    
   221  111  233 1    
   222  111  234 1    
   223  112  113 2    
   224  112  114 am   BACKBONE|DICT|INTERRES
   225  114  115 1    
   226  114  235 1    
   227  115  116 1    
   228  115  117 1    
   229  115  236 1    
   230  116  237 1    
   231  116  238 1    
   232  116  239 1    
   233  117  118 2    
   234  117  119 am   BACKBONE|DICT|INTERRES
   235  119  120 1    
   236  119  240 1    
   237  120  121 1    
   238  120  124 1    
   239  120  241 1    
   240  121  122 am   BACKBONE|DICT|INTERRES
   241  121  123 2    
   242  122  242 1    
   243  122  243 1    
   244  124  125 1    
   245  124  244 1    
   246  124  245 1    
   247  125  126 1    
   248  126  246 1    
   249  126  247 1    
@<TRIPOS>SUBSTRUCTURE
     1 UNK         1 GROUP             0       ****    0 ROOT    
