@<TRIPOS>MOLECULE
3R540
247   249    1
SMALL
USER_CHARGES


@<TRIPOS>ATOM
      1 CA         -1.1980  -15.3873  -43.0517 C.3       0 UNK        -0.1800 
      2 C          -1.4074  -14.0559  -43.7549 C.2       0 UNK         0.5000 
      3 O          -1.3327  -13.0064  -43.1164 O.2       0 UNK        -0.5000 
      4 N          -1.6627  -14.0893  -45.0691 N.am      1 UNK        -0.5000 
      5 CA         -1.9014  -12.9063  -45.9068 C.3       1 UNK         0.1400 
      6 C6         -2.4298  -13.2809  -47.3128 C.3       23 UNK        -0.0398 
      7 S7         -1.3375  -14.4093  -48.2514 S.3       23 UNK        -0.2404 
      8 C8         -2.4825  -15.7661  -48.6442 C.3       23 UNK        -0.0205 
      9 C9         -1.8853  -16.7001  -49.6831 C.ar      23 UNK        -0.0193 
     10 C10        -1.8653  -16.3207  -51.0282 C.ar      23 UNK        -0.1150 
     11 C11        -1.3331  -17.1730  -51.9982 C.ar      23 UNK        -0.0193 
     12 C12        -0.8172  -18.4138  -51.6153 C.ar      23 UNK        -0.1150 
     13 C13        -0.8337  -18.8081  -50.2741 C.ar      23 UNK        -0.0193 
     14 C14        -1.3704  -17.9451  -49.3110 C.ar      23 UNK        -0.1150 
     15 C15        -0.3447  -20.1974  -49.8920 C.3       23 UNK        -0.0205 
     16 S16         0.7738  -20.1967  -48.4534 S.3       23 UNK        -0.2404 
     17 C17         0.9403  -21.9892  -48.1559 C.3       23 UNK        -0.0398 
     18 CA         -0.0003  -22.6028  -47.0850 C.3       11 UNK         0.1400 
     19 N           0.4319  -22.3389  -45.7094 N.am      11 UNK        -0.5000 
     20 C           0.0216  -23.0770  -44.6661 C.2       10 UNK         0.5000 
     21 O          -0.7559  -24.0258  -44.7704 O.2       10 UNK        -0.5000 
     22 CA          0.5326  -22.6840  -43.2715 C.3       10 UNK         0.1400 
     23 CB          1.9829  -23.1491  -43.0729 C.3       10 UNK        -0.1800 
     24 N           0.4242  -21.2510  -43.0067 N.am      10 UNK        -0.5000 
     25 C          -0.7295  -20.5700  -42.9575 C.2       9 UNK         0.5000 
     26 O          -1.8353  -21.0822  -43.1280 O.2       9 UNK        -0.5000 
     27 CA         -0.6297  -19.0526  -42.7236 C.3       9 UNK         0.1400 
     28 CB         -0.3668  -18.7330  -41.2446 C.3       9 UNK        -0.1800 
     29 N           0.4032  -18.4323  -43.5506 N.am      9 UNK        -0.5000 
     30 C           0.3799  -18.3998  -44.8904 C.2       8 UNK         0.5000 
     31 O          -0.5458  -18.8394  -45.5704 O.2       8 UNK        -0.5000 
     32 CA          1.6189  -17.8113  -45.5819 C.3       8 UNK         0.1400 
     33 CB          1.5581  -16.2766  -45.6116 C.3       8 UNK        -0.1800 
     34 N           2.8597  -18.2521  -44.9443 N.am      8 UNK        -0.5000 
     35 C           3.3100  -19.5159  -44.9580 C.2       7 UNK         0.5000 
     36 O           2.7407  -20.4464  -45.5297 O.2       7 UNK        -0.5000 
     37 CA          4.5945  -19.7915  -44.1561 C.3       7 UNK         0.1400 
     38 CB          5.8370  -19.3701  -44.9549 C.3       7 UNK        -0.1800 
     39 N           4.5988  -19.1186  -42.8560 N.am      7 UNK        -0.5000 
     40 C           3.7594  -19.4120  -41.8529 C.2       6 UNK         0.5000 
     41 O           2.9045  -20.2933  -41.9122 O.2       6 UNK        -0.5000 
     42 CA          3.8624  -18.5489  -40.5839 C.3       6 UNK         0.1400 
     43 CB          4.9399  -19.1029  -39.6399 C.3       6 UNK        -0.1800 
     44 N           4.1320  -17.1351  -40.8548 N.am      6 UNK        -0.5000 
     45 C           3.3275  -16.3256  -41.5552 C.2       5 UNK         0.5000 
     46 O           2.3039  -16.7015  -42.1328 O.2       5 UNK        -0.5000 
     47 CA          3.7593  -14.8520  -41.6530 C.3       5 UNK         0.1400 
     48 CB          4.4312  -14.5903  -43.0085 C.3       5 UNK        -0.1800 
     49 N           2.6223  -13.9459  -41.4843 N.am      5 UNK        -0.5000 
     50 C           1.9038  -13.8330  -40.3570 C.2       4 UNK         0.5000 
     51 O           2.1991  -14.4087  -39.3076 O.2       4 UNK        -0.5000 
     52 CA          0.6354  -12.9550  -40.4139 C.3       4 UNK         0.1400 
     53 CB          0.2169  -12.4048  -39.0335 C.3       4 UNK        -0.1800 
     54 N           0.6904  -11.8847  -41.4163 N.am      4 UNK        -0.5000 
     55 C           1.5028  -10.8176  -41.4205 C.2       3 UNK         0.5000 
     56 O           2.3589  -10.6041  -40.5598 O.2       3 UNK        -0.5000 
     57 CA          1.3156   -9.8293  -42.5934 C.3       3 UNK         0.1400 
     58 CB          2.3895   -8.7214  -42.6243 C.3       3 UNK        -0.1800 
     59 N           1.2261  -10.4847  -43.9039 N.am      3 UNK        -0.5000 
     60 C           2.1311  -11.2951  -44.4707 C.2       2 UNK         0.5000 
     61 O           3.1671  -11.6568  -43.9136 O.2       2 UNK        -0.5000 
     62 CA          1.8005  -11.7995  -45.8909 C.3       2 UNK         0.1400 
     63 CB          2.8967  -12.7112  -46.4705 C.3       2 UNK        -0.1800 
     64 N           0.5293  -12.5207  -45.9135 N.am      2 UNK        -0.5000 
     65 C          -0.6841  -11.9576  -45.9860 C.2       1 UNK         0.5000 
     66 O          -0.8629  -10.7410  -46.0640 O.2       1 UNK        -0.5000 
     67 C          -1.4998  -22.2904  -47.2947 C.2       11 UNK         0.5000 
     68 O          -2.1693  -23.0207  -48.0276 O.2       11 UNK        -0.5000 
     69 N          -2.0153  -21.2485  -46.6230 N.am      12 UNK        -0.5000 
     70 CA         -3.4377  -20.9071  -46.6040 C.3       12 UNK         0.1400 
     71 CB         -3.6439  -19.5280  -45.9611 C.3       12 UNK        -0.1800 
     72 C          -4.2835  -21.9796  -45.8945 C.2       12 UNK         0.5000 
     73 O          -5.3252  -22.3676  -46.4223 O.2       12 UNK        -0.5000 
     74 N          -3.8017  -22.4812  -44.7470 N.am      13 UNK        -0.5000 
     75 CA         -4.4176  -23.5774  -43.9915 C.3       13 UNK         0.1400 
     76 CB         -3.7059  -23.7374  -42.6398 C.3       13 UNK        -0.1800 
     77 C          -4.4277  -24.9115  -44.7630 C.2       13 UNK         0.5000 
     78 O          -5.3942  -25.6673  -44.6589 O.2       13 UNK        -0.5000 
     79 N          -3.3762  -25.1542  -45.5573 N.am      14 UNK        -0.5000 
     80 CA         -3.2607  -26.2816  -46.4858 C.3       14 UNK         0.1400 
     81 CB         -1.7810  -26.4615  -46.8613 C.3       14 UNK        -0.1800 
     82 C          -4.1245  -26.1298  -47.7577 C.2       14 UNK         0.5000 
     83 O          -4.2110  -27.0811  -48.5349 O.2       14 UNK        -0.5000 
     84 N          -4.7290  -24.9478  -47.9563 N.am      15 UNK        -0.5000 
     85 CA         -5.5538  -24.5358  -49.0961 C.3       15 UNK         0.1400 
     86 CB         -6.8303  -25.3948  -49.2058 C.3       15 UNK        -0.1800 
     87 C          -4.7719  -24.4522  -50.4224 C.2       15 UNK         0.5000 
     88 O          -5.3695  -24.5636  -51.4950 O.2       15 UNK        -0.5000 
     89 N          -3.4553  -24.2068  -50.3428 N.am      16 UNK        -0.5000 
     90 CA         -2.5680  -24.0715  -51.5005 C.3       16 UNK         0.1400 
     91 CB         -1.1098  -24.0166  -51.0298 C.3       16 UNK        -0.1800 
     92 C          -2.9072  -22.8425  -52.3618 C.2       16 UNK         0.5000 
     93 O          -2.7705  -22.9013  -53.5832 O.2       16 UNK        -0.5000 
     94 N          -3.4027  -21.7794  -51.7104 N.am      17 UNK        -0.5000 
     95 CA         -3.9127  -20.5601  -52.3398 C.3       17 UNK         0.1400 
     96 CB         -4.3315  -19.5688  -51.2428 C.3       17 UNK        -0.1800 
     97 C          -5.1009  -20.8265  -53.2824 C.2       17 UNK         0.5000 
     98 O          -5.1989  -20.1918  -54.3306 O.2       17 UNK        -0.5000 
     99 N          -5.9688  -21.7732  -52.8999 N.am      18 UNK        -0.5000 
    100 CA        -7.1090  -22.2136  -53.6979 C.3       18 UNK         0.1400 
    101 CB        -8.1889  -22.7962  -52.7726 C.3       18 UNK        -0.1800 
    102 C         -6.6854  -23.2388  -54.7614 C.2       18 UNK         0.5000 
    103 O         -7.1120  -23.1256  -55.9102 O.2       18 UNK        -0.5000 
    104 N         -5.8485  -24.2095  -54.3655 N.am      19 UNK        -0.5000 
    105 CA        -5.3916  -25.3141  -55.2116 C.3       19 UNK         0.1400 
    106 CB        -4.6352  -26.3392  -54.3540 C.3       19 UNK        -0.1800 
    107 C         -4.5303  -24.8614  -56.4046 C.2       19 UNK         0.5000 
    108 O         -4.7531  -25.3283  -57.5223 O.2       19 UNK        -0.5000 
    109 N         -3.5787  -23.9520  -56.1542 N.am      20 UNK        -0.5000 
    110 CA        -2.7123  -23.3672  -57.1814 C.3       20 UNK         0.1400 
    111 CB        -1.3504  -23.0327  -56.5513 C.3       20 UNK        -0.1800 
    112 C         -3.3235  -22.1070  -57.8229 C.2       20 UNK         0.5000 
    113 O         -2.7644  -21.5963  -58.7953 O.2       20 UNK        -0.5000 
    114 N         -4.4173  -21.5915  -57.2383 N.am      21 UNK        -0.5000 
    115 CA        -5.1326  -20.3571  -57.5957 C.3       21 UNK         0.1400 
    116 CB        -5.8241  -20.5184  -58.9650 C.3       21 UNK        -0.1800 
    117 C         -4.2524  -19.0862  -57.5257 C.2       21 UNK         0.5000 
    118 O         -4.5734  -18.0827  -58.1651 O.2       21 UNK        -0.5000 
    119 N         -3.1415  -19.1689  -56.7790 N.am      22 UNK        -0.5000 
    120 CA        -2.0396  -18.1939  -56.7248 C.3       22 UNK         0.1400 
    121 C         -1.3028  -17.9832  -58.0858 C.2       22 UNK         0.5000 
    122 N         -1.3665  -18.9225  -59.0242 N.am      22 UNK        -0.7600 
    123 O         -0.6341  -16.9733  -58.2894 O.2       22 UNK        -0.5000 
    124 C124       -2.4365  -16.8668  -56.0196 C.3       23 UNK        -0.0398 
    125 S125       -2.8964  -17.1446  -54.2748 S.3       23 UNK        -0.2404 
    126 C126       -1.3177  -16.7559  -53.4589 C.3       23 UNK        -0.0205 
    127 H127       -0.1554  -15.4969  -42.7539 H         1 UNK         0.0600 
    128 H128       -1.8169  -15.4431  -42.1564 H         1 UNK         0.0600 
    129 H129       -1.4631  -16.2234  -43.6977 H         1 UNK         0.0600 
    130 H130       -1.7107  -14.9769  -45.5478 H         1 UNK         0.3000 
    131 H131       -2.6922  -12.3352  -45.4153 H         1 UNK         0.0600 
    132 H132       -2.5936  -12.3833  -47.9120 H         1 UNK         0.0800 
    133 H133       -3.4144  -13.7381  -47.2073 H         1 UNK         0.0800 
    134 H134       -3.4186  -15.3583  -49.0290 H         1 UNK         0.0800 
    135 H135       -2.7303  -16.3101  -47.7313 H         1 UNK         0.0800 
    136 H136       -2.2677  -15.3608  -51.3203 H         1 UNK         0.1150 
    137 H137       -0.4208  -19.0810  -52.3679 H         1 UNK         0.1150 
    138 H138       -1.3972  -18.2499  -48.2737 H         1 UNK         0.1150 
    139 H139       -1.2217  -20.8077  -49.6813 H         1 UNK         0.0800 
    140 H140        0.1688  -20.6690  -50.7313 H         1 UNK         0.0800 
    141 H141        0.8144  -22.5137  -49.1024 H         1 UNK         0.0800 
    142 H142        1.9767  -22.1770  -47.8718 H         1 UNK         0.0800 
    143 H143        0.0899  -23.6829  -47.2195 H         1 UNK         0.0600 
    144 H144        1.0876  -21.5753  -45.5681 H         1 UNK         0.3000 
    145 H145       -0.0883  -23.2012  -42.5371 H         1 UNK         0.0600 
    146 H146        2.6703  -22.6202  -43.7336 H         1 UNK         0.0600 
    147 H147        2.3115  -22.9841  -42.0468 H         1 UNK         0.0600 
    148 H148        2.0839  -24.2157  -43.2775 H         1 UNK         0.0600 
    149 H149        1.2938  -20.7625  -42.8107 H         1 UNK         0.3000 
    150 H150       -1.5896  -18.6120  -43.0001 H         1 UNK         0.0600 
    151 H151       -0.3466  -17.6570  -41.0709 H         1 UNK         0.0600 
    152 H152        0.5851  -19.1423  -40.9064 H         1 UNK         0.0600 
    153 H153       -1.1489  -19.1519  -40.6105 H         1 UNK         0.0600 
    154 H154        1.1852  -18.0035  -43.0639 H         1 UNK         0.3000 
    155 H155        1.6271  -18.1624  -46.6141 H         1 UNK         0.0600 
    156 H156        0.6482  -15.9355  -46.1067 H         1 UNK         0.0600 
    157 H157        2.4013  -15.8671  -46.1671 H         1 UNK         0.0600 
    158 H158        1.5713  -15.8471  -44.6098 H         1 UNK         0.0600 
    159 H159        3.3600  -17.5660  -44.4000 H         1 UNK         0.3000 
    160 H160        4.6520  -20.8679  -43.9803 H         1 UNK         0.0600 
    161 H161        5.8561  -18.2948  -45.1370 H         1 UNK         0.0600 
    162 H162        5.8636  -19.8681  -45.9251 H         1 UNK         0.0600 
    163 H163        6.7532  -19.6379  -44.4284 H         1 UNK         0.0600 
    164 H164        5.2697  -18.3766  -42.7229 H         1 UNK         0.3000 
    165 H165        2.9003  -18.6066  -40.0707 H         1 UNK         0.0600 
    166 H166        5.9354  -19.0378  -40.0808 H         1 UNK         0.0600 
    167 H167        4.9541  -18.5593  -38.6950 H         1 UNK         0.0600 
    168 H168        4.7521  -20.1519  -39.4063 H         1 UNK         0.0600 
    169 H169        4.9580  -16.7474  -40.4221 H         1 UNK         0.3000 
    170 H170        4.4807  -14.6388  -40.8616 H         1 UNK         0.0600 
    171 H171        5.2684  -15.2702  -43.1711 H         1 UNK         0.0600 
    172 H172        3.7336  -14.7238  -43.8352 H         1 UNK         0.0600 
    173 H173        4.8268  -13.5762  -43.0616 H         1 UNK         0.0600 
    174 H174        2.3415  -13.4136  -42.2950 H         1 UNK         0.3000 
    175 H175       -0.1610  -13.6243  -40.7399 H         1 UNK         0.0600 
    176 H176       -0.6880  -11.8017  -39.1074 H         1 UNK         0.0600 
    177 H177        0.0062  -13.2166  -38.3363 H         1 UNK         0.0600 
    178 H178        0.9972  -11.7880  -38.5872 H         1 UNK         0.0600 
    179 H179        0.0234  -11.9932  -42.1763 H         1 UNK         0.3000 
    180 H180        0.3520   -9.3454  -42.4276 H         1 UNK         0.0600 
    181 H181        2.2067   -8.0178  -43.4365 H         1 UNK         0.0600 
    182 H182        2.3893   -8.1495  -41.6957 H         1 UNK         0.0600 
    183 H183        3.3912   -9.1323  -42.7559 H         1 UNK         0.0600 
    184 H184        0.3890  -10.2871  -44.4416 H         1 UNK         0.3000 
    185 H185        1.7266  -10.9226  -46.5376 H         1 UNK         0.0600 
    186 H186        2.6432  -13.0432  -47.4775 H         1 UNK         0.0600 
    187 H187        3.8495  -12.1842  -46.5328 H         1 UNK         0.0600 
    188 H188        3.0525  -13.5959  -45.8546 H         1 UNK         0.0600 
    189 H189        0.5787  -13.5242  -45.8248 H         1 UNK         0.3000 
    190 H190       -1.3972  -20.6508  -46.0833 H         1 UNK         0.3000 
    191 H191       -3.7796  -20.8469  -47.6395 H         1 UNK         0.0600 
    192 H192       -4.7015  -19.2630  -45.9338 H         1 UNK         0.0600 
    193 H193       -3.1300  -18.7506  -46.5261 H         1 UNK         0.0600 
    194 H194       -3.2704  -19.4998  -44.9371 H         1 UNK         0.0600 
    195 H195       -2.9599  -22.0749  -44.3471 H         1 UNK         0.3000 
    196 H196       -5.4563  -23.3029  -43.7966 H         1 UNK         0.0600 
    197 H197       -4.1552  -24.5396  -42.0532 H         1 UNK         0.0600 
    198 H198       -3.7751  -22.8245  -42.0482 H         1 UNK         0.0600 
    199 H199       -2.6492  -23.9742  -42.7665 H         1 UNK         0.0600 
    200 H200       -2.5863  -24.5181  -45.5185 H         1 UNK         0.3000 
    201 H201       -3.5937  -27.1857  -45.9722 H         1 UNK         0.0600 
    202 H202       -1.1612  -26.5972  -45.9749 H         1 UNK         0.0600 
    203 H203       -1.3992  -25.6006  -47.4098 H         1 UNK         0.0600 
    204 H204       -1.6402  -27.3396  -47.4926 H         1 UNK         0.0600 
    205 H205       -4.5884  -24.2289  -47.2571 H         1 UNK         0.3000 
    206 H206       -5.8701  -23.5151  -48.8787 H         1 UNK         0.0600 
    207 H207       -7.3601  -25.4364  -48.2541 H         1 UNK         0.0600 
    208 H208       -7.5196  -24.9784  -49.9412 H         1 UNK         0.0600 
    209 H209       -6.6077  -26.4169  -49.5126 H         1 UNK         0.0600 
    210 H210       -3.0397  -24.0507  -49.4283 H         1 UNK         0.3000 
    211 H211       -2.6890  -24.9615  -52.1190 H         1 UNK         0.0600 
    212 H212       -0.4256  -24.0041  -51.8792 H         1 UNK         0.0600 
    213 H213       -0.8566  -24.8816  -50.4164 H         1 UNK         0.0600 
    214 H214       -0.9203  -23.1202  -50.4435 H         1 UNK         0.0600 
    215 H215       -3.4826  -21.8389  -50.7065 H         1 UNK         0.3000 
    216 H216       -3.1033  -20.1179  -52.9244 H         1 UNK         0.0600 
    217 H217       -4.6001  -18.6040  -51.6755 H         1 UNK         0.0600 
    218 H218       -3.5254  -19.3910  -50.5343 H         1 UNK         0.0600 
    219 H219       -5.1922  -19.9286  -50.6777 H         1 UNK         0.0600 
    220 H220       -5.7855  -22.2874  -52.0507 H         1 UNK         0.3000 
    221 H221       -7.5393  -21.3512  -54.2122 H         1 UNK         0.0600 
    222 H222       -7.8302  -23.6682  -52.2251 H         1 UNK         0.0600 
    223 H223       -8.5228  -22.0576  -52.0438 H         1 UNK         0.0600 
    224 H224       -9.0642  -23.1068  -53.3445 H         1 UNK         0.0600 
    225 H225       -5.5773  -24.2487  -53.3869 H         1 UNK         0.3000 
    226 H226       -6.2801  -25.8053  -55.6139 H         1 UNK         0.0600 
    227 H227       -4.3559  -27.2116  -54.9459 H         1 UNK         0.0600 
    228 H228       -3.7194  -25.9182  -53.9411 H         1 UNK         0.0600 
    229 H229       -5.2478  -26.6911  -53.5236 H         1 UNK         0.0600 
    230 H230       -3.4334  -23.6237  -55.2017 H         1 UNK         0.3000 
    231 H231       -2.5442  -24.0944  -57.9784 H         1 UNK         0.0600 
    232 H232       -0.6451  -22.6852  -57.3073 H         1 UNK         0.0600 
    233 H233       -0.9096  -23.9081  -56.0743 H         1 UNK         0.0600 
    234 H234       -1.4343  -22.2476  -55.7992 H         1 UNK         0.0600 
    235 H235       -4.7915  -22.0873  -56.4417 H         1 UNK         0.3000 
    236 H236       -5.9172  -20.2282  -56.8497 H         1 UNK         0.0600 
    237 H237       -5.1014  -20.5838  -59.7787 H         1 UNK         0.0600 
    238 H238       -6.4409  -21.4169  -58.9900 H         1 UNK         0.0600 
    239 H239       -6.4787  -19.6722  -59.1764 H         1 UNK         0.0600 
    240 H240       -2.9954  -20.0244  -56.2652 H         1 UNK         0.3000 
    241 H241       -1.2794  -18.6643  -56.1003 H         1 UNK         0.0600 
    242 H242       -0.8788  -18.7824  -59.8948 H         1 UNK         0.3800 
    243 H243       -1.8978  -19.7755  -58.8821 H         1 UNK         0.3800 
    244 H244       -3.2728  -16.3919  -56.5333 H         1 UNK         0.0800 
    245 H245       -1.6199  -16.1439  -56.0490 H         1 UNK         0.0800 
    246 H246       -0.5023  -17.2604  -53.9799 H         1 UNK         0.0800 
    247 H247       -1.1206  -15.6858  -53.5396 H         1 UNK         0.0800 
@<TRIPOS>BOND
     1    1    2 1    
     2    1  127 1    
     3    1  128 1    
     4    1  129 1    
     5    2    3 2    
     6    2    4 am   BACKBONE|DICT|INTERRES
     7    4    5 1    
     8    4  130 1    
     9    5    6 1    
    10    5   65 1    
    11    5  131 1    
    12    6    7 1    
    13    6  132 1    
    14    6  133 1    
    15    7    8 1    
    16    8    9 1    
    17    8  134 1    
    18    8  135 1    
    19    9   10 ar   
    20    9   14 ar   
    21   10   11 ar   
    22   10  136 1    
    23   11   12 ar   
    24   11  126 1    
    25   12   13 ar   
    26   12  137 1    
    27   13   14 ar   
    28   13   15 1    
    29   14  138 1    
    30   15   16 1    
    31   15  139 1    
    32   15  140 1    
    33   16   17 1    
    34   17   18 1    
    35   17  141 1    
    36   17  142 1    
    37   18   19 1    
    38   18   67 1    
    39   18  143 1    
    40   19   20 am   BACKBONE|DICT|INTERRES
    41   19  144 1    
    42   20   21 2    
    43   20   22 1    
    44   22   23 1    
    45   22   24 1    
    46   22  145 1    
    47   23  146 1    
    48   23  147 1    
    49   23  148 1    
    50   24   25 am   BACKBONE|DICT|INTERRES
    51   24  149 1    
    52   25   26 2    
    53   25   27 1    
    54   27   28 1    
    55   27   29 1    
    56   27  150 1    
    57   28  151 1    
    58   28  152 1    
    59   28  153 1    
    60   29   30 am   BACKBONE|DICT|INTERRES
    61   29  154 1    
    62   30   31 2    
    63   30   32 1    
    64   32   33 1    
    65   32   34 1    
    66   32  155 1    
    67   33  156 1    
    68   33  157 1    
    69   33  158 1    
    70   34   35 am   BACKBONE|DICT|INTERRES
    71   34  159 1    
    72   35   36 2    
    73   35   37 1    
    74   37   38 1    
    75   37   39 1    
    76   37  160 1    
    77   38  161 1    
    78   38  162 1    
    79   38  163 1    
    80   39   40 am   BACKBONE|DICT|INTERRES
    81   39  164 1    
    82   40   41 2    
    83   40   42 1    
    84   42   43 1    
    85   42   44 1    
    86   42  165 1    
    87   43  166 1    
    88   43  167 1    
    89   43  168 1    
    90   44   45 am   BACKBONE|DICT|INTERRES
    91   44  169 1    
    92   45   46 2    
    93   45   47 1    
    94   47   48 1    
    95   47   49 1    
    96   47  170 1    
    97   48  171 1    
    98   48  172 1    
    99   48  173 1    
   100   49   50 am   BACKBONE|DICT|INTERRES
   101   49  174 1    
   102   50   51 2    
   103   50   52 1    
   104   52   53 1    
   105   52   54 1    
   106   52  175 1    
   107   53  176 1    
   108   53  177 1    
   109   53  178 1    
   110   54   55 am   BACKBONE|DICT|INTERRES
   111   54  179 1    
   112   55   56 2    
   113   55   57 1    
   114   57   58 1    
   115   57   59 1    
   116   57  180 1    
   117   58  181 1    
   118   58  182 1    
   119   58  183 1    
   120   59   60 am   BACKBONE|DICT|INTERRES
   121   59  184 1    
   122   60   61 2    
   123   60   62 1    
   124   62   63 1    
   125   62   64 1    
   126   62  185 1    
   127   63  186 1    
   128   63  187 1    
   129   63  188 1    
   130   64   65 am   BACKBONE|DICT|INTERRES
   131   64  189 1    
   132   65   66 2    
   133   67   68 2    
   134   67   69 am   BACKBONE|DICT|INTERRES
   135   69   70 1    
   136   69  190 1    
   137   70   71 1    
   138   70   72 1    
   139   70  191 1    
   140   71  192 1    
   141   71  193 1    
   142   71  194 1    
   143   72   73 2    
   144   72   74 am   BACKBONE|DICT|INTERRES
   145   74   75 1    
   146   74  195 1    
   147   75   76 1    
   148   75   77 1    
   149   75  196 1    
   150   76  197 1    
   151   76  198 1    
   152   76  199 1    
   153   77   78 2    
   154   77   79 am   BACKBONE|DICT|INTERRES
   155   79   80 1    
   156   79  200 1    
   157   80   81 1    
   158   80   82 1    
   159   80  201 1    
   160   81  202 1    
   161   81  203 1    
   162   81  204 1    
   163   82   83 2    
   164   82   84 am   BACKBONE|DICT|INTERRES
   165   84   85 1    
   166   84  205 1    
   167   85   86 1    
   168   85   87 1    
   169   85  206 1    
   170   86  207 1    
   171   86  208 1    
   172   86  209 1    
   173   87   88 2    
   174   87   89 am   BACKBONE|DICT|INTERRES
   175   89   90 1    
   176   89  210 1    
   177   90   91 1    
   178   90   92 1    
   179   90  211 1    
   180   91  212 1    
   181   91  213 1    
   182   91  214 1    
   183   92   93 2    
   184   92   94 am   BACKBONE|DICT|INTERRES
   185   94   95 1    
   186   94  215 1    
   187   95   96 1    
   188   95   97 1    
   189   95  216 1    
   190   96  217 1    
   191   96  218 1    
   192   96  219 1    
   193   97   98 2    
   194   97   99 am   BACKBONE|DICT|INTERRES
   195   99  100 1    
   196   99  220 1    
   197  100  101 1    
   198  100  102 1    
   199  100  221 1    
   200  101  222 1    
   201  101  223 1    
   202  101  224 1    
   203  102  103 2    
   204  102  104 am   BACKBONE|DICT|INTERRES
   205  104  105 1    
   206  104  225 1    
   207  105  106 1    
   208  105  107 1    
   209  105  226 1    
   210  106  227 1    
   211  106  228 1    
   212  106  229 1    
   213  107  108 2    
   214  107  109 am   BACKBONE|DICT|INTERRES
   215  109  110 1    
   216  109  230 1    
   217  110  111 1    
   218  110  112 1    
   219  110  231 1    
   220  111  232 1    
   221  111  233 1    
   222  111  234 1    
   223  112  113 2    
   224  112  114 am   BACKBONE|DICT|INTERRES
   225  114  115 1    
   226  114  235 1    
   227  115  116 1    
   228  115  117 1    
   229  115  236 1    
   230  116  237 1    
   231  116  238 1    
   232  116  239 1    
   233  117  118 2    
   234  117  119 am   BACKBONE|DICT|INTERRES
   235  119  120 1    
   236  119  240 1    
   237  120  121 1    
   238  120  124 1    
   239  120  241 1    
   240  121  122 am   BACKBONE|DICT|INTERRES
   241  121  123 2    
   242  122  242 1    
   243  122  243 1    
   244  124  125 1    
   245  124  244 1    
   246  124  245 1    
   247  125  126 1    
   248  126  246 1    
   249  126  247 1    
@<TRIPOS>SUBSTRUCTURE
     1 UNK         1 GROUP             0       ****    0 ROOT    
