@<TRIPOS>MOLECULE
3R540
247   249    1
SMALL
USER_CHARGES


@<TRIPOS>ATOM
      1 CA         -3.8820  -12.1762  -48.4372 C.3       0 UNK        -0.1800 
      2 C          -4.4473  -13.1964  -49.4242 C.2       0 UNK         0.5000 
      3 O          -5.3857  -12.8751  -50.1495 O.2       0 UNK        -0.5000 
      4 N          -3.9221  -14.4278  -49.4956 N.am      1 UNK        -0.5000 
      5 CA         -2.8220  -14.9709  -48.6847 C.3       1 UNK         0.1400 
      6 C6         -2.0354  -16.0705  -49.4349 C.3       23 UNK        -0.0398 
      7 S7         -1.1613  -15.3725  -50.8742 S.3       23 UNK        -0.2404 
      8 C8          0.5138  -15.1452  -50.1981 C.3       23 UNK        -0.0205 
      9 C9          1.3095  -16.4401  -50.2373 C.ar      23 UNK        -0.0193 
     10 C10         1.8711  -16.8692  -51.4424 C.ar      23 UNK        -0.1150 
     11 C11         2.5956  -18.0618  -51.5090 C.ar      23 UNK        -0.0193 
     12 C12         2.7668  -18.8208  -50.3464 C.ar      23 UNK        -0.1150 
     13 C13         2.2396  -18.3854  -49.1255 C.ar      23 UNK        -0.0193 
     14 C14         1.5060  -17.1958  -49.0777 C.ar      23 UNK        -0.1150 
     15 C15         2.5192  -19.1701  -47.8523 C.3       23 UNK        -0.0205 
     16 S16         1.2774  -20.4569  -47.5303 S.3       23 UNK        -0.2404 
     17 C17        -0.0342  -19.5026  -46.6935 C.3       23 UNK        -0.0398 
     18 CA         -1.2155  -20.3988  -46.2554 C.3       11 UNK         0.1400 
     19 N          -0.7803  -21.5025  -45.3936 N.am      11 UNK        -0.5000 
     20 C          -1.5434  -22.5025  -44.9325 C.2       10 UNK         0.5000 
     21 O          -2.7376  -22.6328  -45.2058 O.2       10 UNK        -0.5000 
     22 CA         -0.8707  -23.4857  -43.9578 C.3       10 UNK         0.1400 
     23 CB         -0.3424  -24.7079  -44.7225 C.3       10 UNK        -0.1800 
     24 N           0.2249  -22.9008  -43.1752 N.am      10 UNK        -0.5000 
     25 C           0.1494  -21.8283  -42.3755 C.2       9 UNK         0.5000 
     26 O          -0.8710  -21.1523  -42.2456 O.2       9 UNK        -0.5000 
     27 CA          1.4246  -21.4070  -41.6208 C.3       9 UNK         0.1400 
     28 CB          1.5397  -22.1454  -40.2747 C.3       9 UNK        -0.1800 
     29 N           2.6729  -21.5024  -42.3902 N.am      9 UNK        -0.5000 
     30 C           3.3171  -22.5896  -42.8459 C.2       8 UNK         0.5000 
     31 O           2.8809  -23.7367  -42.7448 O.2       8 UNK        -0.5000 
     32 CA          4.6730  -22.3647  -43.5499 C.3       8 UNK         0.1400 
     33 CB          4.4846  -22.3941  -45.0753 C.3       8 UNK        -0.1800 
     34 N           5.3242  -21.1054  -43.1831 N.am      8 UNK        -0.5000 
     35 C           5.7659  -20.7792  -41.9594 C.2       7 UNK         0.5000 
     36 O           5.8094  -21.5719  -41.0181 O.2       7 UNK        -0.5000 
     37 CA          6.1996  -19.3125  -41.7352 C.3       7 UNK         0.1400 
     38 CB          7.7299  -19.2155  -41.6344 C.3       7 UNK        -0.1800 
     39 N           5.7333  -18.3622  -42.7555 N.am      7 UNK        -0.5000 
     40 C           4.4560  -18.1119  -43.0773 C.2       6 UNK         0.5000 
     41 O           3.4975  -18.6826  -42.5487 O.2       6 UNK        -0.5000 
     42 CA          4.2291  -17.1098  -44.2261 C.3       6 UNK         0.1400 
     43 CB          4.9319  -17.5798  -45.5133 C.3       6 UNK        -0.1800 
     44 N           2.8019  -16.9644  -44.5083 N.am      6 UNK        -0.5000 
     45 C           1.9925  -16.0719  -43.9301 C.2       5 UNK         0.5000 
     46 O           2.3710  -15.2028  -43.1402 O.2       5 UNK        -0.5000 
     47 CA          0.4977  -16.2034  -44.2759 C.3       5 UNK         0.1400 
     48 CB         -0.2157  -17.1099  -43.2623 C.3       5 UNK        -0.1800 
     49 N          -0.1747  -14.9077  -44.3070 N.am      5 UNK        -0.5000 
     50 C           0.0057  -13.9862  -45.2609 C.2       4 UNK         0.5000 
     51 O           0.7485  -14.1435  -46.2321 O.2       4 UNK        -0.5000 
     52 CA         -0.8251  -12.7013  -45.1151 C.3       4 UNK         0.1400 
     53 CB         -0.7196  -11.7695  -46.3384 C.3       4 UNK        -0.1800 
     54 N          -2.2284  -13.0398  -44.8711 N.am      4 UNK        -0.5000 
     55 C          -3.0702  -12.3161  -44.1196 C.2       3 UNK         0.5000 
     56 O          -2.7173  -11.3161  -43.4927 O.2       3 UNK        -0.5000 
     57 CA         -4.5535  -12.7442  -44.0671 C.3       3 UNK         0.1400 
     58 CB         -5.4773  -11.5555  -44.3860 C.3       3 UNK        -0.1800 
     59 N          -4.8649  -13.8224  -45.0062 N.am      3 UNK        -0.5000 
     60 C          -4.9871  -15.1184  -44.6944 C.2       2 UNK         0.5000 
     61 O          -4.8757  -15.5635  -43.5528 O.2       2 UNK        -0.5000 
     62 CA         -5.2448  -16.0797  -45.8745 C.3       2 UNK         0.1400 
     63 CB         -6.7512  -16.2765  -46.0969 C.3       2 UNK        -0.1800 
     64 N          -4.6243  -15.6466  -47.1315 N.am      2 UNK        -0.5000 
     65 C          -3.3049  -15.4850  -47.3142 C.2       1 UNK         0.5000 
     66 O          -2.4754  -15.6704  -46.4265 O.2       1 UNK        -0.5000 
     67 C          -2.3511  -19.5512  -45.6380 C.2       11 UNK         0.5000 
     68 O          -3.1005  -18.9323  -46.3917 O.2       11 UNK        -0.5000 
     69 N          -2.5170  -19.5934  -44.3044 N.am      12 UNK        -0.5000 
     70 CA         -3.6506  -19.0067  -43.5814 C.3       12 UNK         0.1400 
     71 CB         -3.4065  -19.1212  -42.0699 C.3       12 UNK        -0.1800 
     72 C          -5.0084  -19.6419  -43.9524 C.2       12 UNK         0.5000 
     73 O          -6.0358  -18.9710  -43.8653 O.2       12 UNK        -0.5000 
     74 N          -4.9815  -20.9066  -44.3933 N.am      13 UNK        -0.5000 
     75 CA         -6.1162  -21.6529  -44.9377 C.3       13 UNK         0.1400 
     76 CB         -6.2098  -23.0013  -44.2016 C.3       13 UNK        -0.1800 
     77 C          -5.9596  -21.8374  -46.4625 C.2       13 UNK         0.5000 
     78 O          -6.4394  -22.8292  -47.0142 O.2       13 UNK        -0.5000 
     79 N          -5.2390  -20.9059  -47.1094 N.am      14 UNK        -0.5000 
     80 CA         -4.8669  -20.8612  -48.5296 C.3       14 UNK         0.1400 
     81 CB         -6.1167  -20.7485  -49.4254 C.3       14 UNK        -0.1800 
     82 C          -3.9423  -22.0102  -48.9855 C.2       14 UNK         0.5000 
     83 O          -3.7123  -22.1500  -50.1884 O.2       14 UNK        -0.5000 
     84 N          -3.4287  -22.8074  -48.0332 N.am      15 UNK        -0.5000 
     85 CA         -2.6968  -24.0639  -48.2191 C.3       15 UNK         0.1400 
     86 CB         -1.2658  -23.7874  -48.7150 C.3       15 UNK        -0.1800 
     87 C          -3.4960  -25.0424  -49.1028 C.2       15 UNK         0.5000 
     88 O          -2.9851  -25.5428  -50.1080 O.2       15 UNK        -0.5000 
     89 N          -4.7851  -25.1910  -48.7562 N.am      16 UNK        -0.5000 
     90 CA         -5.8834  -25.7882  -49.5254 C.3       16 UNK         0.1400 
     91 CB         -5.6223  -27.2685  -49.8676 C.3       16 UNK        -0.1800 
     92 C          -6.2289  -24.9508  -50.7718 C.2       16 UNK         0.5000 
     93 O          -7.3456  -24.4429  -50.8781 O.2       16 UNK        -0.5000 
     94 N          -5.2456  -24.7905  -51.6606 N.am      17 UNK        -0.5000 
     95 CA         -5.2647  -23.8967  -52.8142 C.3       17 UNK         0.1400 
     96 CB         -6.0465  -24.5471  -53.9708 C.3       17 UNK        -0.1800 
     97 C          -3.8480  -23.4891  -53.2638 C.2       17 UNK         0.5000 
     98 O          -3.7333  -22.6930  -54.1957 O.2       17 UNK        -0.5000 
     99 N          -2.7861  -24.0203  -52.6356 N.am      18 UNK        -0.5000 
    100 CA        -1.4037  -23.8127  -53.0705 C.3       18 UNK         0.1400 
    101 CB        -0.4859  -24.8362  -52.3859 C.3       18 UNK        -0.1800 
    102 C         -0.8862  -22.3758  -52.8709 C.2       18 UNK         0.5000 
    103 O         -0.0292  -21.9496  -53.6428 O.2       18 UNK        -0.5000 
    104 N         -1.4198  -21.6453  -51.8804 N.am      19 UNK        -0.5000 
    105 CA        -1.1003  -20.2315  -51.6637 C.3       19 UNK         0.1400 
    106 CB        -1.2952  -19.8641  -50.1872 C.3       19 UNK        -0.1800 
    107 C         -1.9567  -19.3253  -52.5627 C.2       19 UNK         0.5000 
    108 O         -1.4902  -18.2655  -52.9714 O.2       19 UNK        -0.5000 
    109 N         -3.1816  -19.7630  -52.8929 N.am      20 UNK        -0.5000 
    110 CA        -4.0538  -19.0885  -53.8587 C.3       20 UNK         0.1400 
    111 CB        -5.4700  -19.6796  -53.7866 C.3       20 UNK        -0.1800 
    112 C         -3.4855  -19.1653  -55.2891 C.2       20 UNK         0.5000 
    113 O         -3.5455  -18.1808  -56.0275 O.2       20 UNK        -0.5000 
    114 N         -2.8769  -20.3122  -55.6245 N.am      21 UNK        -0.5000 
    115 CA        -2.1571  -20.5694  -56.8739 C.3       21 UNK         0.1400 
    116 CB        -1.7592  -22.0524  -56.9251 C.3       21 UNK        -0.1800 
    117 C         -0.9251  -19.6657  -57.0990 C.2       21 UNK         0.5000 
    118 O         -0.4827  -19.5378  -58.2416 O.2       21 UNK        -0.5000 
    119 N         -0.4095  -19.0352  -56.0339 N.am      22 UNK        -0.5000 
    120 CA         0.6208  -17.9856  -56.1046 C.3       22 UNK         0.1400 
    121 C          0.1124  -16.6390  -56.7050 C.2       22 UNK         0.5000 
    122 N         -1.1895  -16.4095  -56.8452 N.am      22 UNK        -0.7600 
    123 O          0.9204  -15.7848  -57.0591 O.2       22 UNK        -0.5000 
    124 C124        1.3012  -17.7302  -54.7344 C.3       23 UNK        -0.0398 
    125 S125        2.0504  -19.2216  -53.9936 S.3       23 UNK        -0.2404 
    126 C126        3.2418  -18.4986  -52.8190 C.3       23 UNK        -0.0205 
    127 H127       -2.9408  -11.7744  -48.8122 H         1 UNK         0.0600 
    128 H128       -3.7102  -12.6064  -47.4528 H         1 UNK         0.0600 
    129 H129       -4.5743  -11.3432  -48.3129 H         1 UNK         0.0600 
    130 H130       -4.2968  -15.0630  -50.1856 H         1 UNK         0.3000 
    131 H131       -2.1152  -14.1674  -48.4697 H         1 UNK         0.0600 
    132 H132       -2.7037  -16.8609  -49.7808 H         1 UNK         0.0800 
    133 H133       -1.3098  -16.5547  -48.7796 H         1 UNK         0.0800 
    134 H134        0.4580  -14.7497  -49.1822 H         1 UNK         0.0800 
    135 H135        1.0306  -14.3882  -50.7897 H         1 UNK         0.0800 
    136 H136        1.7432  -16.2663  -52.3292 H         1 UNK         0.1150 
    137 H137        3.3386  -19.7374  -50.3835 H         1 UNK         0.1150 
    138 H138        1.1017  -16.8489  -48.1371 H         1 UNK         0.1150 
    139 H139        3.4988  -19.6451  -47.9254 H         1 UNK         0.0800 
    140 H140        2.5759  -18.4928  -47.0019 H         1 UNK         0.0800 
    141 H141       -0.3800  -18.7220  -47.3734 H         1 UNK         0.0800 
    142 H142        0.3996  -19.0006  -45.8286 H         1 UNK         0.0800 
    143 H143       -1.6313  -20.8529  -47.1557 H         1 UNK         0.0600 
    144 H144        0.1918  -21.4938  -45.1224 H         1 UNK         0.3000 
    145 H145       -1.6351  -23.8202  -43.2539 H         1 UNK         0.0600 
    146 H146        0.0743  -25.4496  -44.0408 H         1 UNK         0.0600 
    147 H147       -1.1409  -25.1958  -45.2826 H         1 UNK         0.0600 
    148 H148        0.4373  -24.4307  -45.4334 H         1 UNK         0.0600 
    149 H149        1.1142  -23.3941  -43.1901 H         1 UNK         0.3000 
    150 H150        1.3093  -20.3450  -41.3972 H         1 UNK         0.0600 
    151 H151        0.6543  -21.9746  -39.6611 H         1 UNK         0.0600 
    152 H152        2.4017  -21.7949  -39.7067 H         1 UNK         0.0600 
    153 H153        1.6405  -23.2230  -40.4066 H         1 UNK         0.0600 
    154 H154        3.1140  -20.6014  -42.5532 H         1 UNK         0.3000 
    155 H155        5.3343  -23.1851  -43.2640 H         1 UNK         0.0600 
    156 H156        3.8411  -21.5825  -45.4185 H         1 UNK         0.0600 
    157 H157        4.0273  -23.3314  -45.3953 H         1 UNK         0.0600 
    158 H158        5.4398  -22.3077  -45.5934 H         1 UNK         0.0600 
    159 H159        5.3506  -20.3909  -43.8942 H         1 UNK         0.3000 
    160 H160        5.7738  -18.9993  -40.7799 H         1 UNK         0.0600 
    161 H161        8.2122  -19.4897  -42.5735 H         1 UNK         0.0600 
    162 H162        8.1155  -19.8813  -40.8609 H         1 UNK         0.0600 
    163 H163        8.0461  -18.2048  -41.3756 H         1 UNK         0.0600 
    164 H164        6.4589  -17.8605  -43.2471 H         1 UNK         0.3000 
    165 H165        4.6486  -16.1461  -43.9298 H         1 UNK         0.0600 
    166 H166        4.6756  -16.9417  -46.3596 H         1 UNK         0.0600 
    167 H167        6.0166  -17.5447  -45.4084 H         1 UNK         0.0600 
    168 H168        4.6631  -18.6047  -45.7715 H         1 UNK         0.0600 
    169 H169        2.3966  -17.6816  -45.0872 H         1 UNK         0.3000 
    170 H170        0.4004  -16.6495  -45.2678 H         1 UNK         0.0600 
    171 H171       -0.1267  -16.7257  -42.2454 H         1 UNK         0.0600 
    172 H172       -1.2765  -17.1918  -43.4958 H         1 UNK         0.0600 
    173 H173        0.2018  -18.1178  -43.2698 H         1 UNK         0.0600 
    174 H174       -0.7907  -14.6966  -43.5364 H         1 UNK         0.3000 
    175 H175       -0.4179  -12.1752  -44.2492 H         1 UNK         0.0600 
    176 H176       -1.0601  -12.2633  -47.2481 H         1 UNK         0.0600 
    177 H177       -1.3146  -10.8663  -46.2030 H         1 UNK         0.0600 
    178 H178        0.3120  -11.4557  -46.5020 H         1 UNK         0.0600 
    179 H179       -2.5498  -13.9021  -45.2978 H         1 UNK         0.3000 
    180 H180       -4.7581  -13.0661  -43.0441 H         1 UNK         0.0600 
    181 H181       -6.5264  -11.8475  -44.3347 H         1 UNK         0.0600 
    182 H182       -5.2887  -11.1550  -45.3829 H         1 UNK         0.0600 
    183 H183       -5.3359  -10.7423  -43.6729 H         1 UNK         0.0600 
    184 H184       -4.9859  -13.5541  -45.9708 H         1 UNK         0.3000 
    185 H185       -4.8143  -17.0460  -45.6155 H         1 UNK         0.0600 
    186 H186       -6.9411  -17.0262  -46.8654 H         1 UNK         0.0600 
    187 H187       -7.2371  -16.6219  -45.1833 H         1 UNK         0.0600 
    188 H188       -7.2396  -15.3496  -46.3999 H         1 UNK         0.0600 
    189 H189       -5.2446  -15.4646  -47.9074 H         1 UNK         0.3000 
    190 H190       -1.8752  -20.1453  -43.7440 H         1 UNK         0.3000 
    191 H191       -3.6896  -17.9478  -43.8355 H         1 UNK         0.0600 
    192 H192       -4.1975  -18.6212  -41.5096 H         1 UNK         0.0600 
    193 H193       -2.4627  -18.6578  -41.7827 H         1 UNK         0.0600 
    194 H194       -3.3812  -20.1620  -41.7449 H         1 UNK         0.0600 
    195 H195       -4.0859  -21.3804  -44.4596 H         1 UNK         0.3000 
    196 H196       -7.0486  -21.1093  -44.7752 H         1 UNK         0.0600 
    197 H197       -5.3264  -23.6167  -44.3778 H         1 UNK         0.0600 
    198 H198       -6.3066  -22.8556  -43.1257 H         1 UNK         0.0600 
    199 H199       -7.0803  -23.5707  -44.5295 H         1 UNK         0.0600 
    200 H200       -4.8517  -20.1497  -46.5574 H         1 UNK         0.3000 
    201 H201       -4.2940  -19.9425  -48.6549 H         1 UNK         0.0600 
    202 H202       -5.8387  -20.5521  -50.4613 H         1 UNK         0.0600 
    203 H203       -6.7616  -19.9309  -49.1035 H         1 UNK         0.0600 
    204 H204       -6.7056  -21.6663  -49.4181 H         1 UNK         0.0600 
    205 H205       -3.6371  -22.5862  -47.0665 H         1 UNK         0.3000 
    206 H206       -2.6207  -24.5353  -47.2388 H         1 UNK         0.0600 
    207 H207       -0.7191  -23.1645  -48.0073 H         1 UNK         0.0600 
    208 H208       -0.7043  -24.7149  -48.8300 H         1 UNK         0.0600 
    209 H209       -1.2632  -23.2743  -49.6741 H         1 UNK         0.0600 
    210 H210       -5.0968  -24.6618  -47.9514 H         1 UNK         0.3000 
    211 H211       -6.7554  -25.7548  -48.8702 H         1 UNK         0.0600 
    212 H212       -6.4946  -27.7113  -50.3496 H         1 UNK         0.0600 
    213 H213       -5.4192  -27.8487  -48.9676 H         1 UNK         0.0600 
    214 H214       -4.7791  -27.3986  -50.5458 H         1 UNK         0.0600 
    215 H215       -4.3620  -25.2337  -51.4380 H         1 UNK         0.3000 
    216 H216       -5.7692  -22.9724  -52.5249 H         1 UNK         0.0600 
    217 H217       -5.5887  -25.4868  -54.2818 H         1 UNK         0.0600 
    218 H218       -6.0792  -23.8919  -54.8422 H         1 UNK         0.0600 
    219 H219       -7.0783  -24.7546  -53.6874 H         1 UNK         0.0600 
    220 H220       -2.9038  -24.6022  -51.8147 H         1 UNK         0.3000 
    221 H221       -1.3670  -24.0135  -54.1435 H         1 UNK         0.0600 
    222 H222       -0.7954  -25.8562  -52.6141 H         1 UNK         0.0600 
    223 H223       -0.4855  -24.7239  -51.3036 H         1 UNK         0.0600 
    224 H224        0.5444  -24.7257  -52.7266 H         1 UNK         0.0600 
    225 H225       -2.1546  -22.0441  -51.3015 H         1 UNK         0.3000 
    226 H226       -0.0492  -20.0611  -51.9068 H         1 UNK         0.0600 
    227 H227       -2.3467  -19.7518  -49.9309 H         1 UNK         0.0600 
    228 H228       -0.8633  -20.6198  -49.5329 H         1 UNK         0.0600 
    229 H229       -0.8055  -18.9159  -49.9641 H         1 UNK         0.0600 
    230 H230       -3.4882  -20.6581  -52.5407 H         1 UNK         0.3000 
    231 H231       -4.1145  -18.0339  -53.5814 H         1 UNK         0.0600 
    232 H232       -5.4881  -20.7341  -54.0603 H         1 UNK         0.0600 
    233 H233       -6.1424  -19.1559  -54.4672 H         1 UNK         0.0600 
    234 H234       -5.8864  -19.5852  -52.7840 H         1 UNK         0.0600 
    235 H235       -2.9440  -21.0935  -54.9788 H         1 UNK         0.3000 
    236 H236       -2.8507  -20.3758  -57.6944 H         1 UNK         0.0600 
    237 H237       -1.0668  -22.3092  -56.1235 H         1 UNK         0.0600 
    238 H238       -2.6317  -22.6999  -56.8354 H         1 UNK         0.0600 
    239 H239       -1.2709  -22.2945  -57.8698 H         1 UNK         0.0600 
    240 H240       -0.8185  -19.1929  -55.1237 H         1 UNK         0.3000 
    241 H241        1.3955  -18.3425  -56.7859 H         1 UNK         0.0600 
    242 H242       -1.4950  -15.5342  -57.2398 H         1 UNK         0.3800 
    243 H243       -1.8801  -17.0924  -56.5542 H         1 UNK         0.3800 
    244 H244        0.5834  -17.3116  -54.0303 H         1 UNK         0.0800 
    245 H245        2.0860  -16.9802  -54.8467 H         1 UNK         0.0800 
    246 H246        4.0148  -19.2422  -52.6198 H         1 UNK         0.0800 
    247 H247        3.7556  -17.6535  -53.2791 H         1 UNK         0.0800 
@<TRIPOS>BOND
     1    1    2 1    
     2    1  127 1    
     3    1  128 1    
     4    1  129 1    
     5    2    3 2    
     6    2    4 am   BACKBONE|DICT|INTERRES
     7    4    5 1    
     8    4  130 1    
     9    5    6 1    
    10    5   65 1    
    11    5  131 1    
    12    6    7 1    
    13    6  132 1    
    14    6  133 1    
    15    7    8 1    
    16    8    9 1    
    17    8  134 1    
    18    8  135 1    
    19    9   10 ar   
    20    9   14 ar   
    21   10   11 ar   
    22   10  136 1    
    23   11   12 ar   
    24   11  126 1    
    25   12   13 ar   
    26   12  137 1    
    27   13   14 ar   
    28   13   15 1    
    29   14  138 1    
    30   15   16 1    
    31   15  139 1    
    32   15  140 1    
    33   16   17 1    
    34   17   18 1    
    35   17  141 1    
    36   17  142 1    
    37   18   19 1    
    38   18   67 1    
    39   18  143 1    
    40   19   20 am   BACKBONE|DICT|INTERRES
    41   19  144 1    
    42   20   21 2    
    43   20   22 1    
    44   22   23 1    
    45   22   24 1    
    46   22  145 1    
    47   23  146 1    
    48   23  147 1    
    49   23  148 1    
    50   24   25 am   BACKBONE|DICT|INTERRES
    51   24  149 1    
    52   25   26 2    
    53   25   27 1    
    54   27   28 1    
    55   27   29 1    
    56   27  150 1    
    57   28  151 1    
    58   28  152 1    
    59   28  153 1    
    60   29   30 am   BACKBONE|DICT|INTERRES
    61   29  154 1    
    62   30   31 2    
    63   30   32 1    
    64   32   33 1    
    65   32   34 1    
    66   32  155 1    
    67   33  156 1    
    68   33  157 1    
    69   33  158 1    
    70   34   35 am   BACKBONE|DICT|INTERRES
    71   34  159 1    
    72   35   36 2    
    73   35   37 1    
    74   37   38 1    
    75   37   39 1    
    76   37  160 1    
    77   38  161 1    
    78   38  162 1    
    79   38  163 1    
    80   39   40 am   BACKBONE|DICT|INTERRES
    81   39  164 1    
    82   40   41 2    
    83   40   42 1    
    84   42   43 1    
    85   42   44 1    
    86   42  165 1    
    87   43  166 1    
    88   43  167 1    
    89   43  168 1    
    90   44   45 am   BACKBONE|DICT|INTERRES
    91   44  169 1    
    92   45   46 2    
    93   45   47 1    
    94   47   48 1    
    95   47   49 1    
    96   47  170 1    
    97   48  171 1    
    98   48  172 1    
    99   48  173 1    
   100   49   50 am   BACKBONE|DICT|INTERRES
   101   49  174 1    
   102   50   51 2    
   103   50   52 1    
   104   52   53 1    
   105   52   54 1    
   106   52  175 1    
   107   53  176 1    
   108   53  177 1    
   109   53  178 1    
   110   54   55 am   BACKBONE|DICT|INTERRES
   111   54  179 1    
   112   55   56 2    
   113   55   57 1    
   114   57   58 1    
   115   57   59 1    
   116   57  180 1    
   117   58  181 1    
   118   58  182 1    
   119   58  183 1    
   120   59   60 am   BACKBONE|DICT|INTERRES
   121   59  184 1    
   122   60   61 2    
   123   60   62 1    
   124   62   63 1    
   125   62   64 1    
   126   62  185 1    
   127   63  186 1    
   128   63  187 1    
   129   63  188 1    
   130   64   65 am   BACKBONE|DICT|INTERRES
   131   64  189 1    
   132   65   66 2    
   133   67   68 2    
   134   67   69 am   BACKBONE|DICT|INTERRES
   135   69   70 1    
   136   69  190 1    
   137   70   71 1    
   138   70   72 1    
   139   70  191 1    
   140   71  192 1    
   141   71  193 1    
   142   71  194 1    
   143   72   73 2    
   144   72   74 am   BACKBONE|DICT|INTERRES
   145   74   75 1    
   146   74  195 1    
   147   75   76 1    
   148   75   77 1    
   149   75  196 1    
   150   76  197 1    
   151   76  198 1    
   152   76  199 1    
   153   77   78 2    
   154   77   79 am   BACKBONE|DICT|INTERRES
   155   79   80 1    
   156   79  200 1    
   157   80   81 1    
   158   80   82 1    
   159   80  201 1    
   160   81  202 1    
   161   81  203 1    
   162   81  204 1    
   163   82   83 2    
   164   82   84 am   BACKBONE|DICT|INTERRES
   165   84   85 1    
   166   84  205 1    
   167   85   86 1    
   168   85   87 1    
   169   85  206 1    
   170   86  207 1    
   171   86  208 1    
   172   86  209 1    
   173   87   88 2    
   174   87   89 am   BACKBONE|DICT|INTERRES
   175   89   90 1    
   176   89  210 1    
   177   90   91 1    
   178   90   92 1    
   179   90  211 1    
   180   91  212 1    
   181   91  213 1    
   182   91  214 1    
   183   92   93 2    
   184   92   94 am   BACKBONE|DICT|INTERRES
   185   94   95 1    
   186   94  215 1    
   187   95   96 1    
   188   95   97 1    
   189   95  216 1    
   190   96  217 1    
   191   96  218 1    
   192   96  219 1    
   193   97   98 2    
   194   97   99 am   BACKBONE|DICT|INTERRES
   195   99  100 1    
   196   99  220 1    
   197  100  101 1    
   198  100  102 1    
   199  100  221 1    
   200  101  222 1    
   201  101  223 1    
   202  101  224 1    
   203  102  103 2    
   204  102  104 am   BACKBONE|DICT|INTERRES
   205  104  105 1    
   206  104  225 1    
   207  105  106 1    
   208  105  107 1    
   209  105  226 1    
   210  106  227 1    
   211  106  228 1    
   212  106  229 1    
   213  107  108 2    
   214  107  109 am   BACKBONE|DICT|INTERRES
   215  109  110 1    
   216  109  230 1    
   217  110  111 1    
   218  110  112 1    
   219  110  231 1    
   220  111  232 1    
   221  111  233 1    
   222  111  234 1    
   223  112  113 2    
   224  112  114 am   BACKBONE|DICT|INTERRES
   225  114  115 1    
   226  114  235 1    
   227  115  116 1    
   228  115  117 1    
   229  115  236 1    
   230  116  237 1    
   231  116  238 1    
   232  116  239 1    
   233  117  118 2    
   234  117  119 am   BACKBONE|DICT|INTERRES
   235  119  120 1    
   236  119  240 1    
   237  120  121 1    
   238  120  124 1    
   239  120  241 1    
   240  121  122 am   BACKBONE|DICT|INTERRES
   241  121  123 2    
   242  122  242 1    
   243  122  243 1    
   244  124  125 1    
   245  124  244 1    
   246  124  245 1    
   247  125  126 1    
   248  126  246 1    
   249  126  247 1    
@<TRIPOS>SUBSTRUCTURE
     1 UNK         1 GROUP             0       ****    0 ROOT    
