@<TRIPOS>MOLECULE
3R540
247   249    1
SMALL
USER_CHARGES


@<TRIPOS>ATOM
      1 CA          3.7902  -13.6882  -45.8792 C.3       0 UNK        -0.1800 
      2 C           2.3538  -13.5722  -46.3657 C.2       0 UNK         0.5000 
      3 O           1.5546  -12.8717  -45.7463 O.2       0 UNK        -0.5000 
      4 N           2.0278  -14.2401  -47.4814 N.am      1 UNK        -0.5000 
      5 CA          0.6851  -14.3108  -48.0796 C.3       1 UNK         0.1400 
      6 C6          0.6659  -15.2782  -49.2884 C.3       23 UNK        -0.0398 
      7 S7         -0.9794  -16.0094  -49.5915 S.3       23 UNK        -0.2404 
      8 C8         -0.8724  -17.5862  -48.6826 C.3       23 UNK        -0.0205 
      9 C9          0.1916  -18.5164  -49.2489 C.ar      23 UNK        -0.0193 
     10 C10         0.0858  -19.0049  -50.5544 C.ar      23 UNK        -0.1150 
     11 C11         1.0682  -19.8482  -51.0815 C.ar      23 UNK        -0.0193 
     12 C12         2.1572  -20.2159  -50.2853 C.ar      23 UNK        -0.1150 
     13 C13         2.2759  -19.7303  -48.9792 C.ar      23 UNK        -0.0193 
     14 C14         1.2915  -18.8810  -48.4683 C.ar      23 UNK        -0.1150 
     15 C15         3.4730  -20.1055  -48.1215 C.3       23 UNK        -0.0205 
     16 S16         3.0785  -21.5020  -47.0334 S.3       23 UNK        -0.2404 
     17 C17         4.6811  -21.7607  -46.2076 C.3       23 UNK        -0.0398 
     18 CA          4.6030  -22.6528  -44.9446 C.3       11 UNK         0.1400 
     19 N           3.8201  -22.0266  -43.8705 N.am      11 UNK        -0.5000 
     20 C           4.0233  -22.2587  -42.5654 C.2       10 UNK         0.5000 
     21 O           4.9040  -23.0025  -42.1322 O.2       10 UNK        -0.5000 
     22 CA          3.0713  -21.5652  -41.5778 C.3       10 UNK         0.1400 
     23 CB          3.4647  -20.0944  -41.3666 C.3       10 UNK        -0.1800 
     24 N           1.6801  -21.6484  -42.0187 N.am      10 UNK        -0.5000 
     25 C           0.9089  -22.7370  -41.8860 C.2       9 UNK         0.5000 
     26 O           1.2925  -23.7859  -41.3684 O.2       9 UNK        -0.5000 
     27 CA         -0.5319  -22.6476  -42.4221 C.3       9 UNK         0.1400 
     28 CB         -1.5042  -22.2683  -41.2951 C.3       9 UNK        -0.1800 
     29 N          -0.6658  -21.6868  -43.5159 N.am      9 UNK        -0.5000 
     30 C          -0.2517  -21.9198  -44.7693 C.2       8 UNK         0.5000 
     31 O           0.2564  -22.9797  -45.1319 O.2       8 UNK        -0.5000 
     32 CA         -0.4070  -20.7720  -45.7829 C.3       8 UNK         0.1400 
     33 CB         -1.7931  -20.8458  -46.4342 C.3       8 UNK        -0.1800 
     34 N          -0.2193  -19.4430  -45.2002 N.am      8 UNK        -0.5000 
     35 C           0.8709  -19.0317  -44.5319 C.2       7 UNK         0.5000 
     36 O           1.8856  -19.7155  -44.3958 O.2       7 UNK        -0.5000 
     37 CA          0.8006  -17.6532  -43.8426 C.3       7 UNK         0.1400 
     38 CB          1.4889  -16.5947  -44.7141 C.3       7 UNK        -0.1800 
     39 N          -0.5622  -17.2065  -43.5392 N.am      7 UNK        -0.5000 
     40 C          -1.4621  -17.8830  -42.8061 C.2       6 UNK         0.5000 
     41 O          -1.2003  -18.9246  -42.2031 O.2       6 UNK        -0.5000 
     42 CA         -2.9137  -17.3585  -42.8008 C.3       6 UNK         0.1400 
     43 CB         -3.2020  -16.6006  -41.4964 C.3       6 UNK        -0.1800 
     44 N          -3.2495  -16.4910  -43.9339 N.am      6 UNK        -0.5000 
     45 C          -3.1371  -16.7935  -45.2368 C.2       5 UNK         0.5000 
     46 O          -2.7884  -17.8975  -45.6531 O.2       5 UNK        -0.5000 
     47 CA         -3.3919  -15.6515  -46.2419 C.3       5 UNK         0.1400 
     48 CB         -4.7706  -15.8101  -46.8993 C.3       5 UNK        -0.1800 
     49 N          -3.2793  -14.3074  -45.6608 N.am      5 UNK        -0.5000 
     50 C          -2.1594  -13.7927  -45.1338 C.2       4 UNK         0.5000 
     51 O          -1.0972  -14.4114  -45.0492 O.2       4 UNK        -0.5000 
     52 CA         -2.2682  -12.3909  -44.5264 C.3       4 UNK         0.1400 
     53 CB         -2.4126  -12.4829  -42.9953 C.3       4 UNK        -0.1800 
     54 N          -1.0862  -11.6137  -44.8837 N.am      4 UNK        -0.5000 
     55 C          -1.0111  -10.2773  -44.8358 C.2       3 UNK         0.5000 
     56 O          -1.9259   -9.5534  -44.4397 O.2       3 UNK        -0.5000 
     57 CA          0.2871   -9.6344  -45.3481 C.3       3 UNK         0.1400 
     58 CB          1.4277   -9.7902  -44.3292 C.3       3 UNK        -0.1800 
     59 N           0.6779  -10.2136  -46.6321 N.am      3 UNK        -0.5000 
     60 C           0.2127   -9.7947  -47.8183 C.2       2 UNK         0.5000 
     61 O          -0.5307   -8.8218  -47.9530 O.2       2 UNK        -0.5000 
     62 CA          0.6438  -10.5828  -49.0721 C.3       2 UNK         0.1400 
     63 CB          1.8471   -9.9045  -49.7447 C.3       2 UNK        -0.1800 
     64 N           0.9815  -11.9788  -48.7955 N.am      2 UNK        -0.5000 
     65 C           0.0995  -12.9268  -48.4469 C.2       1 UNK         0.5000 
     66 O          -1.1144  -12.7332  -48.3750 O.2       1 UNK        -0.5000 
     67 C           4.1321  -24.0898  -45.2747 C.2       11 UNK         0.5000 
     68 O           4.8658  -24.8183  -45.9443 O.2       11 UNK        -0.5000 
     69 N           2.9311  -24.4620  -44.8044 N.am      12 UNK        -0.5000 
     70 CA          2.2204  -25.7206  -45.0496 C.3       12 UNK         0.1400 
     71 CB          2.9974  -26.9275  -44.4824 C.3       12 UNK        -0.1800 
     72 C           1.8212  -25.8799  -46.5317 C.2       12 UNK         0.5000 
     73 O           2.1010  -26.9080  -47.1527 O.2       12 UNK        -0.5000 
     74 N           1.1686  -24.8408  -47.0656 N.am      13 UNK        -0.5000 
     75 CA          0.5584  -24.8148  -48.3937 C.3       13 UNK         0.1400 
     76 CB          0.4756  -23.3538  -48.8747 C.3       13 UNK        -0.1800 
     77 C          -0.8253  -25.5004  -48.3994 C.2       13 UNK         0.5000 
     78 O          -1.2605  -26.0577  -47.3890 O.2       13 UNK        -0.5000 
     79 N          -1.5003  -25.4393  -49.5546 N.am      14 UNK        -0.5000 
     80 CA         -2.7931  -26.0719  -49.8380 C.3       14 UNK         0.1400 
     81 CB         -3.0613  -25.9372  -51.3445 C.3       14 UNK        -0.1800 
     82 C          -3.9954  -25.5262  -49.0366 C.2       14 UNK         0.5000 
     83 O          -5.0556  -26.1529  -49.0566 O.2       14 UNK        -0.5000 
     84 N          -3.8251  -24.3712  -48.3763 N.am      15 UNK        -0.5000 
     85 CA         -4.7914  -23.6309  -47.5545 C.3       15 UNK         0.1400 
     86 CB         -5.2744  -24.4610  -46.3489 C.3       15 UNK        -0.1800 
     87 C          -5.9624  -23.0495  -48.3683 C.2       15 UNK         0.5000 
     88 O          -6.0499  -21.8303  -48.5131 O.2       15 UNK        -0.5000 
     89 N          -6.8167  -23.9235  -48.9142 N.am      16 UNK        -0.5000 
     90 CA         -7.9913  -23.5678  -49.7120 C.3       16 UNK         0.1400 
     91 CB         -8.8367  -24.8248  -49.9679 C.3       16 UNK        -0.1800 
     92 C          -7.6152  -22.8760  -51.0331 C.2       16 UNK         0.5000 
     93 O          -8.1756  -21.8283  -51.3545 O.2       16 UNK        -0.5000 
     94 N          -6.6391  -23.4506  -51.7500 N.am      17 UNK        -0.5000 
     95 CA         -6.0667  -22.8543  -52.9586 C.3       17 UNK         0.1400 
     96 CB         -5.4277  -23.9467  -53.8277 C.3       17 UNK        -0.1800 
     97 C          -5.0442  -21.7534  -52.6297 C.2       17 UNK         0.5000 
     98 O          -4.8687  -20.8346  -53.4279 O.2       17 UNK        -0.5000 
     99 N          -4.4009  -21.8343  -51.4558 N.am      18 UNK        -0.5000 
    100 CA        -3.4255  -20.8488  -50.9803 C.3       18 UNK         0.1400 
    101 CB        -2.6917  -21.3943  -49.7530 C.3       18 UNK        -0.1800 
    102 C         -4.0506  -19.4708  -50.7001 C.2       18 UNK         0.5000 
    103 O         -3.3963  -18.4549  -50.9245 O.2       18 UNK        -0.5000 
    104 N         -5.3341  -19.4506  -50.3150 N.am      19 UNK        -0.5000 
    105 CA        -6.1608  -18.2437  -50.2223 C.3       19 UNK         0.1400 
    106 CB        -7.5051  -18.6111  -49.5774 C.3       19 UNK        -0.1800 
    107 C         -6.3798  -17.5323  -51.5781 C.2       19 UNK         0.5000 
    108 O         -6.6869  -16.3404  -51.5889 O.2       19 UNK        -0.5000 
    109 N         -6.1861  -18.2583  -52.6882 N.am      20 UNK        -0.5000 
    110 CA        -6.1740  -17.7548  -54.0620 C.3       20 UNK         0.1400 
    111 CB        -7.1038  -18.6332  -54.9185 C.3       20 UNK        -0.1800 
    112 C         -4.7331  -17.7123  -54.6200 C.2       20 UNK         0.5000 
    113 O         -4.5380  -17.8420  -55.8302 O.2       20 UNK        -0.5000 
    114 N         -3.7435  -17.5522  -53.7266 N.am      21 UNK        -0.5000 
    115 CA        -2.3035  -17.4417  -53.9870 C.3       21 UNK         0.1400 
    116 CB        -1.9888  -16.1427  -54.7574 C.3       21 UNK        -0.1800 
    117 C         -1.6853  -18.6942  -54.6448 C.2       21 UNK         0.5000 
    118 O         -0.6874  -18.5804  -55.3584 O.2       21 UNK        -0.5000 
    119 N         -2.2821  -19.8654  -54.3862 N.am      22 UNK        -0.5000 
    120 CA        -1.9075  -21.1823  -54.9319 C.3       22 UNK         0.1400 
    121 C         -2.2046  -21.3433  -56.4550 C.2       22 UNK         0.5000 
    122 N         -3.0092  -20.4826  -57.0699 N.am      22 UNK        -0.7600 
    123 O         -1.7272  -22.2809  -57.0883 O.2       22 UNK        -0.5000 
    124 C124       -0.4739  -21.6488  -54.5366 C.3       23 UNK        -0.0398 
    125 S125       -0.1999  -21.6899  -52.7282 S.3       23 UNK        -0.2404 
    126 C126        0.9725  -20.3136  -52.5260 C.3       23 UNK        -0.0205 
    127 H127        4.3890  -14.3271  -46.5286 H         1 UNK         0.0600 
    128 H128        3.8098  -14.1103  -44.8745 H         1 UNK         0.0600 
    129 H129        4.2550  -12.7030  -45.8455 H         1 UNK         0.0600 
    130 H130        2.7427  -14.7790  -47.9485 H         1 UNK         0.3000 
    131 H131        0.0411  -14.7321  -47.3076 H         1 UNK         0.0600 
    132 H132        1.0004  -14.7783  -50.1993 H         1 UNK         0.0800 
    133 H133        1.3771  -16.0891  -49.1331 H         1 UNK         0.0800 
    134 H134       -0.6863  -17.3781  -47.6279 H         1 UNK         0.0800 
    135 H135       -1.8411  -18.0846  -48.7270 H         1 UNK         0.0800 
    136 H136       -0.7570  -18.7157  -51.1655 H         1 UNK         0.1150 
    137 H137        2.9200  -20.8683  -50.6863 H         1 UNK         0.1150 
    138 H138        1.3867  -18.5044  -47.4602 H         1 UNK         0.1150 
    139 H139        4.3250  -20.3644  -48.7519 H         1 UNK         0.0800 
    140 H140        3.7792  -19.2501  -47.5172 H         1 UNK         0.0800 
    141 H141        5.3757  -22.1898  -46.9319 H         1 UNK         0.0800 
    142 H142        5.0954  -20.7885  -45.9370 H         1 UNK         0.0800 
    143 H143        5.6297  -22.7555  -44.5863 H         1 UNK         0.0600 
    144 H144        3.0982  -21.3709  -44.1552 H         1 UNK         0.3000 
    145 H145        3.1604  -22.0722  -40.6144 H         1 UNK         0.0600 
    146 H146        2.7975  -19.6057  -40.6564 H         1 UNK         0.0600 
    147 H147        3.4404  -19.5252  -42.2956 H         1 UNK         0.0600 
    148 H148        4.4765  -20.0189  -40.9666 H         1 UNK         0.0600 
    149 H149        1.3107  -20.8466  -42.5105 H         1 UNK         0.3000 
    150 H150       -0.8115  -23.6369  -42.7912 H         1 UNK         0.0600 
    151 H151       -1.4700  -23.0012  -40.4880 H         1 UNK         0.0600 
    152 H152       -2.5321  -22.2299  -41.6561 H         1 UNK         0.0600 
    153 H153       -1.2629  -21.2960  -40.8643 H         1 UNK         0.0600 
    154 H154       -1.0329  -20.7730  -43.2756 H         1 UNK         0.3000 
    155 H155        0.3426  -20.9037  -46.5620 H         1 UNK         0.0600 
    156 H156       -1.9061  -20.0821  -47.2024 H         1 UNK         0.0600 
    157 H157       -1.9508  -21.8165  -46.9038 H         1 UNK         0.0600 
    158 H158       -2.5901  -20.7018  -45.7037 H         1 UNK         0.0600 
    159 H159       -1.0189  -18.8204  -45.2569 H         1 UNK         0.3000 
    160 H160        1.3416  -17.7314  -42.8977 H         1 UNK         0.0600 
    161 H161        0.9702  -16.4607  -45.6641 H         1 UNK         0.0600 
    162 H162        2.5190  -16.8757  -44.9373 H         1 UNK         0.0600 
    163 H163        1.5161  -15.6284  -44.2101 H         1 UNK         0.0600 
    164 H164       -0.8602  -16.3526  -43.9969 H         1 UNK         0.3000 
    165 H165       -3.5710  -18.2288  -42.8486 H         1 UNK         0.0600 
    166 H166       -4.2496  -16.3058  -41.4335 H         1 UNK         0.0600 
    167 H167       -2.9890  -17.2234  -40.6264 H         1 UNK         0.0600 
    168 H168       -2.5928  -15.6996  -41.4126 H         1 UNK         0.0600 
    169 H169       -3.5393  -15.5533  -43.7016 H         1 UNK         0.3000 
    170 H170       -2.6325  -15.7361  -47.0211 H         1 UNK         0.0600 
    171 H171       -4.8772  -16.7998  -47.3454 H         1 UNK         0.0600 
    172 H172       -5.5783  -15.6872  -46.1767 H         1 UNK         0.0600 
    173 H173       -4.9145  -15.0797  -47.6958 H         1 UNK         0.0600 
    174 H174       -4.1169  -13.7432  -45.6778 H         1 UNK         0.3000 
    175 H175       -3.1501  -11.8990  -44.9424 H         1 UNK         0.0600 
    176 H176       -1.5333  -12.9385  -42.5380 H         1 UNK         0.0600 
    177 H177       -2.5507  -11.4995  -42.5461 H         1 UNK         0.0600 
    178 H178       -3.2775  -13.0868  -42.7182 H         1 UNK         0.0600 
    179 H179       -0.2914  -12.1563  -45.2142 H         1 UNK         0.3000 
    180 H180        0.1071   -8.5646  -45.4752 H         1 UNK         0.0600 
    181 H181        1.1708   -9.3076  -43.3856 H         1 UNK         0.0600 
    182 H182        2.3455   -9.3273  -44.6919 H         1 UNK         0.0600 
    183 H183        1.6442  -10.8356  -44.1100 H         1 UNK         0.0600 
    184 H184        1.2220  -11.0678  -46.5875 H         1 UNK         0.3000 
    185 H185       -0.1928  -10.5679  -49.7738 H         1 UNK         0.0600 
    186 H186        1.6219   -8.8665  -49.9931 H         1 UNK         0.0600 
    187 H187        2.7236   -9.9037  -49.0954 H         1 UNK         0.0600 
    188 H188        2.1163  -10.4080  -50.6734 H         1 UNK         0.0600 
    189 H189        1.9613  -12.2211  -48.8164 H         1 UNK         0.3000 
    190 H190        2.3949  -23.7580  -44.3165 H         1 UNK         0.3000 
    191 H191        1.2853  -25.6496  -44.4918 H         1 UNK         0.0600 
    192 H192        2.4004  -27.8376  -44.5491 H         1 UNK         0.0600 
    193 H193        3.2441  -26.7774  -43.4313 H         1 UNK         0.0600 
    194 H194        3.9263  -27.1091  -45.0232 H         1 UNK         0.0600 
    195 H195        0.9309  -24.0682  -46.4471 H         1 UNK         0.3000 
    196 H196        1.1975  -25.3644  -49.0875 H         1 UNK         0.0600 
    197 H197       -0.1266  -22.7396  -48.2066 H         1 UNK         0.0600 
    198 H198        1.4678  -22.9101  -48.9333 H         1 UNK         0.0600 
    199 H199        0.0493  -23.2732  -49.8746 H         1 UNK         0.0600 
    200 H200       -1.0666  -24.9667  -50.3345 H         1 UNK         0.3000 
    201 H201       -2.7071  -27.1332  -49.5968 H         1 UNK         0.0600 
    202 H202       -4.0216  -26.3754  -51.6202 H         1 UNK         0.0600 
    203 H203       -2.2959  -26.4489  -51.9282 H         1 UNK         0.0600 
    204 H204       -3.0710  -24.8908  -51.6507 H         1 UNK         0.0600 
    205 H205       -2.9054  -23.9605  -48.4303 H         1 UNK         0.3000 
    206 H206       -4.2463  -22.7798  -47.1448 H         1 UNK         0.0600 
    207 H207       -4.4324  -24.7881  -45.7386 H         1 UNK         0.0600 
    208 H208       -5.9288  -23.8688  -45.7081 H         1 UNK         0.0600 
    209 H209       -5.8314  -25.3486  -46.6488 H         1 UNK         0.0600 
    210 H210       -6.6022  -24.9106  -48.8148 H         1 UNK         0.3000 
    211 H211       -8.5924  -22.8663  -49.1295 H         1 UNK         0.0600 
    212 H212       -8.2749  -25.5880  -50.5078 H         1 UNK         0.0600 
    213 H213       -9.7217  -24.5868  -50.5595 H         1 UNK         0.0600 
    214 H214       -9.1812  -25.2636  -49.0314 H         1 UNK         0.0600 
    215 H215       -6.2451  -24.3227  -51.4285 H         1 UNK         0.3000 
    216 H216       -6.8675  -22.3933  -53.5412 H         1 UNK         0.0600 
    217 H217       -6.1593  -24.7047  -54.1079 H         1 UNK         0.0600 
    218 H218       -4.6062  -24.4462  -53.3176 H         1 UNK         0.0600 
    219 H219       -5.0291  -23.5243  -54.7512 H         1 UNK         0.0600 
    220 H220       -4.6258  -22.5947  -50.8344 H         1 UNK         0.3000 
    221 H221       -2.6893  -20.7079  -51.7703 H         1 UNK         0.0600 
    222 H222       -1.8535  -20.7506  -49.4891 H         1 UNK         0.0600 
    223 H223       -3.3502  -21.4464  -48.8885 H         1 UNK         0.0600 
    224 H224       -2.2856  -22.3866  -49.9444 H         1 UNK         0.0600 
    225 H225       -5.7863  -20.3286  -50.0888 H         1 UNK         0.3000 
    226 H226       -5.6469  -17.5387  -49.5665 H         1 UNK         0.0600 
    227 H227       -7.3613  -19.0594  -48.5939 H         1 UNK         0.0600 
    228 H228       -8.1302  -17.7273  -49.4443 H         1 UNK         0.0600 
    229 H229       -8.0630  -19.3198  -50.1902 H         1 UNK         0.0600 
    230 H230       -5.9017  -19.2256  -52.5903 H         1 UNK         0.3000 
    231 H231       -6.5545  -16.7323  -54.0936 H         1 UNK         0.0600 
    232 H232       -7.1870  -18.2441  -55.9339 H         1 UNK         0.0600 
    233 H233       -8.1104  -18.6638  -54.5013 H         1 UNK         0.0600 
    234 H234       -6.7393  -19.6585  -54.9883 H         1 UNK         0.0600 
    235 H235       -3.9914  -17.5303  -52.7441 H         1 UNK         0.3000 
    236 H236       -1.8300  -17.3596  -53.0076 H         1 UNK         0.0600 
    237 H237       -2.3746  -16.1731  -55.7768 H         1 UNK         0.0600 
    238 H238       -2.4215  -15.2749  -54.2597 H         1 UNK         0.0600 
    239 H239       -0.9131  -15.9745  -54.8199 H         1 UNK         0.0600 
    240 H240       -3.1457  -19.8617  -53.8558 H         1 UNK         0.3000 
    241 H241       -2.5940  -21.8854  -54.4612 H         1 UNK         0.0600 
    242 H242       -3.2037  -20.6013  -58.0513 H         1 UNK         0.3800 
    243 H243       -3.4188  -19.7053  -56.5684 H         1 UNK         0.3800 
    244 H244        0.2819  -21.0271  -55.0178 H         1 UNK         0.0800 
    245 H245       -0.2965  -22.6614  -54.9018 H         1 UNK         0.0800 
    246 H246        0.6680  -19.4702  -53.1448 H         1 UNK         0.0800 
    247 H247        1.9514  -20.6229  -52.8953 H         1 UNK         0.0800 
@<TRIPOS>BOND
     1    1    2 1    
     2    1  127 1    
     3    1  128 1    
     4    1  129 1    
     5    2    3 2    
     6    2    4 am   BACKBONE|DICT|INTERRES
     7    4    5 1    
     8    4  130 1    
     9    5    6 1    
    10    5   65 1    
    11    5  131 1    
    12    6    7 1    
    13    6  132 1    
    14    6  133 1    
    15    7    8 1    
    16    8    9 1    
    17    8  134 1    
    18    8  135 1    
    19    9   10 ar   
    20    9   14 ar   
    21   10   11 ar   
    22   10  136 1    
    23   11   12 ar   
    24   11  126 1    
    25   12   13 ar   
    26   12  137 1    
    27   13   14 ar   
    28   13   15 1    
    29   14  138 1    
    30   15   16 1    
    31   15  139 1    
    32   15  140 1    
    33   16   17 1    
    34   17   18 1    
    35   17  141 1    
    36   17  142 1    
    37   18   19 1    
    38   18   67 1    
    39   18  143 1    
    40   19   20 am   BACKBONE|DICT|INTERRES
    41   19  144 1    
    42   20   21 2    
    43   20   22 1    
    44   22   23 1    
    45   22   24 1    
    46   22  145 1    
    47   23  146 1    
    48   23  147 1    
    49   23  148 1    
    50   24   25 am   BACKBONE|DICT|INTERRES
    51   24  149 1    
    52   25   26 2    
    53   25   27 1    
    54   27   28 1    
    55   27   29 1    
    56   27  150 1    
    57   28  151 1    
    58   28  152 1    
    59   28  153 1    
    60   29   30 am   BACKBONE|DICT|INTERRES
    61   29  154 1    
    62   30   31 2    
    63   30   32 1    
    64   32   33 1    
    65   32   34 1    
    66   32  155 1    
    67   33  156 1    
    68   33  157 1    
    69   33  158 1    
    70   34   35 am   BACKBONE|DICT|INTERRES
    71   34  159 1    
    72   35   36 2    
    73   35   37 1    
    74   37   38 1    
    75   37   39 1    
    76   37  160 1    
    77   38  161 1    
    78   38  162 1    
    79   38  163 1    
    80   39   40 am   BACKBONE|DICT|INTERRES
    81   39  164 1    
    82   40   41 2    
    83   40   42 1    
    84   42   43 1    
    85   42   44 1    
    86   42  165 1    
    87   43  166 1    
    88   43  167 1    
    89   43  168 1    
    90   44   45 am   BACKBONE|DICT|INTERRES
    91   44  169 1    
    92   45   46 2    
    93   45   47 1    
    94   47   48 1    
    95   47   49 1    
    96   47  170 1    
    97   48  171 1    
    98   48  172 1    
    99   48  173 1    
   100   49   50 am   BACKBONE|DICT|INTERRES
   101   49  174 1    
   102   50   51 2    
   103   50   52 1    
   104   52   53 1    
   105   52   54 1    
   106   52  175 1    
   107   53  176 1    
   108   53  177 1    
   109   53  178 1    
   110   54   55 am   BACKBONE|DICT|INTERRES
   111   54  179 1    
   112   55   56 2    
   113   55   57 1    
   114   57   58 1    
   115   57   59 1    
   116   57  180 1    
   117   58  181 1    
   118   58  182 1    
   119   58  183 1    
   120   59   60 am   BACKBONE|DICT|INTERRES
   121   59  184 1    
   122   60   61 2    
   123   60   62 1    
   124   62   63 1    
   125   62   64 1    
   126   62  185 1    
   127   63  186 1    
   128   63  187 1    
   129   63  188 1    
   130   64   65 am   BACKBONE|DICT|INTERRES
   131   64  189 1    
   132   65   66 2    
   133   67   68 2    
   134   67   69 am   BACKBONE|DICT|INTERRES
   135   69   70 1    
   136   69  190 1    
   137   70   71 1    
   138   70   72 1    
   139   70  191 1    
   140   71  192 1    
   141   71  193 1    
   142   71  194 1    
   143   72   73 2    
   144   72   74 am   BACKBONE|DICT|INTERRES
   145   74   75 1    
   146   74  195 1    
   147   75   76 1    
   148   75   77 1    
   149   75  196 1    
   150   76  197 1    
   151   76  198 1    
   152   76  199 1    
   153   77   78 2    
   154   77   79 am   BACKBONE|DICT|INTERRES
   155   79   80 1    
   156   79  200 1    
   157   80   81 1    
   158   80   82 1    
   159   80  201 1    
   160   81  202 1    
   161   81  203 1    
   162   81  204 1    
   163   82   83 2    
   164   82   84 am   BACKBONE|DICT|INTERRES
   165   84   85 1    
   166   84  205 1    
   167   85   86 1    
   168   85   87 1    
   169   85  206 1    
   170   86  207 1    
   171   86  208 1    
   172   86  209 1    
   173   87   88 2    
   174   87   89 am   BACKBONE|DICT|INTERRES
   175   89   90 1    
   176   89  210 1    
   177   90   91 1    
   178   90   92 1    
   179   90  211 1    
   180   91  212 1    
   181   91  213 1    
   182   91  214 1    
   183   92   93 2    
   184   92   94 am   BACKBONE|DICT|INTERRES
   185   94   95 1    
   186   94  215 1    
   187   95   96 1    
   188   95   97 1    
   189   95  216 1    
   190   96  217 1    
   191   96  218 1    
   192   96  219 1    
   193   97   98 2    
   194   97   99 am   BACKBONE|DICT|INTERRES
   195   99  100 1    
   196   99  220 1    
   197  100  101 1    
   198  100  102 1    
   199  100  221 1    
   200  101  222 1    
   201  101  223 1    
   202  101  224 1    
   203  102  103 2    
   204  102  104 am   BACKBONE|DICT|INTERRES
   205  104  105 1    
   206  104  225 1    
   207  105  106 1    
   208  105  107 1    
   209  105  226 1    
   210  106  227 1    
   211  106  228 1    
   212  106  229 1    
   213  107  108 2    
   214  107  109 am   BACKBONE|DICT|INTERRES
   215  109  110 1    
   216  109  230 1    
   217  110  111 1    
   218  110  112 1    
   219  110  231 1    
   220  111  232 1    
   221  111  233 1    
   222  111  234 1    
   223  112  113 2    
   224  112  114 am   BACKBONE|DICT|INTERRES
   225  114  115 1    
   226  114  235 1    
   227  115  116 1    
   228  115  117 1    
   229  115  236 1    
   230  116  237 1    
   231  116  238 1    
   232  116  239 1    
   233  117  118 2    
   234  117  119 am   BACKBONE|DICT|INTERRES
   235  119  120 1    
   236  119  240 1    
   237  120  121 1    
   238  120  124 1    
   239  120  241 1    
   240  121  122 am   BACKBONE|DICT|INTERRES
   241  121  123 2    
   242  122  242 1    
   243  122  243 1    
   244  124  125 1    
   245  124  244 1    
   246  124  245 1    
   247  125  126 1    
   248  126  246 1    
   249  126  247 1    
@<TRIPOS>SUBSTRUCTURE
     1 UNK         1 GROUP             0       ****    0 ROOT    
