@<TRIPOS>MOLECULE
3R540
247   249    1
SMALL
USER_CHARGES


@<TRIPOS>ATOM
      1 CA         -6.0805  -13.5269  -47.7297 C.3       0 UNK        -0.1800 
      2 C          -5.0643  -13.4084  -46.6026 C.2       0 UNK         0.5000 
      3 O          -4.9128  -12.3323  -46.0252 O.2       0 UNK        -0.5000 
      4 N          -4.3698  -14.5126  -46.2971 N.am      1 UNK        -0.5000 
      5 CA         -3.3161  -14.6286  -45.2817 C.3       1 UNK         0.1400 
      6 C6         -3.8441  -14.4567  -43.8304 C.3       23 UNK        -0.0398 
      7 S7         -2.9460  -15.5149  -42.6389 S.3       23 UNK        -0.2404 
      8 C8         -4.2513  -16.6396  -42.0417 C.3       23 UNK        -0.0205 
      9 C9         -4.4068  -17.8878  -42.9028 C.ar      23 UNK        -0.0193 
     10 C10        -5.0011  -17.8120  -44.1654 C.ar      23 UNK        -0.1150 
     11 C11        -5.1830  -18.9612  -44.9436 C.ar      23 UNK        -0.0193 
     12 C12        -4.7886  -20.2020  -44.4309 C.ar      23 UNK        -0.1150 
     13 C13        -4.2235  -20.3002  -43.1552 C.ar      23 UNK        -0.0193 
     14 C14        -4.0189  -19.1364  -42.4065 C.ar      23 UNK        -0.1150 
     15 C15        -3.9209  -21.6639  -42.5425 C.3       23 UNK        -0.0205 
     16 S16        -2.1532  -21.8966  -42.1741 S.3       23 UNK        -0.2404 
     17 C17        -1.5940  -23.0244  -43.4958 C.3       23 UNK        -0.0398 
     18 CA         -1.8063  -22.5125  -44.9407 C.3       11 UNK         0.1400 
     19 N          -1.3117  -21.1503  -45.1574 N.am      11 UNK        -0.5000 
     20 C          -1.5283  -20.4422  -46.2742 C.2       10 UNK         0.5000 
     21 O          -2.2038  -20.8465  -47.2182 O.2       10 UNK        -0.5000 
     22 CA         -0.8150  -19.0902  -46.3951 C.3       10 UNK         0.1400 
     23 CB         -1.6261  -17.9615  -45.7524 C.3       10 UNK        -0.1800 
     24 N           0.5215  -19.1286  -45.8105 N.am      10 UNK        -0.5000 
     25 C           1.5701  -19.7473  -46.3675 C.2       9 UNK         0.5000 
     26 O           1.5260  -20.3230  -47.4546 O.2       9 UNK        -0.5000 
     27 CA          2.8726  -19.7630  -45.5471 C.3       9 UNK         0.1400 
     28 CB          3.6324  -18.4414  -45.7214 C.3       9 UNK        -0.1800 
     29 N           2.6387  -20.0008  -44.1215 N.am      9 UNK        -0.5000 
     30 C           2.1394  -21.1389  -43.6197 C.2       8 UNK         0.5000 
     31 O           1.8770  -22.1275  -44.3034 O.2       8 UNK        -0.5000 
     32 CA          1.8369  -21.1734  -42.1096 C.3       8 UNK         0.1400 
     33 CB          3.0546  -21.6946  -41.3326 C.3       8 UNK        -0.1800 
     34 N           1.4073  -19.8979  -41.5281 N.am      8 UNK        -0.5000 
     35 C           0.4017  -19.1266  -41.9656 C.2       7 UNK         0.5000 
     36 O          -0.2257  -19.3459  -43.0009 O.2       7 UNK        -0.5000 
     37 CA          0.0219  -17.8979  -41.1184 C.3       7 UNK         0.1400 
     38 CB          0.8044  -17.7656  -39.7920 C.3       7 UNK        -0.1800 
     39 N           0.1085  -16.6585  -41.8915 N.am      7 UNK        -0.5000 
     40 C           1.1932  -16.1448  -42.4865 C.2       6 UNK         0.5000 
     41 O           2.3015  -16.6883  -42.4961 O.2       6 UNK        -0.5000 
     42 CA          0.9904  -14.7691  -43.1478 C.3       6 UNK         0.1400 
     43 CB          0.6373  -13.6999  -42.0987 C.3       6 UNK        -0.1800 
     44 N           2.1887  -14.3300  -43.8598 N.am      6 UNK        -0.5000 
     45 C           2.4569  -14.6088  -45.1372 C.2       5 UNK         0.5000 
     46 O           1.6905  -15.2275  -45.8837 O.2       5 UNK        -0.5000 
     47 CA          3.8042  -14.0940  -45.6710 C.3       5 UNK         0.1400 
     48 CB          4.9835  -14.9338  -45.1461 C.3       5 UNK        -0.1800 
     49 N           3.7527  -14.1444  -47.1236 N.am      5 UNK        -0.5000 
     50 C           4.5583  -13.5415  -48.0030 C.2       4 UNK         0.5000 
     51 O           5.5240  -12.8513  -47.6747 O.2       4 UNK        -0.5000 
     52 CA          4.2072  -13.6880  -49.5027 C.3       4 UNK         0.1400 
     53 CB          5.3116  -14.4311  -50.2806 C.3       4 UNK        -0.1800 
     54 N           2.8760  -14.2664  -49.7481 N.am      4 UNK        -0.5000 
     55 C           2.4549  -15.5235  -49.5476 C.2       3 UNK         0.5000 
     56 O           3.1989  -16.4573  -49.2480 O.2       3 UNK        -0.5000 
     57 CA          0.9253  -15.7255  -49.5756 C.3       3 UNK         0.1400 
     58 CB          0.5303  -17.1889  -49.3310 C.3       3 UNK        -0.1800 
     59 N           0.2770  -14.8977  -48.5533 N.am      3 UNK        -0.5000 
     60 C           0.0148  -13.5891  -48.6622 C.2       2 UNK         0.5000 
     61 O           0.2681  -12.9366  -49.6762 O.2       2 UNK        -0.5000 
     62 CA         -0.6247  -12.9114  -47.4395 C.3       2 UNK         0.1400 
     63 CB         -1.1662  -11.5008  -47.7465 C.3       2 UNK        -0.1800 
     64 N          -1.6947  -13.7467  -46.8968 N.am      2 UNK        -0.5000 
     65 C          -2.0900  -13.7444  -45.6171 C.2       1 UNK         0.5000 
     66 O          -1.5483  -13.0651  -44.7441 O.2       1 UNK        -0.5000 
     67 C          -1.1987  -23.5046  -45.9552 C.2       11 UNK         0.5000 
     68 O          -1.9284  -24.3170  -46.5239 O.2       11 UNK        -0.5000 
     69 N           0.1161  -23.3937  -46.1962 N.am      12 UNK        -0.5000 
     70 CA          0.8443  -24.1666  -47.2017 C.3       12 UNK         0.1400 
     71 CB          2.3530  -23.9221  -47.0513 C.3       12 UNK        -0.1800 
     72 C           0.3796  -23.8553  -48.6346 C.2       12 UNK         0.5000 
     73 O           0.2029  -24.7809  -49.4257 O.2       12 UNK        -0.5000 
     74 N           0.1515  -22.5691  -48.9357 N.am      13 UNK        -0.5000 
     75 CA         -0.3805  -22.1159  -50.2199 C.3       13 UNK         0.1400 
     76 CB         -0.2752  -20.5906  -50.3194 C.3       13 UNK        -0.1800 
     77 C          -1.8253  -22.5853  -50.4647 C.2       13 UNK         0.5000 
     78 O          -2.1485  -22.9700  -51.5877 O.2       13 UNK        -0.5000 
     79 N          -2.6615  -22.5717  -49.4166 N.am      14 UNK        -0.5000 
     80 CA         -4.0199  -23.1189  -49.4123 C.3       14 UNK         0.1400 
     81 CB         -4.7198  -22.7729  -48.0894 C.3       14 UNK        -0.1800 
     82 C          -4.0397  -24.6360  -49.6618 C.2       14 UNK         0.5000 
     83 O          -4.8086  -25.0982  -50.5054 O.2       14 UNK        -0.5000 
     84 N          -3.1541  -25.3731  -48.9744 N.am      15 UNK        -0.5000 
     85 CA         -2.9454  -26.8144  -49.1498 C.3       15 UNK         0.1400 
     86 CB         -1.9750  -27.3258  -48.0750 C.3       15 UNK        -0.1800 
     87 C          -2.4492  -27.1927  -50.5605 C.2       15 UNK         0.5000 
     88 O          -2.7799  -28.2713  -51.0527 O.2       15 UNK        -0.5000 
     89 N          -1.7194  -26.2747  -51.2070 N.am      16 UNK        -0.5000 
     90 CA         -1.2792  -26.3435  -52.6014 C.3       16 UNK         0.1400 
     91 CB          0.0288  -25.5461  -52.7417 C.3       16 UNK        -0.1800 
     92 C          -2.3581  -25.8787  -53.6103 C.2       16 UNK         0.5000 
     93 O          -2.0169  -25.5477  -54.7464 O.2       16 UNK        -0.5000 
     94 N          -3.6333  -25.8767  -53.1917 N.am      17 UNK        -0.5000 
     95 CA         -4.8361  -25.5318  -53.9561 C.3       17 UNK         0.1400 
     96 CB         -5.0265  -26.4753  -55.1632 C.3       17 UNK        -0.1800 
     97 C          -4.8992  -24.0369  -54.3242 C.2       17 UNK         0.5000 
     98 O          -5.2103  -23.6899  -55.4651 O.2       17 UNK        -0.5000 
     99 N          -4.6140  -23.1872  -53.3275 N.am      18 UNK        -0.5000 
    100 CA        -4.5877  -21.7220  -53.3816 C.3       18 UNK         0.1400 
    101 CB        -5.9965  -21.1439  -53.6254 C.3       18 UNK        -0.1800 
    102 C         -3.5265  -21.2013  -54.3691 C.2       18 UNK         0.5000 
    103 O         -3.8404  -20.4510  -55.2951 O.2       18 UNK        -0.5000 
    104 N         -2.2795  -21.6394  -54.1517 N.am      19 UNK        -0.5000 
    105 CA        -1.1131  -21.3174  -54.9782 C.3       19 UNK         0.1400 
    106 CB         0.0673  -22.1939  -54.5356 C.3       19 UNK        -0.1800 
    107 C         -0.7185  -19.8268  -54.9550 C.2       19 UNK         0.5000 
    108 O         -0.1599  -19.3326  -55.9353 O.2       19 UNK        -0.5000 
    109 N         -1.0259  -19.1394  -53.8510 N.am      20 UNK        -0.5000 
    110 CA        -0.8419  -17.7088  -53.6504 C.3       20 UNK         0.1400 
    111 CB         0.6145  -17.4051  -53.2597 C.3       20 UNK        -0.1800 
    112 C         -1.8190  -17.2693  -52.5551 C.2       20 UNK         0.5000 
    113 O         -2.0169  -18.0146  -51.5915 O.2       20 UNK        -0.5000 
    114 N         -2.4154  -16.0811  -52.7225 N.am      21 UNK        -0.5000 
    115 CA        -3.4499  -15.4978  -51.8607 C.3       21 UNK         0.1400 
    116 CB        -2.8281  -15.0004  -50.5353 C.3       21 UNK        -0.1800 
    117 C         -4.6432  -16.4630  -51.6808 C.2       21 UNK         0.5000 
    118 O         -5.3013  -16.7930  -52.6688 O.2       21 UNK        -0.5000 
    119 N         -4.8794  -16.9104  -50.4441 N.am      22 UNK        -0.5000 
    120 CA        -5.8636  -17.9397  -50.0849 C.3       22 UNK         0.1400 
    121 C         -5.3109  -19.3942  -50.1268 C.2       22 UNK         0.5000 
    122 N         -4.0250  -19.6220  -50.3675 N.am      22 UNK        -0.7600 
    123 O         -6.0709  -20.3393  -49.9407 O.2       22 UNK        -0.5000 
    124 C124       -6.5280  -17.6181  -48.7222 C.3       23 UNK        -0.0398 
    125 S125       -5.3440  -17.4897  -47.3327 S.3       23 UNK        -0.2404 
    126 C126       -5.8842  -18.8896  -46.2968 C.3       23 UNK        -0.0205 
    127 H127       -7.0928  -13.4595  -47.3314 H         1 UNK         0.0600 
    128 H128       -5.9845  -14.4720  -48.2640 H         1 UNK         0.0600 
    129 H129       -5.9403  -12.7195  -48.4484 H         1 UNK         0.0600 
    130 H130       -4.5854  -15.3716  -46.7876 H         1 UNK         0.3000 
    131 H131       -2.9738  -15.6557  -45.3810 H         1 UNK         0.0600 
    132 H132       -3.7908  -13.4173  -43.5024 H         1 UNK         0.0800 
    133 H133       -4.9039  -14.7065  -43.7873 H         1 UNK         0.0800 
    134 H134       -5.2050  -16.1144  -41.9753 H         1 UNK         0.0800 
    135 H135       -4.0028  -16.9248  -41.0184 H         1 UNK         0.0800 
    136 H136       -5.3393  -16.8575  -44.5389 H         1 UNK         0.1150 
    137 H137       -4.9597  -21.0975  -45.0114 H         1 UNK         0.1150 
    138 H138       -3.5875  -19.2123  -41.4184 H         1 UNK         0.1150 
    139 H139       -4.4768  -21.7485  -41.6079 H         1 UNK         0.0800 
    140 H140       -4.2846  -22.4729  -43.1770 H         1 UNK         0.0800 
    141 H141       -2.1048  -23.9792  -43.3591 H         1 UNK         0.0800 
    142 H142       -0.5365  -23.2247  -43.3170 H         1 UNK         0.0800 
    143 H143       -2.8802  -22.4909  -45.1321 H         1 UNK         0.0600 
    144 H144       -0.8030  -20.7140  -44.3951 H         1 UNK         0.3000 
    145 H145       -0.7254  -18.8720  -47.4587 H         1 UNK         0.0600 
    146 H146       -1.1027  -17.0093  -45.8381 H         1 UNK         0.0600 
    147 H147       -2.5903  -17.8582  -46.2490 H         1 UNK         0.0600 
    148 H148       -1.8230  -18.1459  -44.6960 H         1 UNK         0.0600 
    149 H149        0.6028  -18.7866  -44.8610 H         1 UNK         0.3000 
    150 H150        3.4978  -20.5723  -45.9300 H         1 UNK         0.0600 
    151 H151        3.8016  -18.2197  -46.7764 H         1 UNK         0.0600 
    152 H152        4.6068  -18.4796  -45.2345 H         1 UNK         0.0600 
    153 H153        3.0768  -17.6052  -45.2963 H         1 UNK         0.0600 
    154 H154        2.7958  -19.2243  -43.4935 H         1 UNK         0.3000 
    155 H155        1.0175  -21.8789  -41.9633 H         1 UNK         0.0600 
    156 H156        3.8973  -21.0051  -41.3972 H         1 UNK         0.0600 
    157 H157        3.3865  -22.6570  -41.7248 H         1 UNK         0.0600 
    158 H158        2.8185  -21.8401  -40.2783 H         1 UNK         0.0600 
    159 H159        1.8828  -19.6139  -40.6844 H         1 UNK         0.3000 
    160 H160       -1.0320  -18.0260  -40.8666 H         1 UNK         0.0600 
    161 H161        1.8747  -17.6327  -39.9536 H         1 UNK         0.0600 
    162 H162        0.6661  -18.6453  -39.1622 H         1 UNK         0.0600 
    163 H163        0.4514  -16.9078  -39.2194 H         1 UNK         0.0600 
    164 H164       -0.7672  -16.1606  -41.9897 H         1 UNK         0.3000 
    165 H165        0.1592  -14.8603  -43.8485 H         1 UNK         0.0600 
    166 H166        0.5003  -12.7244  -42.5662 H         1 UNK         0.0600 
    167 H167       -0.2947  -13.9374  -41.5849 H         1 UNK         0.0600 
    168 H168        1.4163  -13.6040  -41.3415 H         1 UNK         0.0600 
    169 H169        2.8888  -13.8635  -43.3020 H         1 UNK         0.3000 
    170 H170        3.9229  -13.0551  -45.3574 H         1 UNK         0.0600 
    171 H171        4.9774  -14.9926  -44.0572 H         1 UNK         0.0600 
    172 H172        4.9519  -15.9521  -45.5314 H         1 UNK         0.0600 
    173 H173        5.9392  -14.4995  -45.4393 H         1 UNK         0.0600 
    174 H174        2.9798  -14.6981  -47.4714 H         1 UNK         0.3000 
    175 H175        4.1585  -12.6728  -49.8990 H         1 UNK         0.0600 
    176 H176        5.0524  -14.5352  -51.3341 H         1 UNK         0.0600 
    177 H177        6.2537  -13.8842  -50.2304 H         1 UNK         0.0600 
    178 H178        5.4977  -15.4269  -49.8781 H         1 UNK         0.0600 
    179 H179        2.1485  -13.5848  -49.9442 H         1 UNK         0.3000 
    180 H180        0.5622  -15.4357  -50.5639 H         1 UNK         0.0600 
    181 H181        0.8867  -17.5321  -48.3602 H         1 UNK         0.0600 
    182 H182        0.9659  -17.8435  -50.0843 H         1 UNK         0.0600 
    183 H183       -0.5501  -17.3244  -49.3657 H         1 UNK         0.0600 
    184 H184        0.1499  -15.3312  -47.6478 H         1 UNK         0.3000 
    185 H185        0.1702  -12.8197  -46.6963 H         1 UNK         0.0600 
    186 H186       -0.3778  -10.8494  -48.1253 H         1 UNK         0.0600 
    187 H187       -1.9589  -11.5323  -48.4949 H         1 UNK         0.0600 
    188 H188       -1.5710  -11.0279  -46.8517 H         1 UNK         0.0600 
    189 H189       -2.1890  -14.3224  -47.5630 H         1 UNK         0.3000 
    190 H190        0.6655  -22.7381  -45.6466 H         1 UNK         0.3000 
    191 H191        0.6522  -25.2247  -47.0130 H         1 UNK         0.0600 
    192 H192        2.6070  -22.8705  -47.1880 H         1 UNK         0.0600 
    193 H193        2.9175  -24.4960  -47.7872 H         1 UNK         0.0600 
    194 H194        2.7038  -24.2241  -46.0643 H         1 UNK         0.0600 
    195 H195        0.3709  -21.8533  -48.2513 H         1 UNK         0.3000 
    196 H196        0.2443  -22.5453  -51.0053 H         1 UNK         0.0600 
    197 H197       -0.5857  -20.2472  -51.3047 H         1 UNK         0.0600 
    198 H198        0.7519  -20.2580  -50.1709 H         1 UNK         0.0600 
    199 H199       -0.9020  -20.0887  -49.5822 H         1 UNK         0.0600 
    200 H200       -2.3406  -22.1620  -48.5416 H         1 UNK         0.3000 
    201 H201       -4.5756  -22.6440  -50.2222 H         1 UNK         0.0600 
    202 H202       -4.7281  -21.6968  -47.9213 H         1 UNK         0.0600 
    203 H203       -4.2318  -23.2374  -47.2335 H         1 UNK         0.0600 
    204 H204       -5.7576  -23.1075  -48.0993 H         1 UNK         0.0600 
    205 H205       -2.5860  -24.9165  -48.2659 H         1 UNK         0.3000 
    206 H206       -3.9083  -27.3066  -48.9995 H         1 UNK         0.0600 
    207 H207       -2.3542  -27.1241  -47.0731 H         1 UNK         0.0600 
    208 H208       -1.8323  -28.4039  -48.1582 H         1 UNK         0.0600 
    209 H209       -0.9947  -26.8575  -48.1618 H         1 UNK         0.0600 
    210 H210       -1.4540  -25.4388  -50.7001 H         1 UNK         0.3000 
    211 H211       -1.0562  -27.3842  -52.8441 H         1 UNK         0.0600 
    212 H212        0.4381  -25.6263  -53.7493 H         1 UNK         0.0600 
    213 H213       -0.1232  -24.4889  -52.5289 H         1 UNK         0.0600 
    214 H214        0.7901  -25.9164  -52.0549 H         1 UNK         0.0600 
    215 H215       -3.8028  -26.1075  -52.2211 H         1 UNK         0.3000 
    216 H216       -5.6749  -25.7056  -53.2804 H         1 UNK         0.0600 
    217 H217       -5.9950  -26.3097  -55.6363 H         1 UNK         0.0600 
    218 H218       -4.9909  -27.5205  -54.8562 H         1 UNK         0.0600 
    219 H219       -4.2629  -26.3228  -55.9262 H         1 UNK         0.0600 
    220 H220       -4.3011  -23.5924  -52.4551 H         1 UNK         0.3000 
    221 H221       -4.2720  -21.3890  -52.3946 H         1 UNK         0.0600 
    222 H222       -6.3853  -21.4110  -54.6082 H         1 UNK         0.0600 
    223 H223       -6.7016  -21.5006  -52.8746 H         1 UNK         0.0600 
    224 H224       -5.9826  -20.0549  -53.5630 H         1 UNK         0.0600 
    225 H225       -2.1267  -22.2596  -53.3608 H         1 UNK         0.3000 
    226 H226       -1.3582  -21.5729  -56.0111 H         1 UNK         0.0600 
    227 H227       -0.1619  -23.2509  -54.6690 H         1 UNK         0.0600 
    228 H228        0.9588  -21.9800  -55.1264 H         1 UNK         0.0600 
    229 H229        0.3194  -22.0306  -53.4874 H         1 UNK         0.0600 
    230 H230       -1.5157  -19.6032  -53.0977 H         1 UNK         0.3000 
    231 H231       -1.0891  -17.1819  -54.5744 H         1 UNK         0.0600 
    232 H232        1.2977  -17.6369  -54.0767 H         1 UNK         0.0600 
    233 H233        0.9251  -17.9887  -52.3936 H         1 UNK         0.0600 
    234 H234        0.7455  -16.3502  -53.0162 H         1 UNK         0.0600 
    235 H235       -2.2073  -15.5543  -53.5589 H         1 UNK         0.3000 
    236 H236       -3.8415  -14.6264  -52.3874 H         1 UNK         0.0600 
    237 H237       -2.3813  -15.8091  -49.9569 H         1 UNK         0.0600 
    238 H238       -2.0459  -14.2688  -50.7351 H         1 UNK         0.0600 
    239 H239       -3.5721  -14.5068  -49.9087 H         1 UNK         0.0600 
    240 H240       -4.2620  -16.6260  -49.6994 H         1 UNK         0.3000 
    241 H241       -6.6615  -17.9208  -50.8295 H         1 UNK         0.0600 
    242 H242       -3.3827  -18.8712  -50.6065 H         1 UNK         0.3800 
    243 H243       -3.6860  -20.5653  -50.3064 H         1 UNK         0.3800 
    244 H244       -7.2991  -18.3552  -48.4920 H         1 UNK         0.0800 
    245 H245       -7.0564  -16.6672  -48.7960 H         1 UNK         0.0800 
    246 H246       -6.9571  -18.8106  -46.1177 H         1 UNK         0.0800 
    247 H247       -5.7262  -19.8114  -46.8578 H         1 UNK         0.0800 
@<TRIPOS>BOND
     1    1    2 1    
     2    1  127 1    
     3    1  128 1    
     4    1  129 1    
     5    2    3 2    
     6    2    4 am   BACKBONE|DICT|INTERRES
     7    4    5 1    
     8    4  130 1    
     9    5    6 1    
    10    5   65 1    
    11    5  131 1    
    12    6    7 1    
    13    6  132 1    
    14    6  133 1    
    15    7    8 1    
    16    8    9 1    
    17    8  134 1    
    18    8  135 1    
    19    9   10 ar   
    20    9   14 ar   
    21   10   11 ar   
    22   10  136 1    
    23   11   12 ar   
    24   11  126 1    
    25   12   13 ar   
    26   12  137 1    
    27   13   14 ar   
    28   13   15 1    
    29   14  138 1    
    30   15   16 1    
    31   15  139 1    
    32   15  140 1    
    33   16   17 1    
    34   17   18 1    
    35   17  141 1    
    36   17  142 1    
    37   18   19 1    
    38   18   67 1    
    39   18  143 1    
    40   19   20 am   BACKBONE|DICT|INTERRES
    41   19  144 1    
    42   20   21 2    
    43   20   22 1    
    44   22   23 1    
    45   22   24 1    
    46   22  145 1    
    47   23  146 1    
    48   23  147 1    
    49   23  148 1    
    50   24   25 am   BACKBONE|DICT|INTERRES
    51   24  149 1    
    52   25   26 2    
    53   25   27 1    
    54   27   28 1    
    55   27   29 1    
    56   27  150 1    
    57   28  151 1    
    58   28  152 1    
    59   28  153 1    
    60   29   30 am   BACKBONE|DICT|INTERRES
    61   29  154 1    
    62   30   31 2    
    63   30   32 1    
    64   32   33 1    
    65   32   34 1    
    66   32  155 1    
    67   33  156 1    
    68   33  157 1    
    69   33  158 1    
    70   34   35 am   BACKBONE|DICT|INTERRES
    71   34  159 1    
    72   35   36 2    
    73   35   37 1    
    74   37   38 1    
    75   37   39 1    
    76   37  160 1    
    77   38  161 1    
    78   38  162 1    
    79   38  163 1    
    80   39   40 am   BACKBONE|DICT|INTERRES
    81   39  164 1    
    82   40   41 2    
    83   40   42 1    
    84   42   43 1    
    85   42   44 1    
    86   42  165 1    
    87   43  166 1    
    88   43  167 1    
    89   43  168 1    
    90   44   45 am   BACKBONE|DICT|INTERRES
    91   44  169 1    
    92   45   46 2    
    93   45   47 1    
    94   47   48 1    
    95   47   49 1    
    96   47  170 1    
    97   48  171 1    
    98   48  172 1    
    99   48  173 1    
   100   49   50 am   BACKBONE|DICT|INTERRES
   101   49  174 1    
   102   50   51 2    
   103   50   52 1    
   104   52   53 1    
   105   52   54 1    
   106   52  175 1    
   107   53  176 1    
   108   53  177 1    
   109   53  178 1    
   110   54   55 am   BACKBONE|DICT|INTERRES
   111   54  179 1    
   112   55   56 2    
   113   55   57 1    
   114   57   58 1    
   115   57   59 1    
   116   57  180 1    
   117   58  181 1    
   118   58  182 1    
   119   58  183 1    
   120   59   60 am   BACKBONE|DICT|INTERRES
   121   59  184 1    
   122   60   61 2    
   123   60   62 1    
   124   62   63 1    
   125   62   64 1    
   126   62  185 1    
   127   63  186 1    
   128   63  187 1    
   129   63  188 1    
   130   64   65 am   BACKBONE|DICT|INTERRES
   131   64  189 1    
   132   65   66 2    
   133   67   68 2    
   134   67   69 am   BACKBONE|DICT|INTERRES
   135   69   70 1    
   136   69  190 1    
   137   70   71 1    
   138   70   72 1    
   139   70  191 1    
   140   71  192 1    
   141   71  193 1    
   142   71  194 1    
   143   72   73 2    
   144   72   74 am   BACKBONE|DICT|INTERRES
   145   74   75 1    
   146   74  195 1    
   147   75   76 1    
   148   75   77 1    
   149   75  196 1    
   150   76  197 1    
   151   76  198 1    
   152   76  199 1    
   153   77   78 2    
   154   77   79 am   BACKBONE|DICT|INTERRES
   155   79   80 1    
   156   79  200 1    
   157   80   81 1    
   158   80   82 1    
   159   80  201 1    
   160   81  202 1    
   161   81  203 1    
   162   81  204 1    
   163   82   83 2    
   164   82   84 am   BACKBONE|DICT|INTERRES
   165   84   85 1    
   166   84  205 1    
   167   85   86 1    
   168   85   87 1    
   169   85  206 1    
   170   86  207 1    
   171   86  208 1    
   172   86  209 1    
   173   87   88 2    
   174   87   89 am   BACKBONE|DICT|INTERRES
   175   89   90 1    
   176   89  210 1    
   177   90   91 1    
   178   90   92 1    
   179   90  211 1    
   180   91  212 1    
   181   91  213 1    
   182   91  214 1    
   183   92   93 2    
   184   92   94 am   BACKBONE|DICT|INTERRES
   185   94   95 1    
   186   94  215 1    
   187   95   96 1    
   188   95   97 1    
   189   95  216 1    
   190   96  217 1    
   191   96  218 1    
   192   96  219 1    
   193   97   98 2    
   194   97   99 am   BACKBONE|DICT|INTERRES
   195   99  100 1    
   196   99  220 1    
   197  100  101 1    
   198  100  102 1    
   199  100  221 1    
   200  101  222 1    
   201  101  223 1    
   202  101  224 1    
   203  102  103 2    
   204  102  104 am   BACKBONE|DICT|INTERRES
   205  104  105 1    
   206  104  225 1    
   207  105  106 1    
   208  105  107 1    
   209  105  226 1    
   210  106  227 1    
   211  106  228 1    
   212  106  229 1    
   213  107  108 2    
   214  107  109 am   BACKBONE|DICT|INTERRES
   215  109  110 1    
   216  109  230 1    
   217  110  111 1    
   218  110  112 1    
   219  110  231 1    
   220  111  232 1    
   221  111  233 1    
   222  111  234 1    
   223  112  113 2    
   224  112  114 am   BACKBONE|DICT|INTERRES
   225  114  115 1    
   226  114  235 1    
   227  115  116 1    
   228  115  117 1    
   229  115  236 1    
   230  116  237 1    
   231  116  238 1    
   232  116  239 1    
   233  117  118 2    
   234  117  119 am   BACKBONE|DICT|INTERRES
   235  119  120 1    
   236  119  240 1    
   237  120  121 1    
   238  120  124 1    
   239  120  241 1    
   240  121  122 am   BACKBONE|DICT|INTERRES
   241  121  123 2    
   242  122  242 1    
   243  122  243 1    
   244  124  125 1    
   245  124  244 1    
   246  124  245 1    
   247  125  126 1    
   248  126  246 1    
   249  126  247 1    
@<TRIPOS>SUBSTRUCTURE
     1 UNK         1 GROUP             0       ****    0 ROOT    
