@<TRIPOS>MOLECULE
3R540
247   249    1
SMALL
USER_CHARGES


@<TRIPOS>ATOM
      1 CA         -0.9286   -8.8904  -44.1734 C.3       0 UNK        -0.1800 
      2 C          -0.7229   -9.5770  -45.5168 C.2       0 UNK         0.5000 
      3 O          -0.8703   -8.9396  -46.5602 O.2       0 UNK        -0.5000 
      4 N          -0.3921  -10.8738  -45.4932 N.am      1 UNK        -0.5000 
      5 CA         -0.0862  -11.6845  -46.6770 C.3       1 UNK         0.1400 
      6 C6         -0.2130  -13.1985  -46.3649 C.3       23 UNK        -0.0398 
      7 S7         -0.9090  -14.1482  -47.7594 S.3       23 UNK        -0.2404 
      8 C8          0.3871  -15.3954  -48.0964 C.3       23 UNK        -0.0205 
      9 C9         -0.0176  -16.4840  -49.0958 C.ar      23 UNK        -0.0193 
     10 C10        -1.0056  -16.2725  -50.0671 C.ar      23 UNK        -0.1150 
     11 C11        -1.3341  -17.2695  -50.9884 C.ar      23 UNK        -0.0193 
     12 C12        -0.6541  -18.4885  -50.9538 C.ar      23 UNK        -0.1150 
     13 C13         0.3452  -18.7159  -50.0033 C.ar      23 UNK        -0.0193 
     14 C14         0.6497  -17.7154  -49.0720 C.ar      23 UNK        -0.1150 
     15 C15         1.1298  -20.0216  -50.0251 C.3       23 UNK        -0.0205 
     16 S16         0.1276  -21.4536  -49.5162 S.3       23 UNK        -0.2404 
     17 C17        -0.0799  -21.1222  -47.7380 C.3       23 UNK        -0.0398 
     18 CA         -0.4602  -22.3865  -46.9291 C.3       11 UNK         0.1400 
     19 N          -0.1167  -22.2474  -45.5121 N.am      11 UNK        -0.5000 
     20 C          -0.1844  -23.2228  -44.5961 C.2       10 UNK         0.5000 
     21 O          -0.5353  -24.3738  -44.8490 O.2       10 UNK        -0.5000 
     22 CA          0.1466  -22.8378  -43.1427 C.3       10 UNK         0.1400 
     23 CB          1.6639  -22.7332  -42.9296 C.3       10 UNK        -0.1800 
     24 N          -0.4989  -21.5892  -42.7372 N.am      10 UNK        -0.5000 
     25 C          -1.8267  -21.4196  -42.6561 C.2       9 UNK         0.5000 
     26 O          -2.6454  -22.3173  -42.8582 O.2       9 UNK        -0.5000 
     27 CA         -2.3240  -19.9945  -42.3529 C.3       9 UNK         0.1400 
     28 CB         -2.2205  -19.6801  -40.8531 C.3       9 UNK        -0.1800 
     29 N          -1.6072  -18.9748  -43.1195 N.am      9 UNK        -0.5000 
     30 C          -1.6074  -18.8912  -44.4579 C.2       8 UNK         0.5000 
     31 O          -2.2383  -19.6459  -45.1950 O.2       8 UNK        -0.5000 
     32 CA         -0.7143  -17.8091  -45.0811 C.3       8 UNK         0.1400 
     33 CB         -1.3831  -16.4356  -44.9441 C.3       8 UNK        -0.1800 
     34 N           0.6196  -17.7744  -44.4801 N.am      8 UNK        -0.5000 
     35 C           1.4935  -18.7911  -44.4912 C.2       7 UNK         0.5000 
     36 O           1.2896  -19.8593  -45.0613 O.2       7 UNK        -0.5000 
     37 CA          2.7876  -18.6135  -43.6814 C.3       7 UNK         0.1400 
     38 CB          3.8452  -17.8465  -44.4866 C.3       7 UNK        -0.1800 
     39 N           2.5437  -17.9399  -42.4077 N.am      7 UNK        -0.5000 
     40 C           1.8497  -18.4738  -41.3924 C.2       6 UNK         0.5000 
     41 O           1.3856  -19.6146  -41.4034 O.2       6 UNK        -0.5000 
     42 CA          1.5957  -17.5550  -40.1837 C.3       6 UNK         0.1400 
     43 CB          2.7962  -17.5734  -39.2260 C.3       6 UNK        -0.1800 
     44 N           1.3163  -16.1751  -40.5885 N.am      6 UNK        -0.5000 
     45 C           0.2073  -15.7920  -41.2372 C.2       5 UNK         0.5000 
     46 O          -0.7161  -16.5571  -41.5166 O.2       5 UNK        -0.5000 
     47 CA          0.1475  -14.3201  -41.6928 C.3       5 UNK         0.1400 
     48 CB         -0.3760  -13.4215  -40.5629 C.3       5 UNK        -0.1800 
     49 N           1.4408  -13.8100  -42.1650 N.am      5 UNK        -0.5000 
     50 C           2.0666  -14.2654  -43.2569 C.2       4 UNK         0.5000 
     51 O           1.6096  -15.1579  -43.9756 O.2       4 UNK        -0.5000 
     52 CA          3.4376  -13.6622  -43.5918 C.3       4 UNK         0.1400 
     53 CB          4.5172  -14.2306  -42.6499 C.3       4 UNK        -0.1800 
     54 N           3.7332  -14.0069  -44.9787 N.am      4 UNK        -0.5000 
     55 C           4.7258  -13.5374  -45.7412 C.2       3 UNK         0.5000 
     56 O           5.5606  -12.7172  -45.3584 O.2       3 UNK        -0.5000 
     57 CA          4.7697  -14.0557  -47.1904 C.3       3 UNK         0.1400 
     58 CB          4.4874  -15.5669  -47.2984 C.3       3 UNK        -0.1800 
     59 N           3.7888  -13.3282  -47.9886 N.am      3 UNK        -0.5000 
     60 C           4.0195  -12.1716  -48.6224 C.2       2 UNK         0.5000 
     61 O           5.1295  -11.6471  -48.7201 O.2       2 UNK        -0.5000 
     62 CA          2.7917  -11.4735  -49.2430 C.3       2 UNK         0.1400 
     63 CB          2.6059  -11.9138  -50.7033 C.3       2 UNK        -0.1800 
     64 N           1.5398  -11.7066  -48.5131 N.am      2 UNK        -0.5000 
     65 C           1.3069  -11.3375  -47.2457 C.2       1 UNK         0.5000 
     66 O           2.1446  -10.7794  -46.5321 O.2       1 UNK        -0.5000 
     67 C          -1.9408  -22.7677  -47.1304 C.2       11 UNK         0.5000 
     68 O          -2.2343  -23.6603  -47.9262 O.2       11 UNK        -0.5000 
     69 N          -2.8477  -22.1172  -46.3892 N.am      12 UNK        -0.5000 
     70 CA         -4.2816  -22.4085  -46.3749 C.3       12 UNK         0.1400 
     71 CB         -5.0140  -21.3644  -45.5199 C.3       12 UNK        -0.1800 
     72 C          -4.5982  -23.8337  -45.8895 C.2       12 UNK         0.5000 
     73 O          -5.4669  -24.4883  -46.4652 O.2       12 UNK        -0.5000 
     74 N          -3.8773  -24.2928  -44.8593 N.am      13 UNK        -0.5000 
     75 CA         -4.0153  -25.6319  -44.2955 C.3       13 UNK         0.1400 
     76 CB         -3.3733  -25.6648  -42.8991 C.3       13 UNK        -0.1800 
     77 C          -3.4191  -26.7262  -45.1998 C.2       13 UNK         0.5000 
     78 O          -4.0968  -27.7155  -45.4808 O.2       13 UNK        -0.5000 
     79 N          -2.1560  -26.5507  -45.6084 N.am      14 UNK        -0.5000 
     80 CA         -1.3601  -27.5946  -46.2544 C.3       14 UNK         0.1400 
     81 CB          0.1216  -27.3818  -45.9057 C.3       14 UNK        -0.1800 
     82 C          -1.5324  -27.6608  -47.7799 C.2       14 UNK         0.5000 
     83 O          -1.4598  -28.7567  -48.3378 O.2       14 UNK        -0.5000 
     84 N          -1.7153  -26.5055  -48.4314 N.am      15 UNK        -0.5000 
     85 CA         -1.6681  -26.3670  -49.8902 C.3       15 UNK         0.1400 
     86 CB         -0.4356  -25.5199  -50.2576 C.3       15 UNK        -0.1800 
     87 C          -2.9500  -25.7532  -50.4764 C.2       15 UNK         0.5000 
     88 O          -2.9733  -25.4580  -51.6717 O.2       15 UNK        -0.5000 
     89 N          -3.9768  -25.5309  -49.6415 N.am      16 UNK        -0.5000 
     90 CA         -5.2462  -24.8706  -49.9757 C.3       16 UNK         0.1400 
     91 CB         -6.0976  -25.7696  -50.8965 C.3       16 UNK        -0.1800 
     92 C          -5.0465  -23.4442  -50.5370 C.2       16 UNK         0.5000 
     93 O          -5.7459  -23.0417  -51.4675 O.2       16 UNK        -0.5000 
     94 N          -4.0605  -22.7277  -49.9737 N.am      17 UNK        -0.5000 
     95 CA         -3.5780  -21.4045  -50.3808 C.3       17 UNK         0.1400 
     96 CB         -4.6458  -20.3196  -50.1361 C.3       17 UNK        -0.1800 
     97 C          -3.0085  -21.4248  -51.8142 C.2       17 UNK         0.5000 
     98 O          -3.3759  -20.5990  -52.6501 O.2       17 UNK        -0.5000 
     99 N          -2.1316  -22.4082  -52.0656 N.am      18 UNK        -0.5000 
    100 CA        -1.4852  -22.7167  -53.3455 C.3       18 UNK         0.1400 
    101 CB        -0.5429  -21.5723  -53.7750 C.3       18 UNK        -0.1800 
    102 C         -2.4989  -23.1163  -54.4392 C.2       18 UNK         0.5000 
    103 O         -2.3349  -22.7442  -55.6027 O.2       18 UNK        -0.5000 
    104 N         -3.5384  -23.8579  -54.0282 N.am      19 UNK        -0.5000 
    105 CA        -4.6798  -24.3973  -54.7795 C.3       19 UNK         0.1400 
    106 CB        -4.2101  -25.4257  -55.8245 C.3       19 UNK        -0.1800 
    107 C         -5.6147  -23.3504  -55.4205 C.2       19 UNK         0.5000 
    108 O         -6.8346  -23.4936  -55.3346 O.2       19 UNK        -0.5000 
    109 N         -5.0379  -22.3301  -56.0617 N.am      20 UNK        -0.5000 
    110 CA        -5.7328  -21.2708  -56.7918 C.3       20 UNK         0.1400 
    111 CB        -4.7822  -20.7337  -57.8745 C.3       20 UNK        -0.1800 
    112 C         -6.2226  -20.1194  -55.8932 C.2       20 UNK         0.5000 
    113 O         -6.8865  -19.2123  -56.3986 O.2       20 UNK        -0.5000 
    114 N         -5.8463  -20.1300  -54.6042 N.am      21 UNK        -0.5000 
    115 CA        -6.1169  -19.0925  -53.5981 C.3       21 UNK         0.1400 
    116 CB        -7.6237  -19.0218  -53.2753 C.3       21 UNK        -0.1800 
    117 C         -5.5136  -17.7191  -53.9658 C.2       21 UNK         0.5000 
    118 O         -6.0368  -16.6847  -53.5484 O.2       21 UNK        -0.5000 
    119 N         -4.4370  -17.7423  -54.7657 N.am      22 UNK        -0.5000 
    120 CA        -3.7999  -16.5841  -55.4149 C.3       22 UNK         0.1400 
    121 C         -4.7120  -15.8413  -56.4445 C.2       22 UNK         0.5000 
    122 N         -5.7951  -16.4379  -56.9321 N.am      22 UNK        -0.7600 
    123 O         -4.4190  -14.7169  -56.8424 O.2       22 UNK        -0.5000 
    124 C124       -3.1130  -15.6254  -54.4014 C.3       23 UNK        -0.0398 
    125 S125       -1.6753  -16.3884  -53.5738 S.3       23 UNK        -0.2404 
    126 C126       -2.4092  -17.0125  -52.0318 C.3       23 UNK        -0.0205 
    127 H127       -0.2258   -8.0646  -44.0633 H         1 UNK         0.0600 
    128 H128       -0.7798   -9.5768  -43.3395 H         1 UNK         0.0600 
    129 H129       -1.9402   -8.4899  -44.1074 H         1 UNK         0.0600 
    130 H130       -0.2543  -11.3263  -44.6017 H         1 UNK         0.3000 
    131 H131       -0.8256  -11.4198  -47.4367 H         1 UNK         0.0600 
    132 H132        0.7335  -13.6308  -46.0376 H         1 UNK         0.0800 
    133 H133       -0.9024  -13.3474  -45.5327 H         1 UNK         0.0800 
    134 H134        1.2704  -14.8896  -48.4851 H         1 UNK         0.0800 
    135 H135        0.6803  -15.8622  -47.1550 H         1 UNK         0.0800 
    136 H136       -1.5208  -15.3252  -50.1259 H         1 UNK         0.1150 
    137 H137       -0.8887  -19.2535  -51.6806 H         1 UNK         0.1150 
    138 H138        1.4276  -17.8866  -48.3408 H         1 UNK         0.1150 
    139 H139        1.4935  -20.1955  -51.0387 H         1 UNK         0.0800 
    140 H140        2.0177  -19.9549  -49.3945 H         1 UNK         0.0800 
    141 H141       -0.7998  -20.3145  -47.5928 H         1 UNK         0.0800 
    142 H142        0.8775  -20.7408  -47.3852 H         1 UNK         0.0800 
    143 H143        0.1386  -23.2200  -47.3032 H         1 UNK         0.0600 
    144 H144        0.2293  -21.3343  -45.2243 H         1 UNK         0.3000 
    145 H145       -0.2307  -23.6326  -42.4958 H         1 UNK         0.0600 
    146 H146        1.9010  -22.5217  -41.8868 H         1 UNK         0.0600 
    147 H147        2.1596  -23.6681  -43.1938 H         1 UNK         0.0600 
    148 H148        2.1057  -21.9443  -43.5380 H         1 UNK         0.0600 
    149 H149        0.1097  -20.8071  -42.5204 H         1 UNK         0.3000 
    150 H150       -3.3766  -19.9437  -42.6384 H         1 UNK         0.0600 
    151 H151       -2.7745  -20.4107  -40.2624 H         1 UNK         0.0600 
    152 H152       -2.6345  -18.6970  -40.6278 H         1 UNK         0.0600 
    153 H153       -1.1869  -19.6932  -40.5071 H         1 UNK         0.0600 
    154 H154       -1.0889  -18.2823  -42.5890 H         1 UNK         0.3000 
    155 H155       -0.5917  -18.0306  -46.1433 H         1 UNK         0.0600 
    156 H156       -2.2584  -16.3635  -45.5905 H         1 UNK         0.0600 
    157 H157       -0.6984  -15.6425  -45.2260 H         1 UNK         0.0600 
    158 H158       -1.7108  -16.2335  -43.9249 H         1 UNK         0.0600 
    159 H159        0.8956  -16.9006  -44.0417 H         1 UNK         0.3000 
    160 H160        3.1843  -19.6082  -43.4671 H         1 UNK         0.0600 
    161 H161        3.5186  -16.8350  -44.7186 H         1 UNK         0.0600 
    162 H162        4.0543  -18.3483  -45.4322 H         1 UNK         0.0600 
    163 H163        4.7856  -17.7781  -43.9398 H         1 UNK         0.0600 
    164 H164        2.8566  -16.9852  -42.3289 H         1 UNK         0.3000 
    165 H165        0.7246  -17.9398  -39.6489 H         1 UNK         0.0600 
    166 H166        2.5966  -16.9807  -38.3331 H         1 UNK         0.0600 
    167 H167        3.0167  -18.5899  -38.8974 H         1 UNK         0.0600 
    168 H168        3.6967  -17.1780  -39.6976 H         1 UNK         0.0600 
    169 H169        2.0245  -15.4844  -40.3889 H         1 UNK         0.3000 
    170 H170       -0.5591  -14.2644  -42.5239 H         1 UNK         0.0600 
    171 H171       -1.3465  -13.7691  -40.2061 H         1 UNK         0.0600 
    172 H172        0.3026  -13.4090  -39.7091 H         1 UNK         0.0600 
    173 H173       -0.5059  -12.3944  -40.9043 H         1 UNK         0.0600 
    174 H174        1.8697  -13.0798  -41.6144 H         1 UNK         0.3000 
    175 H175        3.3812  -12.5763  -43.4952 H         1 UNK         0.0600 
    176 H176        4.6150  -15.3115  -42.7555 H         1 UNK         0.0600 
    177 H177        5.4934  -13.7889  -42.8491 H         1 UNK         0.0600 
    178 H178        4.2820  -14.0212  -41.6059 H         1 UNK         0.0600 
    179 H179        3.0713  -14.6687  -45.3631 H         1 UNK         0.3000 
    180 H180        5.7749  -13.8772  -47.5784 H         1 UNK         0.0600 
    181 H181        3.4648  -15.8230  -47.0198 H         1 UNK         0.0600 
    182 H182        5.1613  -16.1357  -46.6566 H         1 UNK         0.0600 
    183 H183        4.6441  -15.9172  -48.3187 H         1 UNK         0.0600 
    184 H184        2.8379  -13.6573  -47.9520 H         1 UNK         0.3000 
    185 H185        2.9867  -10.3991  -49.2315 H         1 UNK         0.0600 
    186 H186        3.5122  -11.7357  -51.2837 H         1 UNK         0.0600 
    187 H187        2.3725  -12.9768  -50.7769 H         1 UNK         0.0600 
    188 H188        1.8004  -11.3584  -51.1841 H         1 UNK         0.0600 
    189 H189        0.7996  -12.1594  -49.0308 H         1 UNK         0.3000 
    190 H190       -2.5394  -21.3482  -45.7970 H         1 UNK         0.3000 
    191 H191       -4.6547  -22.3172  -47.3947 H         1 UNK         0.0600 
    192 H192       -4.8710  -20.3600  -45.9188 H         1 UNK         0.0600 
    193 H193       -6.0873  -21.5568  -45.5011 H         1 UNK         0.0600 
    194 H194       -4.6604  -21.3679  -44.4887 H         1 UNK         0.0600 
    195 H195       -3.2055  -23.6756  -44.4167 H         1 UNK         0.3000 
    196 H196       -5.0799  -25.8443  -44.1754 H         1 UNK         0.0600 
    197 H197       -3.4646  -26.6541  -42.4492 H         1 UNK         0.0600 
    198 H198       -3.8582  -24.9557  -42.2278 H         1 UNK         0.0600 
    199 H199       -2.3123  -25.4153  -42.9343 H         1 UNK         0.0600 
    200 H200       -1.6560  -25.7063  -45.3334 H         1 UNK         0.3000 
    201 H201       -1.6548  -28.5648  -45.8479 H         1 UNK         0.0600 
    202 H202        0.2759  -27.3709  -44.8266 H         1 UNK         0.0600 
    203 H203        0.4986  -26.4403  -46.3073 H         1 UNK         0.0600 
    204 H204        0.7387  -28.1826  -46.3149 H         1 UNK         0.0600 
    205 H205       -1.7923  -25.6387  -47.9090 H         1 UNK         0.3000 
    206 H206       -1.5580  -27.3413  -50.3698 H         1 UNK         0.0600 
    207 H207        0.4792  -25.9712  -49.8734 H         1 UNK         0.0600 
    208 H208       -0.3210  -25.4335  -51.3387 H         1 UNK         0.0600 
    209 H209       -0.5041  -24.5106  -49.8516 H         1 UNK         0.0600 
    210 H210       -3.8544  -25.7852  -48.6715 H         1 UNK         0.3000 
    211 H211       -5.7944  -24.7522  -49.0416 H         1 UNK         0.0600 
    212 H212       -5.6282  -25.9178  -51.8686 H         1 UNK         0.0600 
    213 H213       -7.0817  -25.3330  -51.0709 H         1 UNK         0.0600 
    214 H214       -6.2549  -26.7510  -50.4493 H         1 UNK         0.0600 
    215 H215       -3.5133  -23.1802  -49.2455 H         1 UNK         0.3000 
    216 H216       -2.7396  -21.1668  -49.7273 H         1 UNK         0.0600 
    217 H217       -4.2787  -19.3349  -50.4277 H         1 UNK         0.0600 
    218 H218       -4.9081  -20.2651  -49.0796 H         1 UNK         0.0600 
    219 H219       -5.5616  -20.5121  -50.6935 H         1 UNK         0.0600 
    220 H220       -1.9268  -23.0525  -51.3159 H         1 UNK         0.3000 
    221 H221       -0.8696  -23.5998  -53.1695 H         1 UNK         0.0600 
    222 H222       -1.0920  -20.6654  -54.0298 H         1 UNK         0.0600 
    223 H223        0.1621  -21.3254  -52.9814 H         1 UNK         0.0600 
    224 H224        0.0418  -21.8559  -54.6507 H         1 UNK         0.0600 
    225 H225       -3.5235  -24.1372  -53.0518 H         1 UNK         0.3000 
    226 H226       -5.2804  -24.9327  -54.0432 H         1 UNK         0.0600 
    227 H227       -3.6303  -26.2223  -55.3581 H         1 UNK         0.0600 
    228 H228       -5.0612  -25.8918  -56.3224 H         1 UNK         0.0600 
    229 H229       -3.5912  -24.9681  -56.5968 H         1 UNK         0.0600 
    230 H230       -4.0197  -22.3075  -56.0700 H         1 UNK         0.3000 
    231 H231       -6.6097  -21.6948  -57.2853 H         1 UNK         0.0600 
    232 H232       -3.8841  -20.2942  -57.4384 H         1 UNK         0.0600 
    233 H233       -5.2652  -19.9643  -58.4784 H         1 UNK         0.0600 
    234 H234       -4.4702  -21.5275  -58.5534 H         1 UNK         0.0600 
    235 H235       -5.2635  -20.8938  -54.2877 H         1 UNK         0.3000 
    236 H236       -5.6102  -19.4012  -52.6878 H         1 UNK         0.0600 
    237 H237       -8.0156  -20.0049  -53.0141 H         1 UNK         0.0600 
    238 H238       -7.8112  -18.3640  -52.4260 H         1 UNK         0.0600 
    239 H239       -8.2027  -18.6412  -54.1170 H         1 UNK         0.0600 
    240 H240       -4.0710  -18.6460  -55.0266 H         1 UNK         0.3000 
    241 H241       -3.0098  -17.0070  -56.0363 H         1 UNK         0.0600 
    242 H242       -6.3632  -15.9475  -57.6044 H         1 UNK         0.3800 
    243 H243       -6.0702  -17.3674  -56.6341 H         1 UNK         0.3800 
    244 H244       -2.7272  -14.7420  -54.9120 H         1 UNK         0.0800 
    245 H245       -3.8233  -15.2498  -53.6646 H         1 UNK         0.0800 
    246 H246       -3.1368  -16.2967  -51.6464 H         1 UNK         0.0800 
    247 H247       -2.9579  -17.9319  -52.2379 H         1 UNK         0.0800 
@<TRIPOS>BOND
     1    1    2 1    
     2    1  127 1    
     3    1  128 1    
     4    1  129 1    
     5    2    3 2    
     6    2    4 am   BACKBONE|DICT|INTERRES
     7    4    5 1    
     8    4  130 1    
     9    5    6 1    
    10    5   65 1    
    11    5  131 1    
    12    6    7 1    
    13    6  132 1    
    14    6  133 1    
    15    7    8 1    
    16    8    9 1    
    17    8  134 1    
    18    8  135 1    
    19    9   10 ar   
    20    9   14 ar   
    21   10   11 ar   
    22   10  136 1    
    23   11   12 ar   
    24   11  126 1    
    25   12   13 ar   
    26   12  137 1    
    27   13   14 ar   
    28   13   15 1    
    29   14  138 1    
    30   15   16 1    
    31   15  139 1    
    32   15  140 1    
    33   16   17 1    
    34   17   18 1    
    35   17  141 1    
    36   17  142 1    
    37   18   19 1    
    38   18   67 1    
    39   18  143 1    
    40   19   20 am   BACKBONE|DICT|INTERRES
    41   19  144 1    
    42   20   21 2    
    43   20   22 1    
    44   22   23 1    
    45   22   24 1    
    46   22  145 1    
    47   23  146 1    
    48   23  147 1    
    49   23  148 1    
    50   24   25 am   BACKBONE|DICT|INTERRES
    51   24  149 1    
    52   25   26 2    
    53   25   27 1    
    54   27   28 1    
    55   27   29 1    
    56   27  150 1    
    57   28  151 1    
    58   28  152 1    
    59   28  153 1    
    60   29   30 am   BACKBONE|DICT|INTERRES
    61   29  154 1    
    62   30   31 2    
    63   30   32 1    
    64   32   33 1    
    65   32   34 1    
    66   32  155 1    
    67   33  156 1    
    68   33  157 1    
    69   33  158 1    
    70   34   35 am   BACKBONE|DICT|INTERRES
    71   34  159 1    
    72   35   36 2    
    73   35   37 1    
    74   37   38 1    
    75   37   39 1    
    76   37  160 1    
    77   38  161 1    
    78   38  162 1    
    79   38  163 1    
    80   39   40 am   BACKBONE|DICT|INTERRES
    81   39  164 1    
    82   40   41 2    
    83   40   42 1    
    84   42   43 1    
    85   42   44 1    
    86   42  165 1    
    87   43  166 1    
    88   43  167 1    
    89   43  168 1    
    90   44   45 am   BACKBONE|DICT|INTERRES
    91   44  169 1    
    92   45   46 2    
    93   45   47 1    
    94   47   48 1    
    95   47   49 1    
    96   47  170 1    
    97   48  171 1    
    98   48  172 1    
    99   48  173 1    
   100   49   50 am   BACKBONE|DICT|INTERRES
   101   49  174 1    
   102   50   51 2    
   103   50   52 1    
   104   52   53 1    
   105   52   54 1    
   106   52  175 1    
   107   53  176 1    
   108   53  177 1    
   109   53  178 1    
   110   54   55 am   BACKBONE|DICT|INTERRES
   111   54  179 1    
   112   55   56 2    
   113   55   57 1    
   114   57   58 1    
   115   57   59 1    
   116   57  180 1    
   117   58  181 1    
   118   58  182 1    
   119   58  183 1    
   120   59   60 am   BACKBONE|DICT|INTERRES
   121   59  184 1    
   122   60   61 2    
   123   60   62 1    
   124   62   63 1    
   125   62   64 1    
   126   62  185 1    
   127   63  186 1    
   128   63  187 1    
   129   63  188 1    
   130   64   65 am   BACKBONE|DICT|INTERRES
   131   64  189 1    
   132   65   66 2    
   133   67   68 2    
   134   67   69 am   BACKBONE|DICT|INTERRES
   135   69   70 1    
   136   69  190 1    
   137   70   71 1    
   138   70   72 1    
   139   70  191 1    
   140   71  192 1    
   141   71  193 1    
   142   71  194 1    
   143   72   73 2    
   144   72   74 am   BACKBONE|DICT|INTERRES
   145   74   75 1    
   146   74  195 1    
   147   75   76 1    
   148   75   77 1    
   149   75  196 1    
   150   76  197 1    
   151   76  198 1    
   152   76  199 1    
   153   77   78 2    
   154   77   79 am   BACKBONE|DICT|INTERRES
   155   79   80 1    
   156   79  200 1    
   157   80   81 1    
   158   80   82 1    
   159   80  201 1    
   160   81  202 1    
   161   81  203 1    
   162   81  204 1    
   163   82   83 2    
   164   82   84 am   BACKBONE|DICT|INTERRES
   165   84   85 1    
   166   84  205 1    
   167   85   86 1    
   168   85   87 1    
   169   85  206 1    
   170   86  207 1    
   171   86  208 1    
   172   86  209 1    
   173   87   88 2    
   174   87   89 am   BACKBONE|DICT|INTERRES
   175   89   90 1    
   176   89  210 1    
   177   90   91 1    
   178   90   92 1    
   179   90  211 1    
   180   91  212 1    
   181   91  213 1    
   182   91  214 1    
   183   92   93 2    
   184   92   94 am   BACKBONE|DICT|INTERRES
   185   94   95 1    
   186   94  215 1    
   187   95   96 1    
   188   95   97 1    
   189   95  216 1    
   190   96  217 1    
   191   96  218 1    
   192   96  219 1    
   193   97   98 2    
   194   97   99 am   BACKBONE|DICT|INTERRES
   195   99  100 1    
   196   99  220 1    
   197  100  101 1    
   198  100  102 1    
   199  100  221 1    
   200  101  222 1    
   201  101  223 1    
   202  101  224 1    
   203  102  103 2    
   204  102  104 am   BACKBONE|DICT|INTERRES
   205  104  105 1    
   206  104  225 1    
   207  105  106 1    
   208  105  107 1    
   209  105  226 1    
   210  106  227 1    
   211  106  228 1    
   212  106  229 1    
   213  107  108 2    
   214  107  109 am   BACKBONE|DICT|INTERRES
   215  109  110 1    
   216  109  230 1    
   217  110  111 1    
   218  110  112 1    
   219  110  231 1    
   220  111  232 1    
   221  111  233 1    
   222  111  234 1    
   223  112  113 2    
   224  112  114 am   BACKBONE|DICT|INTERRES
   225  114  115 1    
   226  114  235 1    
   227  115  116 1    
   228  115  117 1    
   229  115  236 1    
   230  116  237 1    
   231  116  238 1    
   232  116  239 1    
   233  117  118 2    
   234  117  119 am   BACKBONE|DICT|INTERRES
   235  119  120 1    
   236  119  240 1    
   237  120  121 1    
   238  120  124 1    
   239  120  241 1    
   240  121  122 am   BACKBONE|DICT|INTERRES
   241  121  123 2    
   242  122  242 1    
   243  122  243 1    
   244  124  125 1    
   245  124  244 1    
   246  124  245 1    
   247  125  126 1    
   248  126  246 1    
   249  126  247 1    
@<TRIPOS>SUBSTRUCTURE
     1 UNK         1 GROUP             0       ****    0 ROOT    
