@<TRIPOS>MOLECULE
3R540
247   249    1
SMALL
USER_CHARGES


@<TRIPOS>ATOM
      1 CA         -5.2680  -12.6217  -49.8497 C.3       0 UNK        -0.1800 
      2 C          -4.0045  -13.0987  -49.1487 C.2       0 UNK         0.5000 
      3 O          -4.0316  -13.3609  -47.9463 O.2       0 UNK        -0.5000 
      4 N          -2.8904  -13.1928  -49.8872 N.am      1 UNK        -0.5000 
      5 CA         -1.5662  -13.6810  -49.4666 C.3       1 UNK         0.1400 
      6 C6         -1.6155  -15.1204  -48.8799 C.3       23 UNK        -0.0398 
      7 S7         -0.0525  -16.0355  -49.1077 S.3       23 UNK        -0.2404 
      8 C8         -0.5945  -17.4437  -50.1278 C.3       23 UNK        -0.0205 
      9 C9          0.5814  -18.2572  -50.6512 C.ar      23 UNK        -0.0193 
     10 C10         0.7602  -18.4219  -52.0293 C.ar      23 UNK        -0.1150 
     11 C11         1.8457  -19.1515  -52.5222 C.ar      23 UNK        -0.0193 
     12 C12         2.7550  -19.7183  -51.6263 C.ar      23 UNK        -0.1150 
     13 C13         2.5862  -19.5685  -50.2478 C.ar      23 UNK        -0.0193 
     14 C14         1.4916  -18.8446  -49.7644 C.ar      23 UNK        -0.1150 
     15 C15         3.6118  -20.1655  -49.2971 C.3       23 UNK        -0.0205 
     16 S16         3.1053  -21.8057  -48.6949 S.3       23 UNK        -0.2404 
     17 C17         2.3327  -21.3664  -47.1051 C.3       23 UNK        -0.0398 
     18 CA          1.1135  -22.2482  -46.7500 C.3       11 UNK         0.1400 
     19 N           0.8846  -22.2692  -45.3030 N.am      11 UNK        -0.5000 
     20 C           0.0197  -23.0715  -44.6683 C.2       10 UNK         0.5000 
     21 O          -0.6566  -23.9316  -45.2323 O.2       10 UNK        -0.5000 
     22 CA         -0.1523  -22.8365  -43.1550 C.3       10 UNK         0.1400 
     23 CB          0.9711  -23.5191  -42.3610 C.3       10 UNK        -0.1800 
     24 N          -0.2005  -21.4133  -42.8135 N.am      10 UNK        -0.5000 
     25 C          -1.1628  -20.5735  -43.2210 C.2       9 UNK         0.5000 
     26 O          -2.1487  -20.9281  -43.8649 O.2       9 UNK        -0.5000 
     27 CA         -0.9638  -19.0794  -42.9178 C.3       9 UNK         0.1400 
     28 CB         -1.3994  -18.7367  -41.4865 C.3       9 UNK        -0.1800 
     29 N           0.4152  -18.6417  -43.1373 N.am      9 UNK        -0.5000 
     30 C           1.0346  -18.6440  -44.3263 C.2       8 UNK         0.5000 
     31 O           0.4948  -18.9821  -45.3766 O.2       8 UNK        -0.5000 
     32 CA          2.5178  -18.2431  -44.3432 C.3       8 UNK         0.1400 
     33 CB          2.6757  -16.7169  -44.4042 C.3       8 UNK        -0.1800 
     34 N           3.2381  -18.7780  -43.1889 N.am      8 UNK        -0.5000 
     35 C           3.4808  -20.0823  -42.9945 C.2       7 UNK         0.5000 
     36 O           3.1620  -20.9636  -43.7929 O.2       7 UNK        -0.5000 
     37 CA          4.1444  -20.4653  -41.6600 C.3       7 UNK         0.1400 
     38 CB          5.6651  -20.2620  -41.7303 C.3       7 UNK        -0.1800 
     39 N           3.6016  -19.7032  -40.5341 N.am      7 UNK        -0.5000 
     40 C           2.3449  -19.8185  -40.0813 C.2       6 UNK         0.5000 
     41 O           1.5252  -20.6151  -40.5384 O.2       6 UNK        -0.5000 
     42 CA          1.9224  -18.8472  -38.9623 C.3       6 UNK         0.1400 
     43 CB          2.2893  -19.4187  -37.5848 C.3       6 UNK        -0.1800 
     44 N           2.5027  -17.5072  -39.1047 N.am      6 UNK        -0.5000 
     45 C           2.2567  -16.6803  -40.1293 C.2       5 UNK         0.5000 
     46 O           1.5421  -16.9773  -41.0883 O.2       5 UNK        -0.5000 
     47 CA          2.9831  -15.3255  -40.1143 C.3       5 UNK         0.1400 
     48 CB          4.3223  -15.4353  -40.8601 C.3       5 UNK        -0.1800 
     49 N           2.1718  -14.2883  -40.7501 N.am      5 UNK        -0.5000 
     50 C           1.1613  -13.6401  -40.1553 C.2       4 UNK         0.5000 
     51 O           0.8444  -13.8030  -38.9760 O.2       4 UNK        -0.5000 
     52 CA          0.3759  -12.6341  -41.0203 C.3       4 UNK         0.1400 
     53 CB          1.0069  -11.2362  -40.9301 C.3       4 UNK        -0.1800 
     54 N           0.2971  -13.0321  -42.4271 N.am      4 UNK        -0.5000 
     55 C          -0.4694  -14.0245  -42.8936 C.2       3 UNK         0.5000 
     56 O          -1.2515  -14.6672  -42.1913 O.2       3 UNK        -0.5000 
     57 CA         -0.3480  -14.3240  -44.4013 C.3       3 UNK         0.1400 
     58 CB         -1.0547  -15.6278  -44.8051 C.3       3 UNK        -0.1800 
     59 N          -0.8763  -13.2484  -45.2338 N.am      3 UNK        -0.5000 
     60 C          -0.2830  -12.0772  -45.4973 C.2       2 UNK         0.5000 
     61 O           0.7825  -11.7201  -44.9898 O.2       2 UNK        -0.5000 
     62 CA         -1.0097  -11.1919  -46.5331 C.3       2 UNK         0.1400 
     63 CB         -0.1664   -9.9954  -47.0209 C.3       2 UNK        -0.1800 
     64 N          -1.5147  -11.9951  -47.6561 N.am      2 UNK        -0.5000 
     65 C          -0.7956  -12.7154  -48.5317 C.2       1 UNK         0.5000 
     66 O           0.4309  -12.6513  -48.6205 O.2       1 UNK        -0.5000 
     67 C          -0.1552  -21.8314  -47.5269 C.2       11 UNK         0.5000 
     68 O          -0.5269  -22.4980  -48.4925 O.2       11 UNK        -0.5000 
     69 N          -0.8310  -20.7736  -47.0558 N.am      12 UNK        -0.5000 
     70 CA         -2.1067  -20.2974  -47.5846 C.3       12 UNK         0.1400 
     71 CB         -2.4812  -18.9593  -46.9298 C.3       12 UNK        -0.1800 
     72 C          -3.2354  -21.3274  -47.4200 C.2       12 UNK         0.5000 
     73 O          -3.9913  -21.5382  -48.3668 O.2       12 UNK        -0.5000 
     74 N          -3.3125  -21.9820  -46.2528 N.am      13 UNK        -0.5000 
     75 CA         -4.2596  -23.0621  -45.9659 C.3       13 UNK         0.1400 
     76 CB         -4.1658  -23.4660  -44.4876 C.3       13 UNK        -0.1800 
     77 C          -4.0657  -24.2827  -46.8840 C.2       13 UNK         0.5000 
     78 O          -5.0520  -24.8154  -47.3938 O.2       13 UNK        -0.5000 
     79 N          -2.8034  -24.6609  -47.1346 N.am      14 UNK        -0.5000 
     80 CA         -2.4203  -25.7019  -48.0940 C.3       14 UNK         0.1400 
     81 CB         -0.9202  -26.0011  -47.9554 C.3       14 UNK        -0.1800 
     82 C          -2.7798  -25.3452  -49.5520 C.2       14 UNK         0.5000 
     83 O          -3.0881  -26.2412  -50.3377 O.2       14 UNK        -0.5000 
     84 N          -2.7924  -24.0439  -49.8687 N.am      15 UNK        -0.5000 
     85 CA         -3.2581  -23.4672  -51.1311 C.3       15 UNK         0.1400 
     86 CB         -2.4432  -22.1947  -51.4252 C.3       15 UNK        -0.1800 
     87 C          -4.7810  -23.1943  -51.1442 C.2       15 UNK         0.5000 
     88 O          -5.2428  -22.3954  -51.9603 O.2       15 UNK        -0.5000 
     89 N          -5.5384  -23.8470  -50.2484 N.am      16 UNK        -0.5000 
     90 CA         -6.9973  -23.7933  -50.1048 C.3       16 UNK         0.1400 
     91 CB         -7.6896  -24.3895  -51.3492 C.3       16 UNK        -0.1800 
     92 C          -7.5066  -22.3848  -49.7396 C.2       16 UNK         0.5000 
     93 O          -8.4380  -21.8791  -50.3652 O.2       16 UNK        -0.5000 
     94 N          -6.8543  -21.7725  -48.7417 N.am      17 UNK        -0.5000 
     95 CA         -7.0323  -20.3908  -48.2776 C.3       17 UNK         0.1400 
     96 CB         -8.4534  -20.1529  -47.7251 C.3       17 UNK        -0.1800 
     97 C          -6.6067  -19.3726  -49.3557 C.2       17 UNK         0.5000 
     98 O          -7.2950  -18.3768  -49.5846 O.2       17 UNK        -0.5000 
     99 N          -5.4707  -19.6725  -50.0032 N.am      18 UNK        -0.5000 
    100 CA        -4.8320  -18.9354  -51.0985 C.3       18 UNK         0.1400 
    101 CB        -4.3317  -17.5625  -50.6046 C.3       18 UNK        -0.1800 
    102 C         -5.6919  -18.8358  -52.3786 C.2       18 UNK         0.5000 
    103 O         -5.4981  -17.9150  -53.1745 O.2       18 UNK        -0.5000 
    104 N         -6.6207  -19.7832  -52.5652 N.am      19 UNK        -0.5000 
    105 CA        -7.4654  -19.8894  -53.7533 C.3       19 UNK         0.1400 
    106 CB        -8.7298  -20.6910  -53.4134 C.3       19 UNK        -0.1800 
    107 C         -6.7196  -20.5349  -54.9332 C.2       19 UNK         0.5000 
    108 O         -6.9623  -20.1564  -56.0804 O.2       19 UNK        -0.5000 
    109 N         -5.8281  -21.4908  -54.6392 N.am      20 UNK        -0.5000 
    110 CA        -4.9635  -22.1353  -55.6222 C.3       20 UNK         0.1400 
    111 CB        -4.4807  -23.4843  -55.0675 C.3       20 UNK        -0.1800 
    112 C         -3.7677  -21.2287  -55.9559 C.2       20 UNK         0.5000 
    113 O         -3.1548  -20.6642  -55.0464 O.2       20 UNK        -0.5000 
    114 N         -3.4433  -21.1277  -57.2487 N.am      21 UNK        -0.5000 
    115 CA        -2.2486  -20.4468  -57.7414 C.3       21 UNK         0.1400 
    116 CB        -2.4999  -19.9743  -59.1819 C.3       21 UNK        -0.1800 
    117 C         -1.0418  -21.3985  -57.6869 C.2       21 UNK         0.5000 
    118 O         -1.1948  -22.5939  -57.9526 O.2       21 UNK        -0.5000 
    119 N          0.1354  -20.8485  -57.3735 N.am      22 UNK        -0.5000 
    120 CA         1.4062  -21.5925  -57.3048 C.3       22 UNK         0.1400 
    121 C          2.1151  -21.7771  -58.6801 C.2       22 UNK         0.5000 
    122 N          1.6348  -21.1852  -59.7672 N.am      22 UNK        -0.7600 
    123 O          3.1170  -22.4821  -58.7660 O.2       22 UNK        -0.5000 
    124 C124        2.3733  -20.9837  -56.2581 C.3       23 UNK        -0.0398 
    125 S125        1.6811  -21.0024  -54.5683 S.3       23 UNK        -0.2404 
    126 C126        2.0626  -19.3110  -54.0190 C.3       23 UNK        -0.0205 
    127 H127       -6.0442  -13.3838  -49.7800 H         1 UNK         0.0600 
    128 H128       -5.0919  -12.4111  -50.9048 H         1 UNK         0.0600 
    129 H129       -5.6383  -11.7117  -49.3778 H         1 UNK         0.0600 
    130 H130       -2.9404  -12.9158  -50.8581 H         1 UNK         0.3000 
    131 H131       -0.9938  -13.7213  -50.3950 H         1 UNK         0.0600 
    132 H132       -1.8718  -15.1091  -47.8196 H         1 UNK         0.0800 
    133 H133       -2.4140  -15.6840  -49.3612 H         1 UNK         0.0800 
    134 H134       -1.2437  -18.0892  -49.5387 H         1 UNK         0.0800 
    135 H135       -1.1946  -17.0688  -50.9582 H         1 UNK         0.0800 
    136 H136        0.0591  -17.9757  -52.7206 H         1 UNK         0.1150 
    137 H137        3.5989  -20.2768  -52.0069 H         1 UNK         0.1150 
    138 H138        1.3549  -18.7180  -48.6997 H         1 UNK         0.1150 
    139 H139        4.5705  -20.2695  -49.8076 H         1 UNK         0.0800 
    140 H140        3.7957  -19.4872  -48.4626 H         1 UNK         0.0800 
    141 H141        2.0688  -20.3090  -47.0834 H         1 UNK         0.0800 
    142 H142        3.1127  -21.4911  -46.3536 H         1 UNK         0.0800 
    143 H143        1.3442  -23.2769  -47.0359 H         1 UNK         0.0600 
    144 H144        1.4305  -21.6176  -44.7503 H         1 UNK         0.3000 
    145 H145       -1.1010  -23.2853  -42.8542 H         1 UNK         0.0600 
    146 H146        0.8148  -23.4120  -41.2874 H         1 UNK         0.0600 
    147 H147        1.0106  -24.5869  -42.5801 H         1 UNK         0.0600 
    148 H148        1.9483  -23.0981  -42.5986 H         1 UNK         0.0600 
    149 H149        0.5516  -21.0526  -42.2347 H         1 UNK         0.3000 
    150 H150       -1.6051  -18.5234  -43.6037 H         1 UNK         0.0600 
    151 H151       -2.4459  -18.9980  -41.3255 H         1 UNK         0.0600 
    152 H152       -1.2954  -17.6692  -41.2891 H         1 UNK         0.0600 
    153 H153       -0.8099  -19.2742  -40.7447 H         1 UNK         0.0600 
    154 H154        0.9099  -18.2706  -42.3307 H         1 UNK         0.3000 
    155 H155        2.9664  -18.6635  -45.2458 H         1 UNK         0.0600 
    156 H156        2.1964  -16.3167  -45.2986 H         1 UNK         0.0600 
    157 H157        2.2247  -16.2258  -43.5421 H         1 UNK         0.0600 
    158 H158        3.7264  -16.4297  -44.4445 H         1 UNK         0.0600 
    159 H159        3.4844  -18.1247  -42.4615 H         1 UNK         0.3000 
    160 H160        3.9482  -21.5249  -41.4819 H         1 UNK         0.0600 
    161 H161        5.9273  -19.2140  -41.8815 H         1 UNK         0.0600 
    162 H162        6.0965  -20.8309  -42.5551 H         1 UNK         0.0600 
    163 H163        6.1504  -20.6007  -40.8148 H         1 UNK         0.0600 
    164 H164        4.2121  -19.0282  -40.0983 H         1 UNK         0.3000 
    165 H165        0.8365  -18.7451  -39.0080 H         1 UNK         0.0600 
    166 H166        1.9147  -18.7837  -36.7817 H         1 UNK         0.0600 
    167 H167        1.8529  -20.4087  -37.4444 H         1 UNK         0.0600 
    168 H168        3.3687  -19.5152  -37.4618 H         1 UNK         0.0600 
    169 H169        3.1121  -17.1998  -38.3603 H         1 UNK         0.3000 
    170 H170        3.1826  -15.0397  -39.0793 H         1 UNK         0.0600 
    171 H171        4.1833  -15.7117  -41.9056 H         1 UNK         0.0600 
    172 H172        4.8645  -14.4898  -40.8344 H         1 UNK         0.0600 
    173 H173        4.9658  -16.1886  -40.4038 H         1 UNK         0.0600 
    174 H174        2.3352  -14.1224  -41.7312 H         1 UNK         0.3000 
    175 H175       -0.6388  -12.5743  -40.6208 H         1 UNK         0.0600 
    176 H176        0.4194  -10.5024  -41.4822 H         1 UNK         0.0600 
    177 H177        2.0209  -11.2250  -41.3319 H         1 UNK         0.0600 
    178 H178        1.0596  -10.8974  -39.8946 H         1 UNK         0.0600 
    179 H179        0.8446  -12.4993  -43.0950 H         1 UNK         0.3000 
    180 H180        0.7149  -14.4413  -44.6196 H         1 UNK         0.0600 
    181 H181       -2.1405  -15.5339  -44.7648 H         1 UNK         0.0600 
    182 H182       -0.7762  -16.4341  -44.1332 H         1 UNK         0.0600 
    183 H183       -0.7750  -15.9367  -45.8123 H         1 UNK         0.0600 
    184 H184       -1.7650  -13.4331  -45.6754 H         1 UNK         0.3000 
    185 H185       -1.8873  -10.7878  -46.0265 H         1 UNK         0.0600 
    186 H186        0.0777   -9.3305  -46.1917 H         1 UNK         0.0600 
    187 H187        0.7755  -10.3124  -47.4688 H         1 UNK         0.0600 
    188 H188       -0.7089   -9.4065  -47.7603 H         1 UNK         0.0600 
    189 H189       -2.5165  -12.1617  -47.6625 H         1 UNK         0.3000 
    190 H190       -0.4307  -20.2376  -46.2880 H         1 UNK         0.3000 
    191 H191       -1.9750  -20.1279  -48.6543 H         1 UNK         0.0600 
    192 H192       -1.7077  -18.2084  -47.0928 H         1 UNK         0.0600 
    193 H193       -3.4103  -18.5672  -47.3450 H         1 UNK         0.0600 
    194 H194       -2.6202  -19.0624  -45.8536 H         1 UNK         0.0600 
    195 H195       -2.6940  -21.7074  -45.4935 H         1 UNK         0.3000 
    196 H196       -5.2643  -22.6731  -46.1426 H         1 UNK         0.0600 
    197 H197       -4.8810  -24.2551  -44.2522 H         1 UNK         0.0600 
    198 H198       -4.3870  -22.6219  -43.8343 H         1 UNK         0.0600 
    199 H199       -3.1732  -23.8357  -44.2316 H         1 UNK         0.0600 
    200 H200       -2.0470  -24.1988  -46.6383 H         1 UNK         0.3000 
    201 H201       -2.9705  -26.6087  -47.8346 H         1 UNK         0.0600 
    202 H202       -0.6736  -26.3179  -46.9418 H         1 UNK         0.0600 
    203 H203       -0.3104  -25.1288  -48.1896 H         1 UNK         0.0600 
    204 H204       -0.6181  -26.8031  -48.6300 H         1 UNK         0.0600 
    205 H205       -2.4911  -23.3805  -49.1649 H         1 UNK         0.3000 
    206 H206       -3.0618  -24.1769  -51.9367 H         1 UNK         0.0600 
    207 H207       -1.3748  -22.4101  -51.4542 H         1 UNK         0.0600 
    208 H208       -2.7106  -21.7647  -52.3913 H         1 UNK         0.0600 
    209 H209       -2.6045  -21.4293  -50.6675 H         1 UNK         0.0600 
    210 H210       -5.0659  -24.4323  -49.5712 H         1 UNK         0.3000 
    211 H211       -7.2446  -24.4331  -49.2566 H         1 UNK         0.0600 
    212 H212       -7.5073  -23.7935  -52.2435 H         1 UNK         0.0600 
    213 H213       -8.7695  -24.4432  -51.2074 H         1 UNK         0.0600 
    214 H214       -7.3382  -25.4022  -51.5462 H         1 UNK         0.0600 
    215 H215       -6.0372  -22.2413  -48.3706 H         1 UNK         0.3000 
    216 H216       -6.3379  -20.2581  -47.4468 H         1 UNK         0.0600 
    217 H217       -8.5246  -19.1747  -47.2484 H         1 UNK         0.0600 
    218 H218       -8.7147  -20.8991  -46.9749 H         1 UNK         0.0600 
    219 H219       -9.2094  -20.1856  -48.5099 H         1 UNK         0.0600 
    220 H220       -4.9840  -20.5108  -49.6996 H         1 UNK         0.3000 
    221 H221       -3.9555  -19.5195  -51.3802 H         1 UNK         0.0600 
    222 H222       -5.1575  -16.8868  -50.3804 H         1 UNK         0.0600 
    223 H223       -3.7318  -17.6682  -49.7017 H         1 UNK         0.0600 
    224 H224       -3.7084  -17.0773  -51.3563 H         1 UNK         0.0600 
    225 H225       -6.6893  -20.5310  -51.8871 H         1 UNK         0.3000 
    226 H226       -7.7744  -18.8869  -54.0569 H         1 UNK         0.0600 
    227 H227       -9.2803  -20.2304  -52.5928 H         1 UNK         0.0600 
    228 H228       -9.4023  -20.7413  -54.2704 H         1 UNK         0.0600 
    229 H229       -8.4909  -21.7145  -53.1234 H         1 UNK         0.0600 
    230 H230       -5.6523  -21.7214  -53.6640 H         1 UNK         0.3000 
    231 H231       -5.5406  -22.3267  -56.5295 H         1 UNK         0.0600 
    232 H232       -3.8456  -23.3536  -54.1914 H         1 UNK         0.0600 
    233 H233       -3.8982  -24.0251  -55.8144 H         1 UNK         0.0600 
    234 H234       -5.3196  -24.1195  -54.7824 H         1 UNK         0.0600 
    235 H235       -3.9648  -21.6593  -57.9305 H         1 UNK         0.3000 
    236 H236       -2.0458  -19.5705  -57.1215 H         1 UNK         0.0600 
    237 H237       -3.3546  -19.2993  -59.2313 H         1 UNK         0.0600 
    238 H238       -1.6371  -19.4330  -59.5718 H         1 UNK         0.0600 
    239 H239       -2.6942  -20.8112  -59.8541 H         1 UNK         0.0600 
    240 H240        0.1862  -19.8606  -57.1729 H         1 UNK         0.3000 
    241 H241        1.1817  -22.6063  -56.9669 H         1 UNK         0.0600 
    242 H242        0.8113  -20.6079  -59.7172 H         1 UNK         0.3800 
    243 H243        2.1008  -21.3183  -60.6514 H         1 UNK         0.3800 
    244 H244        2.6393  -19.9644  -56.5426 H         1 UNK         0.0800 
    245 H245        3.3097  -21.5437  -56.2266 H         1 UNK         0.0800 
    246 H246        1.4495  -18.6025  -54.5782 H         1 UNK         0.0800 
    247 H247        3.1022  -19.0764  -54.2532 H         1 UNK         0.0800 
@<TRIPOS>BOND
     1    1    2 1    
     2    1  127 1    
     3    1  128 1    
     4    1  129 1    
     5    2    3 2    
     6    2    4 am   BACKBONE|DICT|INTERRES
     7    4    5 1    
     8    4  130 1    
     9    5    6 1    
    10    5   65 1    
    11    5  131 1    
    12    6    7 1    
    13    6  132 1    
    14    6  133 1    
    15    7    8 1    
    16    8    9 1    
    17    8  134 1    
    18    8  135 1    
    19    9   10 ar   
    20    9   14 ar   
    21   10   11 ar   
    22   10  136 1    
    23   11   12 ar   
    24   11  126 1    
    25   12   13 ar   
    26   12  137 1    
    27   13   14 ar   
    28   13   15 1    
    29   14  138 1    
    30   15   16 1    
    31   15  139 1    
    32   15  140 1    
    33   16   17 1    
    34   17   18 1    
    35   17  141 1    
    36   17  142 1    
    37   18   19 1    
    38   18   67 1    
    39   18  143 1    
    40   19   20 am   BACKBONE|DICT|INTERRES
    41   19  144 1    
    42   20   21 2    
    43   20   22 1    
    44   22   23 1    
    45   22   24 1    
    46   22  145 1    
    47   23  146 1    
    48   23  147 1    
    49   23  148 1    
    50   24   25 am   BACKBONE|DICT|INTERRES
    51   24  149 1    
    52   25   26 2    
    53   25   27 1    
    54   27   28 1    
    55   27   29 1    
    56   27  150 1    
    57   28  151 1    
    58   28  152 1    
    59   28  153 1    
    60   29   30 am   BACKBONE|DICT|INTERRES
    61   29  154 1    
    62   30   31 2    
    63   30   32 1    
    64   32   33 1    
    65   32   34 1    
    66   32  155 1    
    67   33  156 1    
    68   33  157 1    
    69   33  158 1    
    70   34   35 am   BACKBONE|DICT|INTERRES
    71   34  159 1    
    72   35   36 2    
    73   35   37 1    
    74   37   38 1    
    75   37   39 1    
    76   37  160 1    
    77   38  161 1    
    78   38  162 1    
    79   38  163 1    
    80   39   40 am   BACKBONE|DICT|INTERRES
    81   39  164 1    
    82   40   41 2    
    83   40   42 1    
    84   42   43 1    
    85   42   44 1    
    86   42  165 1    
    87   43  166 1    
    88   43  167 1    
    89   43  168 1    
    90   44   45 am   BACKBONE|DICT|INTERRES
    91   44  169 1    
    92   45   46 2    
    93   45   47 1    
    94   47   48 1    
    95   47   49 1    
    96   47  170 1    
    97   48  171 1    
    98   48  172 1    
    99   48  173 1    
   100   49   50 am   BACKBONE|DICT|INTERRES
   101   49  174 1    
   102   50   51 2    
   103   50   52 1    
   104   52   53 1    
   105   52   54 1    
   106   52  175 1    
   107   53  176 1    
   108   53  177 1    
   109   53  178 1    
   110   54   55 am   BACKBONE|DICT|INTERRES
   111   54  179 1    
   112   55   56 2    
   113   55   57 1    
   114   57   58 1    
   115   57   59 1    
   116   57  180 1    
   117   58  181 1    
   118   58  182 1    
   119   58  183 1    
   120   59   60 am   BACKBONE|DICT|INTERRES
   121   59  184 1    
   122   60   61 2    
   123   60   62 1    
   124   62   63 1    
   125   62   64 1    
   126   62  185 1    
   127   63  186 1    
   128   63  187 1    
   129   63  188 1    
   130   64   65 am   BACKBONE|DICT|INTERRES
   131   64  189 1    
   132   65   66 2    
   133   67   68 2    
   134   67   69 am   BACKBONE|DICT|INTERRES
   135   69   70 1    
   136   69  190 1    
   137   70   71 1    
   138   70   72 1    
   139   70  191 1    
   140   71  192 1    
   141   71  193 1    
   142   71  194 1    
   143   72   73 2    
   144   72   74 am   BACKBONE|DICT|INTERRES
   145   74   75 1    
   146   74  195 1    
   147   75   76 1    
   148   75   77 1    
   149   75  196 1    
   150   76  197 1    
   151   76  198 1    
   152   76  199 1    
   153   77   78 2    
   154   77   79 am   BACKBONE|DICT|INTERRES
   155   79   80 1    
   156   79  200 1    
   157   80   81 1    
   158   80   82 1    
   159   80  201 1    
   160   81  202 1    
   161   81  203 1    
   162   81  204 1    
   163   82   83 2    
   164   82   84 am   BACKBONE|DICT|INTERRES
   165   84   85 1    
   166   84  205 1    
   167   85   86 1    
   168   85   87 1    
   169   85  206 1    
   170   86  207 1    
   171   86  208 1    
   172   86  209 1    
   173   87   88 2    
   174   87   89 am   BACKBONE|DICT|INTERRES
   175   89   90 1    
   176   89  210 1    
   177   90   91 1    
   178   90   92 1    
   179   90  211 1    
   180   91  212 1    
   181   91  213 1    
   182   91  214 1    
   183   92   93 2    
   184   92   94 am   BACKBONE|DICT|INTERRES
   185   94   95 1    
   186   94  215 1    
   187   95   96 1    
   188   95   97 1    
   189   95  216 1    
   190   96  217 1    
   191   96  218 1    
   192   96  219 1    
   193   97   98 2    
   194   97   99 am   BACKBONE|DICT|INTERRES
   195   99  100 1    
   196   99  220 1    
   197  100  101 1    
   198  100  102 1    
   199  100  221 1    
   200  101  222 1    
   201  101  223 1    
   202  101  224 1    
   203  102  103 2    
   204  102  104 am   BACKBONE|DICT|INTERRES
   205  104  105 1    
   206  104  225 1    
   207  105  106 1    
   208  105  107 1    
   209  105  226 1    
   210  106  227 1    
   211  106  228 1    
   212  106  229 1    
   213  107  108 2    
   214  107  109 am   BACKBONE|DICT|INTERRES
   215  109  110 1    
   216  109  230 1    
   217  110  111 1    
   218  110  112 1    
   219  110  231 1    
   220  111  232 1    
   221  111  233 1    
   222  111  234 1    
   223  112  113 2    
   224  112  114 am   BACKBONE|DICT|INTERRES
   225  114  115 1    
   226  114  235 1    
   227  115  116 1    
   228  115  117 1    
   229  115  236 1    
   230  116  237 1    
   231  116  238 1    
   232  116  239 1    
   233  117  118 2    
   234  117  119 am   BACKBONE|DICT|INTERRES
   235  119  120 1    
   236  119  240 1    
   237  120  121 1    
   238  120  124 1    
   239  120  241 1    
   240  121  122 am   BACKBONE|DICT|INTERRES
   241  121  123 2    
   242  122  242 1    
   243  122  243 1    
   244  124  125 1    
   245  124  244 1    
   246  124  245 1    
   247  125  126 1    
   248  126  246 1    
   249  126  247 1    
@<TRIPOS>SUBSTRUCTURE
     1 UNK         1 GROUP             0       ****    0 ROOT    
