@<TRIPOS>MOLECULE
3R540
247   249    1
SMALL
USER_CHARGES


@<TRIPOS>ATOM
      1 CA          1.4600  -10.2184  -48.7321 C.3       0 UNK        -0.1800 
      2 C           0.9099  -11.0593  -49.8819 C.2       0 UNK         0.5000 
      3 O           0.2344  -10.5202  -50.7555 O.2       0 UNK        -0.5000 
      4 N           1.1662  -12.3738  -49.9311 N.am      1 UNK        -0.5000 
      5 CA          1.9221  -13.1718  -48.9549 C.3       1 UNK         0.1400 
      6 C6          2.5795  -14.4066  -49.6169 C.3       23 UNK        -0.0398 
      7 S7          1.3937  -15.5352  -50.4271 S.3       23 UNK        -0.2404 
      8 C8          2.3124  -16.0217  -51.9166 C.3       23 UNK        -0.0205 
      9 C9          1.8497  -17.3821  -52.4098 C.ar      23 UNK        -0.0193 
     10 C10         0.6626  -17.5042  -53.1354 C.ar      23 UNK        -0.1150 
     11 C11         0.2316  -18.7560  -53.5826 C.ar      23 UNK        -0.0193 
     12 C12         0.9963  -19.8925  -53.2976 C.ar      23 UNK        -0.1150 
     13 C13         2.1877  -19.7816  -52.5738 C.ar      23 UNK        -0.0193 
     14 C14         2.6097  -18.5223  -52.1375 C.ar      23 UNK        -0.1150 
     15 C15         3.0397  -21.0126  -52.2938 C.3       23 UNK        -0.0205 
     16 S16         2.4552  -21.9714  -50.8582 S.3       23 UNK        -0.2404 
     17 C17         2.7462  -20.8236  -49.4666 C.3       23 UNK        -0.0398 
     18 CA          1.4235  -20.4374  -48.7625 C.3       11 UNK         0.1400 
     19 N           0.8111  -21.6022  -48.1145 N.am      11 UNK        -0.5000 
     20 C          -0.4316  -21.6690  -47.6251 C.2       10 UNK         0.5000 
     21 O          -1.2098  -20.7126  -47.6276 O.2       10 UNK        -0.5000 
     22 CA         -0.8763  -23.0194  -47.0211 C.3       10 UNK         0.1400 
     23 CB          0.2718  -24.0370  -46.8348 C.3       10 UNK        -0.1800 
     24 N          -1.6065  -22.8525  -45.7616 N.am      10 UNK        -0.5000 
     25 C          -1.1701  -22.2292  -44.6578 C.2       9 UNK         0.5000 
     26 O          -0.0873  -21.6408  -44.5910 O.2       9 UNK        -0.5000 
     27 CA         -2.1192  -22.2400  -43.4383 C.3       9 UNK         0.1400 
     28 CB         -3.0079  -23.5010  -43.3514 C.3       9 UNK        -0.1800 
     29 N          -1.4082  -22.0161  -42.1772 N.am      9 UNK        -0.5000 
     30 C          -0.4716  -22.7955  -41.6124 C.2       8 UNK         0.5000 
     31 O          -0.1323  -23.8930  -42.0578 O.2       8 UNK        -0.5000 
     32 CA          0.2158  -22.2674  -40.3343 C.3       8 UNK         0.1400 
     33 CB          1.6963  -21.9584  -40.6118 C.3       8 UNK        -0.1800 
     34 N          -0.4230  -21.0662  -39.7913 N.am      8 UNK        -0.5000 
     35 C          -1.5395  -21.0652  -39.0466 C.2       7 UNK         0.5000 
     36 O          -2.0979  -22.0922  -38.6598 O.2       7 UNK        -0.5000 
     37 CA         -2.1594  -19.6939  -38.6961 C.3       7 UNK         0.1400 
     38 CB         -1.7358  -19.2590  -37.2850 C.3       7 UNK        -0.1800 
     39 N          -1.8145  -18.6298  -39.6423 N.am      7 UNK        -0.5000 
     40 C          -2.1161  -18.6252  -40.9483 C.2       6 UNK         0.5000 
     41 O          -2.8216  -19.4803  -41.4816 O.2       6 UNK        -0.5000 
     42 CA         -1.4758  -17.5281  -41.8216 C.3       6 UNK         0.1400 
     43 CB         -2.5014  -16.4387  -42.1653 C.3       6 UNK        -0.1800 
     44 N          -0.2824  -16.8958  -41.2514 N.am      6 UNK        -0.5000 
     45 C           0.8497  -17.5104  -40.8879 C.2       5 UNK         0.5000 
     46 O           0.9958  -18.7325  -40.9277 O.2       5 UNK        -0.5000 
     47 CA          1.9979  -16.6024  -40.3958 C.3       5 UNK         0.1400 
     48 CB          3.1809  -17.4110  -39.8333 C.3       5 UNK        -0.1800 
     49 N           2.5009  -15.7081  -41.4418 N.am      5 UNK        -0.5000 
     50 C           1.8628  -14.6430  -41.9457 C.2       4 UNK         0.5000 
     51 O           0.7455  -14.2910  -41.5577 O.2       4 UNK        -0.5000 
     52 CA          2.6128  -13.8431  -43.0383 C.3       4 UNK         0.1400 
     53 CB          3.3655  -14.7564  -44.0253 C.3       4 UNK        -0.1800 
     54 N           1.7243  -12.9665  -43.8027 N.am      4 UNK        -0.5000 
     55 C           1.1896  -11.8187  -43.3586 C.2       3 UNK         0.5000 
     56 O           1.4857  -11.3072  -42.2772 O.2       3 UNK        -0.5000 
     57 CA          0.1684  -11.0989  -44.2685 C.3       3 UNK         0.1400 
     58 CB          0.7349   -9.7576  -44.7629 C.3       3 UNK        -0.1800 
     59 N          -0.2406  -11.8841  -45.4336 N.am      3 UNK        -0.5000 
     60 C          -1.0558  -12.9473  -45.4198 C.2       2 UNK         0.5000 
     61 O          -1.6570  -13.3288  -44.4163 O.2       2 UNK        -0.5000 
     62 CA         -1.2294  -13.7139  -46.7502 C.3       2 UNK         0.1400 
     63 CB         -2.6351  -13.4763  -47.3220 C.3       2 UNK        -0.1800 
     64 N          -0.2466  -13.3853  -47.7913 N.am      2 UNK        -0.5000 
     65 C           1.0810  -13.5696  -47.7194 C.2       1 UNK         0.5000 
     66 O           1.6518  -13.9898  -46.7144 O.2       1 UNK        -0.5000 
     67 C           1.6322  -19.2377  -47.8107 C.2       11 UNK         0.5000 
     68 O           1.8272  -18.1268  -48.2977 O.2       11 UNK        -0.5000 
     69 N           1.5693  -19.4507  -46.4870 N.am      12 UNK        -0.5000 
     70 CA          1.5983  -18.3702  -45.4974 C.3       12 UNK         0.1400 
     71 CB          2.0719  -18.9240  -44.1459 C.3       12 UNK        -0.1800 
     72 C           0.2329  -17.6677  -45.3561 C.2       12 UNK         0.5000 
     73 O           0.1913  -16.5234  -44.9080 O.2       12 UNK        -0.5000 
     74 N          -0.8530  -18.3574  -45.7333 N.am      13 UNK        -0.5000 
     75 CA         -2.2162  -17.8260  -45.7498 C.3       13 UNK         0.1400 
     76 CB         -3.1619  -18.8831  -45.1595 C.3       13 UNK        -0.1800 
     77 C          -2.6823  -17.4560  -47.1681 C.2       13 UNK         0.5000 
     78 O          -3.6248  -16.6756  -47.2957 O.2       13 UNK        -0.5000 
     79 N          -2.0478  -18.0483  -48.1923 N.am      14 UNK        -0.5000 
     80 CA         -2.4524  -18.0563  -49.6028 C.3       14 UNK         0.1400 
     81 CB         -2.4000  -16.6382  -50.2087 C.3       14 UNK        -0.1800 
     82 C          -3.8216  -18.7498  -49.7770 C.2       14 UNK         0.5000 
     83 O          -4.6993  -18.2418  -50.4776 O.2       14 UNK        -0.5000 
     84 N          -3.9904  -19.8840  -49.0863 N.am      15 UNK        -0.5000 
     85 CA         -5.2392  -20.6289  -48.9707 C.3       15 UNK         0.1400 
     86 CB         -6.1318  -19.9598  -47.9058 C.3       15 UNK        -0.1800 
     87 C          -4.9324  -22.0929  -48.6192 C.2       15 UNK         0.5000 
     88 O          -3.7624  -22.4785  -48.5571 O.2       15 UNK        -0.5000 
     89 N          -5.9880  -22.8895  -48.3973 N.am      16 UNK        -0.5000 
     90 CA         -5.9527  -24.3090  -48.0276 C.3       16 UNK         0.1400 
     91 CB         -5.4219  -24.4740  -46.5852 C.3       16 UNK        -0.1800 
     92 C          -5.1881  -25.1385  -49.0786 C.2       16 UNK         0.5000 
     93 O          -5.6506  -25.2342  -50.2150 O.2       16 UNK        -0.5000 
     94 N          -4.0156  -25.6724  -48.7124 N.am      17 UNK        -0.5000 
     95 CA         -3.1133  -26.4118  -49.5976 C.3       17 UNK         0.1400 
     96 CB         -1.9444  -26.9626  -48.7669 C.3       17 UNK        -0.1800 
     97 C          -2.5820  -25.5849  -50.7870 C.2       17 UNK         0.5000 
     98 O          -2.2749  -26.1646  -51.8291 O.2       17 UNK        -0.5000 
     99 N          -2.4964  -24.2561  -50.6258 N.am      18 UNK        -0.5000 
    100 CA        -2.0559  -23.3367  -51.6744 C.3       18 UNK         0.1400 
    101 CB        -1.3856  -22.1142  -51.0348 C.3       18 UNK        -0.1800 
    102 C         -3.1951  -22.8957  -52.6076 C.2       18 UNK         0.5000 
    103 O         -2.9027  -22.3523  -53.6713 O.2       18 UNK        -0.5000 
    104 N         -4.4638  -23.1366  -52.2366 N.am      19 UNK        -0.5000 
    105 CA        -5.6443  -22.6807  -52.9836 C.3       19 UNK         0.1400 
    106 CB        -6.9223  -23.0229  -52.2055 C.3       19 UNK        -0.1800 
    107 C         -5.7268  -23.2269  -54.4222 C.2       19 UNK         0.5000 
    108 O         -6.2478  -22.5410  -55.3018 O.2       19 UNK        -0.5000 
    109 N         -5.1627  -24.4215  -54.6463 N.am      20 UNK        -0.5000 
    110 CA        -5.0155  -25.0456  -55.9619 C.3       20 UNK         0.1400 
    111 CB        -4.5292  -26.4906  -55.7734 C.3       20 UNK        -0.1800 
    112 C         -4.0685  -24.2759  -56.9067 C.2       20 UNK         0.5000 
    113 O         -4.2396  -24.3579  -58.1237 O.2       20 UNK        -0.5000 
    114 N         -3.1003  -23.5437  -56.3390 N.am      21 UNK        -0.5000 
    115 CA        -2.1874  -22.6662  -57.0675 C.3       21 UNK         0.1400 
    116 CB        -0.8034  -22.6966  -56.3973 C.3       21 UNK        -0.1800 
    117 C         -2.7319  -21.2296  -57.1225 C.2       21 UNK         0.5000 
    118 O         -2.6480  -20.5930  -58.1736 O.2       21 UNK        -0.5000 
    119 N         -3.2651  -20.7416  -55.9936 N.am      22 UNK        -0.5000 
    120 CA        -3.7895  -19.3750  -55.8458 C.3       22 UNK         0.1400 
    121 C         -5.1128  -19.1110  -56.6199 C.2       22 UNK         0.5000 
    122 N         -5.9721  -20.1014  -56.8259 N.am      22 UNK        -0.7600 
    123 O         -5.3613  -17.9860  -57.0449 O.2       22 UNK        -0.5000 
    124 C124       -3.9534  -18.9652  -54.3577 C.3       23 UNK        -0.0398 
    125 S125       -2.4821  -19.0874  -53.2737 S.3       23 UNK        -0.2404 
    126 C126       -1.0555  -18.8718  -54.3801 C.3       23 UNK        -0.0205 
    127 H127        1.0896   -9.1951  -48.7961 H         1 UNK         0.0600 
    128 H128        2.5486  -10.1805  -48.7703 H         1 UNK         0.0600 
    129 H129        1.1551  -10.6183  -47.7672 H         1 UNK         0.0600 
    130 H130        0.7987  -12.9062  -50.7076 H         1 UNK         0.3000 
    131 H131        2.7412  -12.5595  -48.5742 H         1 UNK         0.0600 
    132 H132        3.1527  -14.9787  -48.8848 H         1 UNK         0.0800 
    133 H133        3.3058  -14.0631  -50.3546 H         1 UNK         0.0800 
    134 H134        3.3814  -16.0504  -51.7001 H         1 UNK         0.0800 
    135 H135        2.1719  -15.2700  -52.6946 H         1 UNK         0.0800 
    136 H136        0.0701  -16.6245  -53.3444 H         1 UNK         0.1150 
    137 H137        0.6654  -20.8628  -53.6409 H         1 UNK         0.1150 
    138 H138        3.5331  -18.4260  -51.5845 H         1 UNK         0.1150 
    139 H139        3.0329  -21.6612  -53.1710 H         1 UNK         0.0800 
    140 H140        4.0821  -20.7299  -52.1384 H         1 UNK         0.0800 
    141 H141        3.2698  -19.9403  -49.8314 H         1 UNK         0.0800 
    142 H142        3.4298  -21.2995  -48.7616 H         1 UNK         0.0800 
    143 H143        0.7266  -20.0898  -49.5291 H         1 UNK         0.0600 
    144 H144        1.3864  -22.4306  -48.0716 H         1 UNK         0.3000 
    145 H145       -1.5755  -23.4556  -47.7328 H         1 UNK         0.0600 
    146 H146       -0.0979  -24.9623  -46.3927 H         1 UNK         0.0600 
    147 H147        0.7276  -24.3042  -47.7890 H         1 UNK         0.0600 
    148 H148        1.0560  -23.6539  -46.1803 H         1 UNK         0.0600 
    149 H149       -2.5341  -23.2472  -45.7457 H         1 UNK         0.3000 
    150 H150       -2.7824  -21.3845  -43.5590 H         1 UNK         0.0600 
    151 H151       -3.7316  -23.5341  -44.1654 H         1 UNK         0.0600 
    152 H152       -3.5793  -23.5138  -42.4230 H         1 UNK         0.0600 
    153 H153       -2.4198  -24.4185  -43.3919 H         1 UNK         0.0600 
    154 H154       -1.6218  -21.1334  -41.7286 H         1 UNK         0.3000 
    155 H155        0.1707  -23.0598  -39.5845 H         1 UNK         0.0600 
    156 H156        1.8105  -21.2282  -41.4139 H         1 UNK         0.0600 
    157 H157        2.2327  -22.8588  -40.9133 H         1 UNK         0.0600 
    158 H158        2.1934  -21.5647  -39.7251 H         1 UNK         0.0600 
    159 H159       -0.0165  -20.1806  -40.0809 H         1 UNK         0.3000 
    160 H160       -3.2448  -19.8125  -38.7095 H         1 UNK         0.0600 
    161 H161       -0.6584  -19.1017  -37.2196 H         1 UNK         0.0600 
    162 H162       -2.0026  -20.0158  -36.5460 H         1 UNK         0.0600 
    163 H163       -2.2301  -18.3326  -36.9918 H         1 UNK         0.0600 
    164 H164       -1.2250  -17.8890  -39.2932 H         1 UNK         0.3000 
    165 H165       -1.1654  -18.0103  -42.7492 H         1 UNK         0.0600 
    166 H166       -2.0849  -15.7167  -42.8687 H         1 UNK         0.0600 
    167 H167       -3.3908  -16.8672  -42.6292 H         1 UNK         0.0600 
    168 H168       -2.8218  -15.8945  -41.2762 H         1 UNK         0.0600 
    169 H169       -0.2675  -15.8790  -41.2494 H         1 UNK         0.3000 
    170 H170        1.5992  -15.9915  -39.5833 H         1 UNK         0.0600 
    171 H171        3.6438  -18.0342  -40.5997 H         1 UNK         0.0600 
    172 H172        3.9493  -16.7548  -39.4242 H         1 UNK         0.0600 
    173 H173        2.8565  -18.0700  -39.0267 H         1 UNK         0.0600 
    174 H174        3.4058  -15.9443  -41.8213 H         1 UNK         0.3000 
    175 H175        3.3497  -13.2194  -42.5288 H         1 UNK         0.0600 
    176 H176        2.6919  -15.4679  -44.5035 H         1 UNK         0.0600 
    177 H177        3.8417  -14.1732  -44.8138 H         1 UNK         0.0600 
    178 H178        4.1557  -15.3236  -43.5332 H         1 UNK         0.0600 
    179 H179        1.4348  -13.3178  -44.7083 H         1 UNK         0.3000 
    180 H180       -0.7177  -10.8952  -43.6639 H         1 UNK         0.0600 
    181 H181        0.0092   -9.2224  -45.3757 H         1 UNK         0.0600 
    182 H182        1.6397   -9.8971  -45.3557 H         1 UNK         0.0600 
    183 H183        0.9904   -9.1080  -43.9248 H         1 UNK         0.0600 
    184 H184        0.2009  -11.6496  -46.3083 H         1 UNK         0.3000 
    185 H185       -1.1253  -14.7765  -46.5250 H         1 UNK         0.0600 
    186 H186       -2.8011  -14.0699  -48.2209 H         1 UNK         0.0600 
    187 H187       -3.4037  -13.7629  -46.6029 H         1 UNK         0.0600 
    188 H188       -2.7948  -12.4276  -47.5755 H         1 UNK         0.0600 
    189 H189       -0.6205  -13.0266  -48.6580 H         1 UNK         0.3000 
    190 H190        1.3873  -20.3832  -46.1389 H         1 UNK         0.3000 
    191 H191        2.3231  -17.6186  -45.8182 H         1 UNK         0.0600 
    192 H192        2.2391  -18.1118  -43.4386 H         1 UNK         0.0600 
    193 H193        3.0131  -19.4647  -44.2439 H         1 UNK         0.0600 
    194 H194        1.3396  -19.5984  -43.7014 H         1 UNK         0.0600 
    195 H195       -0.7330  -19.2982  -46.0884 H         1 UNK         0.3000 
    196 H196       -2.2838  -16.9252  -45.1366 H         1 UNK         0.0600 
    197 H197       -3.1429  -19.8098  -45.7348 H         1 UNK         0.0600 
    198 H198       -2.8913  -19.1175  -44.1322 H         1 UNK         0.0600 
    199 H199       -4.1921  -18.5249  -45.1472 H         1 UNK         0.0600 
    200 H200       -1.3512  -18.7429  -47.9528 H         1 UNK         0.3000 
    201 H201       -1.7202  -18.6700  -50.1302 H         1 UNK         0.0600 
    202 H202       -3.1946  -15.9993  -49.8234 H         1 UNK         0.0600 
    203 H203       -2.5100  -16.6762  -51.2927 H         1 UNK         0.0600 
    204 H204       -1.4491  -16.1531  -49.9942 H         1 UNK         0.0600 
    205 H205       -3.2083  -20.2870  -48.5795 H         1 UNK         0.3000 
    206 H206       -5.7504  -20.6240  -49.9354 H         1 UNK         0.0600 
    207 H207       -7.1065  -20.4429  -47.8357 H         1 UNK         0.0600 
    208 H208       -5.6710  -19.9987  -46.9180 H         1 UNK         0.0600 
    209 H209       -6.3151  -18.9116  -48.1433 H         1 UNK         0.0600 
    210 H210       -6.9134  -22.4981  -48.4998 H         1 UNK         0.3000 
    211 H211       -6.9834  -24.6662  -48.0454 H         1 UNK         0.0600 
    212 H212       -5.4450  -25.5192  -46.2738 H         1 UNK         0.0600 
    213 H213       -6.0394  -23.9178  -45.8799 H         1 UNK         0.0600 
    214 H214       -4.3990  -24.1149  -46.4771 H         1 UNK         0.0600 
    215 H215       -3.7030  -25.5335  -47.7635 H         1 UNK         0.3000 
    216 H216       -3.6702  -27.2560  -50.0095 H         1 UNK         0.0600 
    217 H217       -1.3613  -26.1610  -48.3128 H         1 UNK         0.0600 
    218 H218       -1.2662  -27.5498  -49.3876 H         1 UNK         0.0600 
    219 H219       -2.2987  -27.6153  -47.9688 H         1 UNK         0.0600 
    220 H220       -2.8192  -23.8352  -49.7607 H         1 UNK         0.3000 
    221 H221       -1.3061  -23.8299  -52.2967 H         1 UNK         0.0600 
    222 H222       -0.5194  -22.4162  -50.4500 H         1 UNK         0.0600 
    223 H223       -2.0658  -21.5667  -50.3842 H         1 UNK         0.0600 
    224 H224       -1.0305  -21.4174  -51.7943 H         1 UNK         0.0600 
    225 H225       -4.6381  -23.6653  -51.3913 H         1 UNK         0.3000 
    226 H226       -5.5787  -21.5940  -53.0532 H         1 UNK         0.0600 
    227 H227       -7.0733  -24.1003  -52.1347 H         1 UNK         0.0600 
    228 H228       -6.8946  -22.6182  -51.1946 H         1 UNK         0.0600 
    229 H229       -7.8004  -22.6038  -52.6983 H         1 UNK         0.0600 
    230 H230       -4.7533  -24.9093  -53.8627 H         1 UNK         0.3000 
    231 H231       -6.0000  -25.0731  -56.4336 H         1 UNK         0.0600 
    232 H232       -3.5577  -26.5264  -55.2785 H         1 UNK         0.0600 
    233 H233       -4.4278  -26.9977  -56.7339 H         1 UNK         0.0600 
    234 H234       -5.2329  -27.0692  -55.1746 H         1 UNK         0.0600 
    235 H235       -3.0638  -23.4789  -55.3283 H         1 UNK         0.3000 
    236 H236       -2.0682  -23.0220  -58.0932 H         1 UNK         0.0600 
    237 H237       -0.3921  -23.7060  -56.3917 H         1 UNK         0.0600 
    238 H238       -0.0977  -22.0607  -56.9332 H         1 UNK         0.0600 
    239 H239       -0.8400  -22.3457  -55.3656 H         1 UNK         0.0600 
    240 H240       -3.2410  -21.3097  -55.1505 H         1 UNK         0.3000 
    241 H241       -3.0554  -18.7020  -56.2914 H         1 UNK         0.0600 
    242 H242       -6.8214  -19.9163  -57.3347 H         1 UNK         0.3800 
    243 H243       -5.8341  -21.0178  -56.4101 H         1 UNK         0.3800 
    244 H244       -4.7419  -19.5593  -53.8952 H         1 UNK         0.0800 
    245 H245       -4.2949  -17.9302  -54.2979 H         1 UNK         0.0800 
    246 H246       -0.9807  -19.7139  -55.0672 H         1 UNK         0.0800 
    247 H247       -1.1941  -17.9769  -54.9882 H         1 UNK         0.0800 
@<TRIPOS>BOND
     1    1    2 1    
     2    1  127 1    
     3    1  128 1    
     4    1  129 1    
     5    2    3 2    
     6    2    4 am   BACKBONE|DICT|INTERRES
     7    4    5 1    
     8    4  130 1    
     9    5    6 1    
    10    5   65 1    
    11    5  131 1    
    12    6    7 1    
    13    6  132 1    
    14    6  133 1    
    15    7    8 1    
    16    8    9 1    
    17    8  134 1    
    18    8  135 1    
    19    9   10 ar   
    20    9   14 ar   
    21   10   11 ar   
    22   10  136 1    
    23   11   12 ar   
    24   11  126 1    
    25   12   13 ar   
    26   12  137 1    
    27   13   14 ar   
    28   13   15 1    
    29   14  138 1    
    30   15   16 1    
    31   15  139 1    
    32   15  140 1    
    33   16   17 1    
    34   17   18 1    
    35   17  141 1    
    36   17  142 1    
    37   18   19 1    
    38   18   67 1    
    39   18  143 1    
    40   19   20 am   BACKBONE|DICT|INTERRES
    41   19  144 1    
    42   20   21 2    
    43   20   22 1    
    44   22   23 1    
    45   22   24 1    
    46   22  145 1    
    47   23  146 1    
    48   23  147 1    
    49   23  148 1    
    50   24   25 am   BACKBONE|DICT|INTERRES
    51   24  149 1    
    52   25   26 2    
    53   25   27 1    
    54   27   28 1    
    55   27   29 1    
    56   27  150 1    
    57   28  151 1    
    58   28  152 1    
    59   28  153 1    
    60   29   30 am   BACKBONE|DICT|INTERRES
    61   29  154 1    
    62   30   31 2    
    63   30   32 1    
    64   32   33 1    
    65   32   34 1    
    66   32  155 1    
    67   33  156 1    
    68   33  157 1    
    69   33  158 1    
    70   34   35 am   BACKBONE|DICT|INTERRES
    71   34  159 1    
    72   35   36 2    
    73   35   37 1    
    74   37   38 1    
    75   37   39 1    
    76   37  160 1    
    77   38  161 1    
    78   38  162 1    
    79   38  163 1    
    80   39   40 am   BACKBONE|DICT|INTERRES
    81   39  164 1    
    82   40   41 2    
    83   40   42 1    
    84   42   43 1    
    85   42   44 1    
    86   42  165 1    
    87   43  166 1    
    88   43  167 1    
    89   43  168 1    
    90   44   45 am   BACKBONE|DICT|INTERRES
    91   44  169 1    
    92   45   46 2    
    93   45   47 1    
    94   47   48 1    
    95   47   49 1    
    96   47  170 1    
    97   48  171 1    
    98   48  172 1    
    99   48  173 1    
   100   49   50 am   BACKBONE|DICT|INTERRES
   101   49  174 1    
   102   50   51 2    
   103   50   52 1    
   104   52   53 1    
   105   52   54 1    
   106   52  175 1    
   107   53  176 1    
   108   53  177 1    
   109   53  178 1    
   110   54   55 am   BACKBONE|DICT|INTERRES
   111   54  179 1    
   112   55   56 2    
   113   55   57 1    
   114   57   58 1    
   115   57   59 1    
   116   57  180 1    
   117   58  181 1    
   118   58  182 1    
   119   58  183 1    
   120   59   60 am   BACKBONE|DICT|INTERRES
   121   59  184 1    
   122   60   61 2    
   123   60   62 1    
   124   62   63 1    
   125   62   64 1    
   126   62  185 1    
   127   63  186 1    
   128   63  187 1    
   129   63  188 1    
   130   64   65 am   BACKBONE|DICT|INTERRES
   131   64  189 1    
   132   65   66 2    
   133   67   68 2    
   134   67   69 am   BACKBONE|DICT|INTERRES
   135   69   70 1    
   136   69  190 1    
   137   70   71 1    
   138   70   72 1    
   139   70  191 1    
   140   71  192 1    
   141   71  193 1    
   142   71  194 1    
   143   72   73 2    
   144   72   74 am   BACKBONE|DICT|INTERRES
   145   74   75 1    
   146   74  195 1    
   147   75   76 1    
   148   75   77 1    
   149   75  196 1    
   150   76  197 1    
   151   76  198 1    
   152   76  199 1    
   153   77   78 2    
   154   77   79 am   BACKBONE|DICT|INTERRES
   155   79   80 1    
   156   79  200 1    
   157   80   81 1    
   158   80   82 1    
   159   80  201 1    
   160   81  202 1    
   161   81  203 1    
   162   81  204 1    
   163   82   83 2    
   164   82   84 am   BACKBONE|DICT|INTERRES
   165   84   85 1    
   166   84  205 1    
   167   85   86 1    
   168   85   87 1    
   169   85  206 1    
   170   86  207 1    
   171   86  208 1    
   172   86  209 1    
   173   87   88 2    
   174   87   89 am   BACKBONE|DICT|INTERRES
   175   89   90 1    
   176   89  210 1    
   177   90   91 1    
   178   90   92 1    
   179   90  211 1    
   180   91  212 1    
   181   91  213 1    
   182   91  214 1    
   183   92   93 2    
   184   92   94 am   BACKBONE|DICT|INTERRES
   185   94   95 1    
   186   94  215 1    
   187   95   96 1    
   188   95   97 1    
   189   95  216 1    
   190   96  217 1    
   191   96  218 1    
   192   96  219 1    
   193   97   98 2    
   194   97   99 am   BACKBONE|DICT|INTERRES
   195   99  100 1    
   196   99  220 1    
   197  100  101 1    
   198  100  102 1    
   199  100  221 1    
   200  101  222 1    
   201  101  223 1    
   202  101  224 1    
   203  102  103 2    
   204  102  104 am   BACKBONE|DICT|INTERRES
   205  104  105 1    
   206  104  225 1    
   207  105  106 1    
   208  105  107 1    
   209  105  226 1    
   210  106  227 1    
   211  106  228 1    
   212  106  229 1    
   213  107  108 2    
   214  107  109 am   BACKBONE|DICT|INTERRES
   215  109  110 1    
   216  109  230 1    
   217  110  111 1    
   218  110  112 1    
   219  110  231 1    
   220  111  232 1    
   221  111  233 1    
   222  111  234 1    
   223  112  113 2    
   224  112  114 am   BACKBONE|DICT|INTERRES
   225  114  115 1    
   226  114  235 1    
   227  115  116 1    
   228  115  117 1    
   229  115  236 1    
   230  116  237 1    
   231  116  238 1    
   232  116  239 1    
   233  117  118 2    
   234  117  119 am   BACKBONE|DICT|INTERRES
   235  119  120 1    
   236  119  240 1    
   237  120  121 1    
   238  120  124 1    
   239  120  241 1    
   240  121  122 am   BACKBONE|DICT|INTERRES
   241  121  123 2    
   242  122  242 1    
   243  122  243 1    
   244  124  125 1    
   245  124  244 1    
   246  124  245 1    
   247  125  126 1    
   248  126  246 1    
   249  126  247 1    
@<TRIPOS>SUBSTRUCTURE
     1 UNK         1 GROUP             0       ****    0 ROOT    
