@<TRIPOS>MOLECULE
3R540
247   249    1
SMALL
USER_CHARGES


@<TRIPOS>ATOM
      1 CA         -3.4972  -14.2691  -45.3749 C.3       0 UNK        -0.1800 
      2 C          -2.5342  -15.4465  -45.3468 C.2       0 UNK         0.5000 
      3 O          -2.9357  -16.5535  -44.9881 O.2       0 UNK        -0.5000 
      4 N          -1.2660  -15.2084  -45.7090 N.am      1 UNK        -0.5000 
      5 CA         -0.1765  -16.1907  -45.7849 C.3       1 UNK         0.1400 
      6 C6         -0.3973  -17.2586  -46.8886 C.3       23 UNK        -0.0398 
      7 S7         -0.4899  -16.5230  -48.5571 S.3       23 UNK        -0.2404 
      8 C8          1.0609  -17.1072  -49.3154 C.3       23 UNK        -0.0205 
      9 C9          0.8444  -18.3372  -50.1872 C.ar      23 UNK        -0.0193 
     10 C10         0.8567  -18.2173  -51.5800 C.ar      23 UNK        -0.1150 
     11 C11         0.6847  -19.3405  -52.3941 C.ar      23 UNK        -0.0193 
     12 C12         0.5060  -20.5952  -51.8054 C.ar      23 UNK        -0.1150 
     13 C13         0.4743  -20.7292  -50.4145 C.ar      23 UNK        -0.0193 
     14 C14         0.6460  -19.5957  -49.6114 C.ar      23 UNK        -0.1150 
     15 C15         0.2014  -22.0883  -49.7863 C.3       23 UNK        -0.0205 
     16 S16         1.5071  -22.6025  -48.6241 S.3       23 UNK        -0.2404 
     17 C17         0.5194  -23.5114  -47.3778 C.3       23 UNK        -0.0398 
     18 CA          0.2630  -22.7176  -46.0652 C.3       11 UNK         0.1400 
     19 N           1.5060  -22.3795  -45.3759 N.am      11 UNK        -0.5000 
     20 C           2.2165  -23.2078  -44.6044 C.2       10 UNK         0.5000 
     21 O           1.8574  -24.3569  -44.3429 O.2       10 UNK        -0.5000 
     22 CA          3.5638  -22.6985  -44.0474 C.3       10 UNK         0.1400 
     23 CB          4.7284  -23.5161  -44.6307 C.3       10 UNK        -0.1800 
     24 N           3.8220  -21.2796  -44.3094 N.am      10 UNK        -0.5000 
     25 C           3.3080  -20.2668  -43.6024 C.2       9 UNK         0.5000 
     26 O           2.5333  -20.4231  -42.6568 O.2       9 UNK        -0.5000 
     27 CA          3.7211  -18.8523  -44.0623 C.3       9 UNK         0.1400 
     28 CB          3.0809  -18.5181  -45.4185 C.3       9 UNK        -0.1800 
     29 N           3.3681  -17.8089  -43.0964 N.am      9 UNK        -0.5000 
     30 C           3.9483  -17.6555  -41.8985 C.2       8 UNK         0.5000 
     31 O           4.8674  -18.3683  -41.4880 O.2       8 UNK        -0.5000 
     32 CA          3.4284  -16.4810  -41.0424 C.3       8 UNK         0.1400 
     33 CB          4.2184  -16.2887  -39.7321 C.3       8 UNK        -0.1800 
     34 N           3.3653  -15.2170  -41.7817 N.am      8 UNK        -0.5000 
     35 C           4.3511  -14.6064  -42.4578 C.2       7 UNK         0.5000 
     36 O           5.4993  -15.0396  -42.5614 O.2       7 UNK        -0.5000 
     37 CA          3.9945  -13.2603  -43.1058 C.3       7 UNK         0.1400 
     38 CB          3.0154  -13.4456  -44.2771 C.3       7 UNK        -0.1800 
     39 N           3.4067  -12.3618  -42.1140 N.am      7 UNK        -0.5000 
     40 C           4.0799  -11.4101  -41.4524 C.2       6 UNK         0.5000 
     41 O           5.2676  -11.1500  -41.6500 O.2       6 UNK        -0.5000 
     42 CA          3.3031  -10.5986  -40.3947 C.3       6 UNK         0.1400 
     43 CB          2.7978   -9.2790  -40.9986 C.3       6 UNK        -0.1800 
     44 N           2.1656  -11.3245  -39.8294 N.am      6 UNK        -0.5000 
     45 C           2.2623  -12.3574  -38.9810 C.2       5 UNK         0.5000 
     46 O           3.3275  -12.7535  -38.5076 O.2       5 UNK        -0.5000 
     47 CA          0.9514  -13.0852  -38.6139 C.3       5 UNK         0.1400 
     48 CB          0.4350  -12.6054  -37.2490 C.3       5 UNK        -0.1800 
     49 N          -0.1244  -12.9490  -39.6051 N.am      5 UNK        -0.5000 
     50 C          -0.0517  -13.3616  -40.8765 C.2       4 UNK         0.5000 
     51 O           0.9585  -13.8571  -41.3745 O.2       4 UNK        -0.5000 
     52 CA         -1.3088  -13.1977  -41.7381 C.3       4 UNK         0.1400 
     53 CB         -0.9644  -12.6223  -43.1219 C.3       4 UNK        -0.1800 
     54 N          -1.9279  -14.5068  -41.9011 N.am      4 UNK        -0.5000 
     55 C          -2.8268  -15.0330  -41.0594 C.2       3 UNK         0.5000 
     56 O          -3.2923  -14.4255  -40.0944 O.2       3 UNK        -0.5000 
     57 CA         -3.2854  -16.4777  -41.3328 C.3       3 UNK         0.1400 
     58 CB         -4.6677  -16.4893  -42.0037 C.3       3 UNK        -0.1800 
     59 N          -2.3415  -17.2264  -42.1651 N.am      3 UNK        -0.5000 
     60 C          -1.2225  -17.8030  -41.7024 C.2       2 UNK         0.5000 
     61 O          -0.8705  -17.7611  -40.5233 O.2       2 UNK        -0.5000 
     62 CA         -0.3484  -18.5538  -42.7241 C.3       2 UNK         0.1400 
     63 CB         -0.7623  -20.0323  -42.7825 C.3       2 UNK        -0.1800 
     64 N          -0.4077  -17.9678  -44.0662 N.am      2 UNK        -0.5000 
     65 C           0.1185  -16.7774  -44.3856 C.2       1 UNK         0.5000 
     66 O           0.8130  -16.1273  -43.6056 O.2       1 UNK        -0.5000 
     67 C          -0.5512  -21.4291  -46.2899 C.2       11 UNK         0.5000 
     68 O          -0.0423  -20.3312  -46.0541 O.2       11 UNK        -0.5000 
     69 N          -1.7906  -21.5764  -46.7640 N.am      12 UNK        -0.5000 
     70 CA         -2.6646  -20.4892  -47.1916 C.3       12 UNK         0.1400 
     71 CB         -3.4238  -19.9154  -45.9806 C.3       12 UNK        -0.1800 
     72 C          -3.6184  -21.0183  -48.2705 C.2       12 UNK         0.5000 
     73 O          -3.6121  -22.2192  -48.5539 O.2       12 UNK        -0.5000 
     74 N          -4.4365  -20.1216  -48.8397 N.am      13 UNK        -0.5000 
     75 CA         -5.3884  -20.3905  -49.9269 C.3       13 UNK         0.1400 
     76 CB         -6.1206  -19.0902  -50.2879 C.3       13 UNK        -0.1800 
     77 C          -6.4002  -21.5194  -49.6457 C.2       13 UNK         0.5000 
     78 O          -6.8603  -22.1673  -50.5860 O.2       13 UNK        -0.5000 
     79 N          -6.6796  -21.7733  -48.3592 N.am      14 UNK        -0.5000 
     80 CA         -7.4899  -22.8845  -47.8551 C.3       14 UNK         0.1400 
     81 CB         -7.6367  -22.7339  -46.3332 C.3       14 UNK        -0.1800 
     82 C          -6.9413  -24.2850  -48.2071 C.2       14 UNK         0.5000 
     83 O          -7.7112  -25.2463  -48.1980 O.2       14 UNK        -0.5000 
     84 N          -5.6427  -24.3832  -48.5337 N.am      15 UNK        -0.5000 
     85 CA         -5.0045  -25.5977  -49.0486 C.3       15 UNK         0.1400 
     86 CB         -3.4779  -25.4280  -48.9856 C.3       15 UNK        -0.1800 
     87 C          -5.4451  -25.9571  -50.4843 C.2       15 UNK         0.5000 
     88 O          -5.2869  -27.1117  -50.8839 O.2       15 UNK        -0.5000 
     89 N          -5.9921  -24.9743  -51.2186 N.am      16 UNK        -0.5000 
     90 CA         -6.4553  -25.0425  -52.6064 C.3       16 UNK         0.1400 
     91 CB         -7.6673  -25.9921  -52.7283 C.3       16 UNK        -0.1800 
     92 C          -5.3218  -25.3602  -53.6066 C.2       16 UNK         0.5000 
     93 O          -4.1453  -25.1698  -53.2865 O.2       16 UNK        -0.5000 
     94 N          -5.6970  -25.7924  -54.8205 N.am      17 UNK        -0.5000 
     95 CA         -4.8189  -26.1259  -55.9476 C.3       17 UNK         0.1400 
     96 CB         -4.0671  -27.4467  -55.6670 C.3       17 UNK        -0.1800 
     97 C          -3.9023  -24.9394  -56.3096 C.2       17 UNK         0.5000 
     98 O          -4.4136  -23.8838  -56.6872 O.2       17 UNK        -0.5000 
     99 N          -2.5840  -25.0984  -56.1327 N.am      18 UNK        -0.5000 
    100 CA        -1.5725  -24.0586  -56.3313 C.3       18 UNK         0.1400 
    101 CB        -0.1802  -24.6546  -56.0774 C.3       18 UNK        -0.1800 
    102 C         -1.7867  -22.8067  -55.4573 C.2       18 UNK         0.5000 
    103 O         -1.4943  -21.7015  -55.9120 O.2       18 UNK        -0.5000 
    104 N         -2.3253  -22.9955  -54.2431 N.am      19 UNK        -0.5000 
    105 CA        -2.6279  -21.9189  -53.2993 C.3       19 UNK         0.1400 
    106 CB        -2.7688  -22.5058  -51.8867 C.3       19 UNK        -0.1800 
    107 C         -3.8803  -21.1124  -53.6878 C.2       19 UNK         0.5000 
    108 O         -4.0167  -19.9696  -53.2531 O.2       19 UNK        -0.5000 
    109 N         -4.7651  -21.7053  -54.5008 N.am      20 UNK        -0.5000 
    110 CA        -5.8876  -21.0063  -55.1212 C.3       20 UNK         0.1400 
    111 CB        -7.0444  -21.9878  -55.3669 C.3       20 UNK        -0.1800 
    112 C         -5.4390  -20.3340  -56.4290 C.2       20 UNK         0.5000 
    113 O         -5.7674  -19.1691  -56.6583 O.2       20 UNK        -0.5000 
    114 N         -4.6730  -21.0707  -57.2484 N.am      21 UNK        -0.5000 
    115 CA        -4.1758  -20.6457  -58.5589 C.3       21 UNK         0.1400 
    116 CB        -3.4340  -21.8132  -59.2254 C.3       21 UNK        -0.1800 
    117 C         -3.2813  -19.3925  -58.5236 C.2       21 UNK         0.5000 
    118 O         -3.3301  -18.5990  -59.4647 O.2       21 UNK        -0.5000 
    119 N         -2.5035  -19.2196  -57.4457 N.am      22 UNK        -0.5000 
    120 CA        -1.6977  -18.0124  -57.2004 C.3       22 UNK         0.1400 
    121 C         -2.5076  -16.7464  -56.7795 C.2       22 UNK         0.5000 
    122 N         -3.8128  -16.8260  -56.5425 N.am      22 UNK        -0.7600 
    123 O         -1.9409  -15.6606  -56.6867 O.2       22 UNK        -0.5000 
    124 C124       -0.4898  -18.2944  -56.2690 C.3       23 UNK        -0.0398 
    125 S125       -0.9205  -18.6346  -54.5286 S.3       23 UNK        -0.2404 
    126 C126        0.6953  -19.1917  -53.9072 C.3       23 UNK        -0.0205 
    127 H127       -4.3786  -14.5211  -45.9644 H         1 UNK         0.0600 
    128 H128       -3.8207  -14.0248  -44.3633 H         1 UNK         0.0600 
    129 H129       -3.0395  -13.3814  -45.8118 H         1 UNK         0.0600 
    130 H130       -1.0074  -14.2706  -45.9804 H         1 UNK         0.3000 
    131 H131        0.7177  -15.6273  -46.0576 H         1 UNK         0.0600 
    132 H132       -1.3194  -17.8090  -46.7119 H         1 UNK         0.0800 
    133 H133        0.4076  -17.9901  -46.8753 H         1 UNK         0.0800 
    134 H134        1.4711  -16.2936  -49.9156 H         1 UNK         0.0800 
    135 H135        1.8129  -17.3175  -48.5536 H         1 UNK         0.0800 
    136 H136        0.9984  -17.2473  -52.0358 H         1 UNK         0.1150 
    137 H137        0.3750  -21.4658  -52.4324 H         1 UNK         0.1150 
    138 H138        0.6249  -19.6948  -48.5363 H         1 UNK         0.1150 
    139 H139       -0.7648  -22.0369  -49.2865 H         1 UNK         0.0800 
    140 H140        0.1074  -22.8600  -50.5512 H         1 UNK         0.0800 
    141 H141        1.0570  -24.4307  -47.1421 H         1 UNK         0.0800 
    142 H142       -0.4215  -23.8438  -47.8188 H         1 UNK         0.0800 
    143 H143       -0.3359  -23.3404  -45.3974 H         1 UNK         0.0600 
    144 H144        1.8119  -21.4256  -45.5114 H         1 UNK         0.3000 
    145 H145        3.5466  -22.8585  -42.9672 H         1 UNK         0.0600 
    146 H146        5.6819  -23.2067  -44.2022 H         1 UNK         0.0600 
    147 H147        4.6093  -24.5789  -44.4161 H         1 UNK         0.0600 
    148 H148        4.7937  -23.4057  -45.7139 H         1 UNK         0.0600 
    149 H149        4.4393  -21.0761  -45.0824 H         1 UNK         0.3000 
    150 H150        4.8065  -18.8376  -44.1813 H         1 UNK         0.0600 
    151 H151        3.4932  -19.1405  -46.2133 H         1 UNK         0.0600 
    152 H152        3.2509  -17.4788  -45.7008 H         1 UNK         0.0600 
    153 H153        2.0081  -18.6961  -45.3979 H         1 UNK         0.0600 
    154 H154        2.6061  -17.1869  -43.3411 H         1 UNK         0.3000 
    155 H155        2.3998  -16.7291  -40.7754 H         1 UNK         0.0600 
    156 H156        3.7911  -15.4863  -39.1308 H         1 UNK         0.0600 
    157 H157        5.2637  -16.0435  -39.9226 H         1 UNK         0.0600 
    158 H158        4.1975  -17.1945  -39.1252 H         1 UNK         0.0600 
    159 H159        2.4489  -14.7703  -41.7750 H         1 UNK         0.3000 
    160 H160        4.9129  -12.8295  -43.5103 H         1 UNK         0.0600 
    161 H161        2.8483  -12.5038  -44.7996 H         1 UNK         0.0600 
    162 H162        2.0466  -13.8138  -43.9421 H         1 UNK         0.0600 
    163 H163        3.4044  -14.1589  -45.0048 H         1 UNK         0.0600 
    164 H164        2.4542  -12.5690  -41.8373 H         1 UNK         0.3000 
    165 H165        3.9967  -10.3604  -39.5854 H         1 UNK         0.0600 
    166 H166        2.0876   -9.4525  -41.8081 H         1 UNK         0.0600 
    167 H167        2.3063   -8.6628  -40.2455 H         1 UNK         0.0600 
    168 H168        3.6238   -8.6945  -41.4062 H         1 UNK         0.0600 
    169 H169        1.2480  -11.0564  -40.1525 H         1 UNK         0.3000 
    170 H170        1.1887  -14.1482  -38.5344 H         1 UNK         0.0600 
    171 H171        1.1989  -12.7201  -36.4787 H         1 UNK         0.0600 
    172 H172        0.1501  -11.5528  -37.2748 H         1 UNK         0.0600 
    173 H173       -0.4337  -13.1819  -36.9302 H         1 UNK         0.0600 
    174 H174       -0.9978  -12.5699  -39.2671 H         1 UNK         0.3000 
    175 H175       -1.9982  -12.5074  -41.2472 H         1 UNK         0.0600 
    176 H176       -0.4329  -11.6743  -43.0300 H         1 UNK         0.0600 
    177 H177       -0.3311  -13.2985  -43.6968 H         1 UNK         0.0600 
    178 H178       -1.8663  -12.4315  -43.7023 H         1 UNK         0.0600 
    179 H179       -1.5273  -15.1056  -42.6080 H         1 UNK         0.3000 
    180 H180       -3.3785  -16.9802  -40.3676 H         1 UNK         0.0600 
    181 H181       -4.6570  -15.9760  -42.9650 H         1 UNK         0.0600 
    182 H182       -5.4093  -15.9926  -41.3768 H         1 UNK         0.0600 
    183 H183       -5.0158  -17.5085  -42.1723 H         1 UNK         0.0600 
    184 H184       -2.5484  -17.2688  -43.1588 H         1 UNK         0.3000 
    185 H185        0.6823  -18.5029  -42.3700 H         1 UNK         0.0600 
    186 H186       -0.0855  -20.6060  -43.4135 H         1 UNK         0.0600 
    187 H187       -0.7282  -20.4847  -41.7906 H         1 UNK         0.0600 
    188 H188       -1.7748  -20.1584  -43.1656 H         1 UNK         0.0600 
    189 H189       -0.9266  -18.4858  -44.7612 H         1 UNK         0.3000 
    190 H190       -2.1505  -22.4948  -46.9925 H         1 UNK         0.3000 
    191 H191       -2.0633  -19.7102  -47.6620 H         1 UNK         0.0600 
    192 H192       -2.7357  -19.5208  -45.2351 H         1 UNK         0.0600 
    193 H193       -4.0775  -19.0918  -46.2697 H         1 UNK         0.0600 
    194 H194       -4.0401  -20.6743  -45.4973 H         1 UNK         0.0600 
    195 H195       -4.3798  -19.1595  -48.5384 H         1 UNK         0.3000 
    196 H196       -4.8076  -20.7005  -50.7945 H         1 UNK         0.0600 
    197 H197       -6.8174  -19.2502  -51.1120 H         1 UNK         0.0600 
    198 H198       -5.4190  -18.3191  -50.6068 H         1 UNK         0.0600 
    199 H199       -6.6913  -18.7012  -49.4437 H         1 UNK         0.0600 
    200 H200       -6.2442  -21.1878  -47.6623 H         1 UNK         0.3000 
    201 H201       -8.4803  -22.8021  -48.3071 H         1 UNK         0.0600 
    202 H202       -8.1061  -21.7849  -46.0731 H         1 UNK         0.0600 
    203 H203       -6.6699  -22.7809  -45.8302 H         1 UNK         0.0600 
    204 H204       -8.2611  -23.5270  -45.9194 H         1 UNK         0.0600 
    205 H205       -5.0610  -23.5507  -48.5085 H         1 UNK         0.3000 
    206 H206       -5.2821  -26.4304  -48.3992 H         1 UNK         0.0600 
    207 H207       -3.1344  -24.6353  -49.6512 H         1 UNK         0.0600 
    208 H208       -3.1463  -25.1867  -47.9757 H         1 UNK         0.0600 
    209 H209       -2.9710  -26.3462  -49.2847 H         1 UNK         0.0600 
    210 H210       -6.0848  -24.0601  -50.7905 H         1 UNK         0.3000 
    211 H211       -6.7968  -24.0355  -52.8460 H         1 UNK         0.0600 
    212 H212       -7.3740  -27.0384  -52.6345 H         1 UNK         0.0600 
    213 H213       -8.1729  -25.8746  -53.6870 H         1 UNK         0.0600 
    214 H214       -8.4065  -25.7841  -51.9544 H         1 UNK         0.0600 
    215 H215       -6.6857  -25.8834  -55.0054 H         1 UNK         0.3000 
    216 H216       -5.4632  -26.2874  -56.8129 H         1 UNK         0.0600 
    217 H217       -4.7705  -28.2609  -55.4919 H         1 UNK         0.0600 
    218 H218       -3.4227  -27.3794  -54.7896 H         1 UNK         0.0600 
    219 H219       -3.4488  -27.7380  -56.5171 H         1 UNK         0.0600 
    220 H220       -2.2542  -25.9870  -55.7851 H         1 UNK         0.3000 
    221 H221       -1.6215  -23.7479  -57.3756 H         1 UNK         0.0600 
    222 H222       -0.0784  -25.0174  -55.0537 H         1 UNK         0.0600 
    223 H223        0.0224  -25.4871  -56.7515 H         1 UNK         0.0600 
    224 H224        0.5992  -23.9089  -56.2405 H         1 UNK         0.0600 
    225 H225       -2.6103  -23.9292  -53.9655 H         1 UNK         0.3000 
    226 H226       -1.7854  -21.2279  -53.2973 H         1 UNK         0.0600 
    227 H227       -1.9799  -23.2252  -51.6706 H         1 UNK         0.0600 
    228 H228       -2.6990  -21.7163  -51.1391 H         1 UNK         0.0600 
    229 H229       -3.7253  -23.0098  -51.7456 H         1 UNK         0.0600 
    230 H230       -4.5537  -22.6299  -54.8519 H         1 UNK         0.3000 
    231 H231       -6.2540  -20.2262  -54.4501 H         1 UNK         0.0600 
    232 H232       -7.8764  -21.4894  -55.8659 H         1 UNK         0.0600 
    233 H233       -7.4260  -22.3855  -54.4274 H         1 UNK         0.0600 
    234 H234       -6.7454  -22.8289  -55.9923 H         1 UNK         0.0600 
    235 H235       -4.4833  -22.0364  -56.9940 H         1 UNK         0.3000 
    236 H236       -5.0483  -20.4066  -59.1702 H         1 UNK         0.0600 
    237 H237       -3.1342  -21.5548  -60.2418 H         1 UNK         0.0600 
    238 H238       -2.5306  -22.0748  -58.6757 H         1 UNK         0.0600 
    239 H239       -4.0625  -22.7018  -59.2873 H         1 UNK         0.0600 
    240 H240       -2.4730  -19.9367  -56.7301 H         1 UNK         0.3000 
    241 H241       -1.2594  -17.7410  -58.1629 H         1 UNK         0.0600 
    242 H242       -4.3115  -17.7042  -56.6250 H         1 UNK         0.3800 
    243 H243       -4.3161  -15.9939  -56.2794 H         1 UNK         0.3800 
    244 H244        0.0745  -19.1437  -56.6572 H         1 UNK         0.0800 
    245 H245        0.1988  -17.4480  -56.2881 H         1 UNK         0.0800 
    246 H246        0.9551  -20.1388  -54.3833 H         1 UNK         0.0800 
    247 H247        1.4658  -18.4758  -54.1974 H         1 UNK         0.0800 
@<TRIPOS>BOND
     1    1    2 1    
     2    1  127 1    
     3    1  128 1    
     4    1  129 1    
     5    2    3 2    
     6    2    4 am   BACKBONE|DICT|INTERRES
     7    4    5 1    
     8    4  130 1    
     9    5    6 1    
    10    5   65 1    
    11    5  131 1    
    12    6    7 1    
    13    6  132 1    
    14    6  133 1    
    15    7    8 1    
    16    8    9 1    
    17    8  134 1    
    18    8  135 1    
    19    9   10 ar   
    20    9   14 ar   
    21   10   11 ar   
    22   10  136 1    
    23   11   12 ar   
    24   11  126 1    
    25   12   13 ar   
    26   12  137 1    
    27   13   14 ar   
    28   13   15 1    
    29   14  138 1    
    30   15   16 1    
    31   15  139 1    
    32   15  140 1    
    33   16   17 1    
    34   17   18 1    
    35   17  141 1    
    36   17  142 1    
    37   18   19 1    
    38   18   67 1    
    39   18  143 1    
    40   19   20 am   BACKBONE|DICT|INTERRES
    41   19  144 1    
    42   20   21 2    
    43   20   22 1    
    44   22   23 1    
    45   22   24 1    
    46   22  145 1    
    47   23  146 1    
    48   23  147 1    
    49   23  148 1    
    50   24   25 am   BACKBONE|DICT|INTERRES
    51   24  149 1    
    52   25   26 2    
    53   25   27 1    
    54   27   28 1    
    55   27   29 1    
    56   27  150 1    
    57   28  151 1    
    58   28  152 1    
    59   28  153 1    
    60   29   30 am   BACKBONE|DICT|INTERRES
    61   29  154 1    
    62   30   31 2    
    63   30   32 1    
    64   32   33 1    
    65   32   34 1    
    66   32  155 1    
    67   33  156 1    
    68   33  157 1    
    69   33  158 1    
    70   34   35 am   BACKBONE|DICT|INTERRES
    71   34  159 1    
    72   35   36 2    
    73   35   37 1    
    74   37   38 1    
    75   37   39 1    
    76   37  160 1    
    77   38  161 1    
    78   38  162 1    
    79   38  163 1    
    80   39   40 am   BACKBONE|DICT|INTERRES
    81   39  164 1    
    82   40   41 2    
    83   40   42 1    
    84   42   43 1    
    85   42   44 1    
    86   42  165 1    
    87   43  166 1    
    88   43  167 1    
    89   43  168 1    
    90   44   45 am   BACKBONE|DICT|INTERRES
    91   44  169 1    
    92   45   46 2    
    93   45   47 1    
    94   47   48 1    
    95   47   49 1    
    96   47  170 1    
    97   48  171 1    
    98   48  172 1    
    99   48  173 1    
   100   49   50 am   BACKBONE|DICT|INTERRES
   101   49  174 1    
   102   50   51 2    
   103   50   52 1    
   104   52   53 1    
   105   52   54 1    
   106   52  175 1    
   107   53  176 1    
   108   53  177 1    
   109   53  178 1    
   110   54   55 am   BACKBONE|DICT|INTERRES
   111   54  179 1    
   112   55   56 2    
   113   55   57 1    
   114   57   58 1    
   115   57   59 1    
   116   57  180 1    
   117   58  181 1    
   118   58  182 1    
   119   58  183 1    
   120   59   60 am   BACKBONE|DICT|INTERRES
   121   59  184 1    
   122   60   61 2    
   123   60   62 1    
   124   62   63 1    
   125   62   64 1    
   126   62  185 1    
   127   63  186 1    
   128   63  187 1    
   129   63  188 1    
   130   64   65 am   BACKBONE|DICT|INTERRES
   131   64  189 1    
   132   65   66 2    
   133   67   68 2    
   134   67   69 am   BACKBONE|DICT|INTERRES
   135   69   70 1    
   136   69  190 1    
   137   70   71 1    
   138   70   72 1    
   139   70  191 1    
   140   71  192 1    
   141   71  193 1    
   142   71  194 1    
   143   72   73 2    
   144   72   74 am   BACKBONE|DICT|INTERRES
   145   74   75 1    
   146   74  195 1    
   147   75   76 1    
   148   75   77 1    
   149   75  196 1    
   150   76  197 1    
   151   76  198 1    
   152   76  199 1    
   153   77   78 2    
   154   77   79 am   BACKBONE|DICT|INTERRES
   155   79   80 1    
   156   79  200 1    
   157   80   81 1    
   158   80   82 1    
   159   80  201 1    
   160   81  202 1    
   161   81  203 1    
   162   81  204 1    
   163   82   83 2    
   164   82   84 am   BACKBONE|DICT|INTERRES
   165   84   85 1    
   166   84  205 1    
   167   85   86 1    
   168   85   87 1    
   169   85  206 1    
   170   86  207 1    
   171   86  208 1    
   172   86  209 1    
   173   87   88 2    
   174   87   89 am   BACKBONE|DICT|INTERRES
   175   89   90 1    
   176   89  210 1    
   177   90   91 1    
   178   90   92 1    
   179   90  211 1    
   180   91  212 1    
   181   91  213 1    
   182   91  214 1    
   183   92   93 2    
   184   92   94 am   BACKBONE|DICT|INTERRES
   185   94   95 1    
   186   94  215 1    
   187   95   96 1    
   188   95   97 1    
   189   95  216 1    
   190   96  217 1    
   191   96  218 1    
   192   96  219 1    
   193   97   98 2    
   194   97   99 am   BACKBONE|DICT|INTERRES
   195   99  100 1    
   196   99  220 1    
   197  100  101 1    
   198  100  102 1    
   199  100  221 1    
   200  101  222 1    
   201  101  223 1    
   202  101  224 1    
   203  102  103 2    
   204  102  104 am   BACKBONE|DICT|INTERRES
   205  104  105 1    
   206  104  225 1    
   207  105  106 1    
   208  105  107 1    
   209  105  226 1    
   210  106  227 1    
   211  106  228 1    
   212  106  229 1    
   213  107  108 2    
   214  107  109 am   BACKBONE|DICT|INTERRES
   215  109  110 1    
   216  109  230 1    
   217  110  111 1    
   218  110  112 1    
   219  110  231 1    
   220  111  232 1    
   221  111  233 1    
   222  111  234 1    
   223  112  113 2    
   224  112  114 am   BACKBONE|DICT|INTERRES
   225  114  115 1    
   226  114  235 1    
   227  115  116 1    
   228  115  117 1    
   229  115  236 1    
   230  116  237 1    
   231  116  238 1    
   232  116  239 1    
   233  117  118 2    
   234  117  119 am   BACKBONE|DICT|INTERRES
   235  119  120 1    
   236  119  240 1    
   237  120  121 1    
   238  120  124 1    
   239  120  241 1    
   240  121  122 am   BACKBONE|DICT|INTERRES
   241  121  123 2    
   242  122  242 1    
   243  122  243 1    
   244  124  125 1    
   245  124  244 1    
   246  124  245 1    
   247  125  126 1    
   248  126  246 1    
   249  126  247 1    
@<TRIPOS>SUBSTRUCTURE
     1 UNK         1 GROUP             0       ****    0 ROOT    
