@<TRIPOS>MOLECULE
3R540
247   249    1
SMALL
USER_CHARGES


@<TRIPOS>ATOM
      1 CA          2.9331  -13.6655  -45.5638 C.3       0 UNK        -0.1800 
      2 C           1.5033  -14.1411  -45.7684 C.2       0 UNK         0.5000 
      3 O           0.6571  -13.9482  -44.8974 O.2       0 UNK        -0.5000 
      4 N           1.2143  -14.7424  -46.9286 N.am      1 UNK        -0.5000 
      5 CA         -0.0974  -15.3007  -47.2853 C.3       1 UNK         0.1400 
      6 C6         -0.0097  -16.2853  -48.4751 C.3       23 UNK        -0.0398 
      7 S7          0.8113  -15.6185  -49.9599 S.3       23 UNK        -0.2404 
      8 C8          0.1344  -16.7109  -51.2591 C.3       23 UNK        -0.0205 
      9 C9          0.6432  -18.1560  -51.2647 C.ar      23 UNK        -0.0193 
     10 C10        -0.1310  -19.1278  -51.9062 C.ar      23 UNK        -0.1150 
     11 C11         0.3231  -20.4430  -52.0380 C.ar      23 UNK        -0.0193 
     12 C12         1.5525  -20.8009  -51.4820 C.ar      23 UNK        -0.1150 
     13 C13         2.3316  -19.8532  -50.8154 C.ar      23 UNK        -0.0193 
     14 C14         1.8764  -18.5329  -50.7140 C.ar      23 UNK        -0.1150 
     15 C15         3.6917  -20.2426  -50.2567 C.3       23 UNK        -0.0205 
     16 S16         3.5979  -20.7790  -48.5213 S.3       23 UNK        -0.2404 
     17 C17         3.2148  -22.5671  -48.6462 C.3       23 UNK        -0.0398 
     18 CA          2.0345  -23.0359  -47.7538 C.3       11 UNK         0.1400 
     19 N           2.1506  -22.5398  -46.3752 N.am      11 UNK        -0.5000 
     20 C           1.3272  -22.8042  -45.3530 C.2       10 UNK         0.5000 
     21 O           0.3502  -23.5463  -45.4467 O.2       10 UNK        -0.5000 
     22 CA          1.5883  -22.0767  -44.0193 C.3       10 UNK         0.1400 
     23 CB          2.5781  -22.8537  -43.1328 C.3       10 UNK        -0.1800 
     24 N           1.9704  -20.6655  -44.1693 N.am      10 UNK        -0.5000 
     25 C           3.1044  -20.1397  -44.6527 C.2       9 UNK         0.5000 
     26 O           4.0608  -20.8121  -45.0370 O.2       9 UNK        -0.5000 
     27 CA          3.1748  -18.6090  -44.7448 C.3       9 UNK         0.1400 
     28 CB          2.3797  -18.0855  -45.9525 C.3       9 UNK        -0.1800 
     29 N           2.6836  -17.9661  -43.5249 N.am      9 UNK        -0.5000 
     30 C           3.3059  -16.9546  -42.9052 C.2       8 UNK         0.5000 
     31 O           4.3728  -16.4727  -43.2882 O.2       8 UNK        -0.5000 
     32 CA          2.6369  -16.3594  -41.6527 C.3       8 UNK         0.1400 
     33 CB          1.8697  -15.0768  -42.0055 C.3       8 UNK        -0.1800 
     34 N           1.7219  -17.2724  -40.9718 N.am      8 UNK        -0.5000 
     35 C           2.1000  -18.2824  -40.1783 C.2       7 UNK         0.5000 
     36 O           3.2714  -18.6260  -40.0176 O.2       7 UNK        -0.5000 
     37 CA          0.9815  -19.0185  -39.4246 C.3       7 UNK         0.1400 
     38 CB          0.5653  -18.2217  -38.1777 C.3       7 UNK        -0.1800 
     39 N          -0.1904  -19.2102  -40.2766 N.am      7 UNK        -0.5000 
     40 C          -0.5386  -20.3744  -40.8371 C.2       6 UNK         0.5000 
     41 O           0.0723  -21.4294  -40.6657 O.2       6 UNK        -0.5000 
     42 CA         -1.7732  -20.3681  -41.7591 C.3       6 UNK         0.1400 
     43 CB         -3.0291  -20.8008  -40.9886 C.3       6 UNK        -0.1800 
     44 N          -2.0305  -19.0825  -42.4128 N.am      6 UNK        -0.5000 
     45 C          -1.2188  -18.5177  -43.3151 C.2       5 UNK         0.5000 
     46 O          -0.1583  -19.0183  -43.6844 O.2       5 UNK        -0.5000 
     47 CA         -1.6327  -17.1522  -43.8854 C.3       5 UNK         0.1400 
     48 CB         -2.5739  -17.3495  -45.0827 C.3       5 UNK        -0.1800 
     49 N          -2.2570  -16.2162  -42.9483 N.am      5 UNK        -0.5000 
     50 C          -1.8501  -15.8915  -41.7149 C.2       4 UNK         0.5000 
     51 O          -0.9735  -16.4957  -41.0937 O.2       4 UNK        -0.5000 
     52 CA         -2.5075  -14.6363  -41.1078 C.3       4 UNK         0.1400 
     53 CB         -2.1845  -14.4739  -39.6117 C.3       4 UNK        -0.1800 
     54 N          -2.0757  -13.4278  -41.8156 N.am      4 UNK        -0.5000 
     55 C          -2.4817  -13.0375  -43.0325 C.2       3 UNK         0.5000 
     56 O          -3.3409  -13.6429  -43.6787 O.2       3 UNK        -0.5000 
     57 CA         -1.8339  -11.7685  -43.6244 C.3       3 UNK         0.1400 
     58 CB         -0.5352  -11.3423  -42.9084 C.3       3 UNK        -0.1800 
     59 N          -1.5358  -11.9801  -45.0399 N.am      3 UNK        -0.5000 
     60 C          -2.2388  -11.4841  -46.0686 C.2       2 UNK         0.5000 
     61 O          -3.2272  -10.7613  -45.9320 O.2       2 UNK        -0.5000 
     62 CA         -1.7550  -11.8204  -47.4973 C.3       2 UNK         0.1400 
     63 CB         -1.0531  -10.6056  -48.1249 C.3       2 UNK        -0.1800 
     64 N          -0.8395  -12.9604  -47.5424 N.am      2 UNK        -0.5000 
     65 C          -1.2140  -14.2439  -47.4597 C.2       1 UNK         0.5000 
     66 O          -2.3895  -14.6066  -47.4737 O.2       1 UNK        -0.5000 
     67 C           0.6696  -22.7143  -48.3972 C.2       11 UNK         0.5000 
     68 O           0.0807  -23.5742  -49.0530 O.2       11 UNK        -0.5000 
     69 N           0.1693  -21.5001  -48.1422 N.am      12 UNK        -0.5000 
     70 CA         -1.1361  -21.0195  -48.5849 C.3       12 UNK         0.1400 
     71 CB         -1.2421  -19.5295  -48.2567 C.3       12 UNK        -0.1800 
     72 C          -2.3161  -21.7813  -47.9659 C.2       12 UNK         0.5000 
     73 O          -3.3039  -22.0236  -48.6583 O.2       12 UNK        -0.5000 
     74 N          -2.1898  -22.1479  -46.6843 N.am      13 UNK        -0.5000 
     75 CA         -3.1914  -22.9167  -45.9475 C.3       13 UNK         0.1400 
     76 CB         -3.0038  -22.6951  -44.4412 C.3       13 UNK        -0.1800 
     77 C          -3.1412  -24.4117  -46.3009 C.2       13 UNK         0.5000 
     78 O          -4.1931  -25.0452  -46.3788 O.2       13 UNK        -0.5000 
     79 N          -1.9326  -24.9363  -46.5504 N.am      14 UNK        -0.5000 
     80 CA         -1.6945  -26.3006  -47.0248 C.3       14 UNK         0.1400 
     81 CB         -0.1891  -26.6035  -46.9834 C.3       14 UNK        -0.1800 
     82 C          -2.2664  -26.5361  -48.4353 C.2       14 UNK         0.5000 
     83 O          -2.8930  -27.5693  -48.6733 O.2       14 UNK        -0.5000 
     84 N          -2.0761  -25.5562  -49.3303 N.am      15 UNK        -0.5000 
     85 CA         -2.6797  -25.5253  -50.6643 C.3       15 UNK         0.1400 
     86 CB         -1.9324  -24.4933  -51.5223 C.3       15 UNK        -0.1800 
     87 C          -4.1850  -25.1922  -50.6367 C.2       15 UNK         0.5000 
     88 O          -4.8951  -25.5455  -51.5783 O.2       15 UNK        -0.5000 
     89 N          -4.6254  -24.5020  -49.5732 N.am      16 UNK        -0.5000 
     90 CA         -5.9515  -23.9124  -49.3612 C.3       16 UNK         0.1400 
     91 CB         -7.0247  -25.0090  -49.2048 C.3       16 UNK        -0.1800 
     92 C          -6.2819  -22.8752  -50.4542 C.2       16 UNK         0.5000 
     93 O          -7.3607  -22.9142  -51.0495 O.2       16 UNK        -0.5000 
     94 N          -5.3113  -21.9947  -50.7296 N.am      17 UNK        -0.5000 
     95 CA         -5.2960  -21.1184  -51.8953 C.3       17 UNK         0.1400 
     96 CB         -4.8201  -21.9115  -53.1256 C.3       17 UNK        -0.1800 
     97 C          -4.4404  -19.8708  -51.6324 C.2       17 UNK         0.5000 
     98 O          -3.5165  -19.5798  -52.3931 O.2       17 UNK        -0.5000 
     99 N          -4.7853  -19.1161  -50.5802 N.am      18 UNK        -0.5000 
    100 CA        -4.1414  -17.8466  -50.2072 C.3       18 UNK         0.1400 
    101 CB        -4.6990  -17.3794  -48.8542 C.3       18 UNK        -0.1800 
    102 C         -4.2494  -16.7267  -51.2677 C.2       18 UNK         0.5000 
    103 O         -3.4896  -15.7610  -51.2082 O.2       18 UNK        -0.5000 
    104 N         -5.1511  -16.8971  -52.2446 N.am      19 UNK        -0.5000 
    105 CA        -5.2704  -16.0790  -53.4538 C.3       19 UNK         0.1400 
    106 CB        -6.6365  -16.3683  -54.0977 C.3       19 UNK        -0.1800 
    107 C         -4.1324  -16.3013  -54.4789 C.2       19 UNK         0.5000 
    108 O         -4.0868  -15.5815  -55.4767 O.2       19 UNK        -0.5000 
    109 N         -3.2569  -17.2903  -54.2342 N.am      20 UNK        -0.5000 
    110 CA        -2.1162  -17.7083  -55.0591 C.3       20 UNK         0.1400 
    111 CB        -1.1332  -16.5500  -55.3287 C.3       20 UNK        -0.1800 
    112 C         -2.5222  -18.4805  -56.3297 C.2       20 UNK         0.5000 
    113 O         -1.7337  -18.5810  -57.2706 O.2       20 UNK        -0.5000 
    114 N         -3.7233  -19.0707  -56.3105 N.am      21 UNK        -0.5000 
    115 CA        -4.2266  -20.0127  -57.3094 C.3       21 UNK         0.1400 
    116 CB        -5.7218  -19.7288  -57.5419 C.3       21 UNK        -0.1800 
    117 C         -3.9582  -21.4491  -56.8184 C.2       21 UNK         0.5000 
    118 O         -4.8944  -22.2257  -56.6245 O.2       21 UNK        -0.5000 
    119 N         -2.6797  -21.7457  -56.5526 N.am      22 UNK        -0.5000 
    120 CA        -2.2084  -22.9439  -55.8345 C.3       22 UNK         0.1400 
    121 C         -2.3872  -24.2994  -56.5814 C.2       22 UNK         0.5000 
    122 N         -2.7016  -24.3156  -57.8706 N.am      22 UNK        -0.7600 
    123 O         -2.2349  -25.3572  -55.9772 O.2       22 UNK        -0.5000 
    124 C124       -0.7434  -22.7938  -55.3390 C.3       23 UNK        -0.0398 
    125 S125       -0.3389  -21.1682  -54.6056 S.3       23 UNK        -0.2404 
    126 C126       -0.4880  -21.4674  -52.8170 C.3       23 UNK        -0.0205 
    127 H127        3.5165  -13.7334  -46.4822 H         1 UNK         0.0600 
    128 H128        3.4239  -14.2719  -44.8034 H         1 UNK         0.0600 
    129 H129        2.9400  -12.6274  -45.2318 H         1 UNK         0.0600 
    130 H130        1.9326  -14.8486  -47.6318 H         1 UNK         0.3000 
    131 H131       -0.4124  -15.8967  -46.4284 H         1 UNK         0.0600 
    132 H132        0.5575  -17.1629  -48.1646 H         1 UNK         0.0800 
    133 H133       -1.0052  -16.6440  -48.7420 H         1 UNK         0.0800 
    134 H134        0.3792  -16.2703  -52.2260 H         1 UNK         0.0800 
    135 H135       -0.9537  -16.7006  -51.1895 H         1 UNK         0.0800 
    136 H136       -1.0801  -18.8514  -52.3374 H         1 UNK         0.1150 
    137 H137        1.9132  -21.8141  -51.5871 H         1 UNK         0.1150 
    138 H138        2.5008  -17.7995  -50.2251 H         1 UNK         0.1150 
    139 H139        4.1506  -21.0227  -50.8660 H         1 UNK         0.0800 
    140 H140        4.3646  -19.3859  -50.3153 H         1 UNK         0.0800 
    141 H141        4.1157  -23.1033  -48.3454 H         1 UNK         0.0800 
    142 H142        3.0499  -22.8484  -49.6874 H         1 UNK         0.0800 
    143 H143        2.0896  -24.1244  -47.6918 H         1 UNK         0.0600 
    144 H144        2.9343  -21.9205  -46.1900 H         1 UNK         0.3000 
    145 H145        0.6338  -22.0579  -43.4912 H         1 UNK         0.0600 
    146 H146        2.2071  -23.8591  -42.9304 H         1 UNK         0.0600 
    147 H147        2.7143  -22.3585  -42.1712 H         1 UNK         0.0600 
    148 H148        3.5569  -22.9580  -43.6010 H         1 UNK         0.0600 
    149 H149        1.2128  -20.0164  -43.9569 H         1 UNK         0.3000 
    150 H150        4.2265  -18.3620  -44.9049 H         1 UNK         0.0600 
    151 H151        2.7018  -18.5627  -46.8770 H         1 UNK         0.0600 
    152 H152        2.5343  -17.0154  -46.0770 H         1 UNK         0.0600 
    153 H153        1.3090  -18.2601  -45.8454 H         1 UNK         0.0600 
    154 H154        1.8118  -18.3122  -43.1452 H         1 UNK         0.3000 
    155 H155        3.4338  -16.0913  -40.9558 H         1 UNK         0.0600 
    156 H156        1.0434  -15.2848  -42.6848 H         1 UNK         0.0600 
    157 H157        2.5192  -14.3460  -42.4880 H         1 UNK         0.0600 
    158 H158        1.4562  -14.6048  -41.1142 H         1 UNK         0.0600 
    159 H159        0.7337  -17.0350  -41.0262 H         1 UNK         0.3000 
    160 H160        1.3797  -19.9793  -39.0919 H         1 UNK         0.0600 
    161 H161        0.1514  -17.2468  -38.4398 H         1 UNK         0.0600 
    162 H162        1.4182  -18.0516  -37.5193 H         1 UNK         0.0600 
    163 H163       -0.1878  -18.7599  -37.6021 H         1 UNK         0.0600 
    164 H164       -0.7214  -18.3773  -40.5091 H         1 UNK         0.3000 
    165 H165       -1.5795  -21.1048  -42.5391 H         1 UNK         0.0600 
    166 H166       -3.8872  -20.8960  -41.6542 H         1 UNK         0.0600 
    167 H167       -2.8807  -21.7708  -40.5120 H         1 UNK         0.0600 
    168 H168       -3.2863  -20.0858  -40.2063 H         1 UNK         0.0600 
    169 H169       -2.8715  -18.5918  -42.1465 H         1 UNK         0.3000 
    170 H170       -0.7202  -16.6682  -44.2377 H         1 UNK         0.0600 
    171 H171       -2.1122  -17.9692  -45.8497 H         1 UNK         0.0600 
    172 H172       -3.5052  -17.8336  -44.7860 H         1 UNK         0.0600 
    173 H173       -2.8307  -16.3974  -45.5458 H         1 UNK         0.0600 
    174 H174       -2.9413  -15.5896  -43.3600 H         1 UNK         0.3000 
    175 H175       -3.5896  -14.7424  -41.2096 H         1 UNK         0.0600 
    176 H176       -1.1158  -14.3372  -39.4408 H         1 UNK         0.0600 
    177 H177       -2.7043  -13.6148  -39.1873 H         1 UNK         0.0600 
    178 H178       -2.4970  -15.3533  -39.0471 H         1 UNK         0.0600 
    179 H179       -1.3492  -12.8907  -41.3654 H         1 UNK         0.3000 
    180 H180       -2.5585  -10.9607  -43.5062 H         1 UNK         0.0600 
    181 H181        0.2105  -12.1386  -42.9078 H         1 UNK         0.0600 
    182 H182       -0.7249  -11.0568  -41.8731 H         1 UNK         0.0600 
    183 H183       -0.0889  -10.4758  -43.3968 H         1 UNK         0.0600 
    184 H184       -0.7735  -12.6240  -45.2263 H         1 UNK         0.3000 
    185 H185       -2.6370  -12.0521  -48.0981 H         1 UNK         0.0600 
    186 H186       -1.7145   -9.7384  -48.1443 H         1 UNK         0.0600 
    187 H187       -0.1594  -10.3243  -47.5665 H         1 UNK         0.0600 
    188 H188       -0.7570  -10.8093  -49.1541 H         1 UNK         0.0600 
    189 H189        0.1480  -12.7519  -47.5306 H         1 UNK         0.3000 
    190 H190        0.7382  -20.8577  -47.6118 H         1 UNK         0.3000 
    191 H191       -1.2041  -21.1438  -49.6673 H         1 UNK         0.0600 
    192 H192       -2.2712  -19.1769  -48.3077 H         1 UNK         0.0600 
    193 H193       -0.6600  -18.9559  -48.9721 H         1 UNK         0.0600 
    194 H194       -0.8685  -19.3078  -47.2571 H         1 UNK         0.0600 
    195 H195       -1.3219  -21.9555  -46.2066 H         1 UNK         0.3000 
    196 H196       -4.1833  -22.5469  -46.2173 H         1 UNK         0.0600 
    197 H197       -2.0119  -23.0000  -44.1063 H         1 UNK         0.0600 
    198 H198       -3.1436  -21.6444  -44.1884 H         1 UNK         0.0600 
    199 H199       -3.7348  -23.2659  -43.8672 H         1 UNK         0.0600 
    200 H200       -1.1105  -24.3619  -46.3870 H         1 UNK         0.3000 
    201 H201       -2.1985  -26.9859  -46.3401 H         1 UNK         0.0600 
    202 H202        0.2104  -26.4799  -45.9766 H         1 UNK         0.0600 
    203 H203        0.3730  -25.9478  -47.6483 H         1 UNK         0.0600 
    204 H204        0.0103  -27.6310  -47.2900 H         1 UNK         0.0600 
    205 H205       -1.4768  -24.7734  -49.0838 H         1 UNK         0.3000 
    206 H206       -2.5611  -26.5079  -51.1257 H         1 UNK         0.0600 
    207 H207       -0.8723  -24.7363  -51.5964 H         1 UNK         0.0600 
    208 H208       -2.3315  -24.4616  -52.5371 H         1 UNK         0.0600 
    209 H209       -2.0183  -23.4906  -51.1013 H         1 UNK         0.0600 
    210 H210       -3.9344  -24.2395  -48.8846 H         1 UNK         0.3000 
    211 H211       -5.8988  -23.3643  -48.4194 H         1 UNK         0.0600 
    212 H212       -7.9883  -24.5749  -48.9362 H         1 UNK         0.0600 
    213 H213       -6.7538  -25.7117  -48.4166 H         1 UNK         0.0600 
    214 H214       -7.1668  -25.5756  -50.1254 H         1 UNK         0.0600 
    215 H215       -4.4806  -21.9889  -50.1406 H         1 UNK         0.3000 
    216 H216       -6.3081  -20.7587  -52.0915 H         1 UNK         0.0600 
    217 H217       -3.8248  -22.3248  -52.9651 H         1 UNK         0.0600 
    218 H218       -4.7797  -21.2741  -54.0081 H         1 UNK         0.0600 
    219 H219       -5.4921  -22.7385  -53.3554 H         1 UNK         0.0600 
    220 H220       -5.5532  -19.4210  -49.9991 H         1 UNK         0.3000 
    221 H221       -3.0749  -18.0434  -50.0909 H         1 UNK         0.0600 
    222 H222       -4.5392  -18.1284  -48.0784 H         1 UNK         0.0600 
    223 H223       -5.7688  -17.1757  -48.9103 H         1 UNK         0.0600 
    224 H224       -4.2072  -16.4636  -48.5234 H         1 UNK         0.0600 
    225 H225       -5.7448  -17.7111  -52.1965 H         1 UNK         0.3000 
    226 H226       -5.2431  -15.0273  -53.1617 H         1 UNK         0.0600 
    227 H227       -6.7198  -17.4084  -54.4157 H         1 UNK         0.0600 
    228 H228       -7.4519  -16.1619  -53.4041 H         1 UNK         0.0600 
    229 H229       -6.7969  -15.7433  -54.9772 H         1 UNK         0.0600 
    230 H230       -3.4081  -17.8643  -53.4106 H         1 UNK         0.3000 
    231 H231       -1.5795  -18.4372  -54.4552 H         1 UNK         0.0600 
    232 H232       -1.5379  -15.8274  -56.0374 H         1 UNK         0.0600 
    233 H233       -0.1985  -16.9247  -55.7473 H         1 UNK         0.0600 
    234 H234       -0.8861  -16.0197  -54.4094 H         1 UNK         0.0600 
    235 H235       -4.2814  -18.9652  -55.4765 H         1 UNK         0.3000 
    236 H236       -3.7052  -19.8815  -58.2598 H         1 UNK         0.0600 
    237 H237       -5.8766  -18.7104  -57.8988 H         1 UNK         0.0600 
    238 H238       -6.1353  -20.4023  -58.2936 H         1 UNK         0.0600 
    239 H239       -6.3049  -19.8547  -56.6287 H         1 UNK         0.0600 
    240 H240       -1.9769  -21.0421  -56.7326 H         1 UNK         0.3000 
    241 H241       -2.8329  -23.0267  -54.9450 H         1 UNK         0.0600 
    242 H242       -2.8178  -25.1981  -58.3437 H         1 UNK         0.3800 
    243 H243       -2.8407  -23.4540  -58.3738 H         1 UNK         0.3800 
    244 H244       -0.0563  -22.9355  -56.1752 H         1 UNK         0.0800 
    245 H245       -0.5028  -23.5820  -54.6236 H         1 UNK         0.0800 
    246 H246       -1.5366  -21.4171  -52.5232 H         1 UNK         0.0800 
    247 H247       -0.1407  -22.4732  -52.5793 H         1 UNK         0.0800 
@<TRIPOS>BOND
     1    1    2 1    
     2    1  127 1    
     3    1  128 1    
     4    1  129 1    
     5    2    3 2    
     6    2    4 am   BACKBONE|DICT|INTERRES
     7    4    5 1    
     8    4  130 1    
     9    5    6 1    
    10    5   65 1    
    11    5  131 1    
    12    6    7 1    
    13    6  132 1    
    14    6  133 1    
    15    7    8 1    
    16    8    9 1    
    17    8  134 1    
    18    8  135 1    
    19    9   10 ar   
    20    9   14 ar   
    21   10   11 ar   
    22   10  136 1    
    23   11   12 ar   
    24   11  126 1    
    25   12   13 ar   
    26   12  137 1    
    27   13   14 ar   
    28   13   15 1    
    29   14  138 1    
    30   15   16 1    
    31   15  139 1    
    32   15  140 1    
    33   16   17 1    
    34   17   18 1    
    35   17  141 1    
    36   17  142 1    
    37   18   19 1    
    38   18   67 1    
    39   18  143 1    
    40   19   20 am   BACKBONE|DICT|INTERRES
    41   19  144 1    
    42   20   21 2    
    43   20   22 1    
    44   22   23 1    
    45   22   24 1    
    46   22  145 1    
    47   23  146 1    
    48   23  147 1    
    49   23  148 1    
    50   24   25 am   BACKBONE|DICT|INTERRES
    51   24  149 1    
    52   25   26 2    
    53   25   27 1    
    54   27   28 1    
    55   27   29 1    
    56   27  150 1    
    57   28  151 1    
    58   28  152 1    
    59   28  153 1    
    60   29   30 am   BACKBONE|DICT|INTERRES
    61   29  154 1    
    62   30   31 2    
    63   30   32 1    
    64   32   33 1    
    65   32   34 1    
    66   32  155 1    
    67   33  156 1    
    68   33  157 1    
    69   33  158 1    
    70   34   35 am   BACKBONE|DICT|INTERRES
    71   34  159 1    
    72   35   36 2    
    73   35   37 1    
    74   37   38 1    
    75   37   39 1    
    76   37  160 1    
    77   38  161 1    
    78   38  162 1    
    79   38  163 1    
    80   39   40 am   BACKBONE|DICT|INTERRES
    81   39  164 1    
    82   40   41 2    
    83   40   42 1    
    84   42   43 1    
    85   42   44 1    
    86   42  165 1    
    87   43  166 1    
    88   43  167 1    
    89   43  168 1    
    90   44   45 am   BACKBONE|DICT|INTERRES
    91   44  169 1    
    92   45   46 2    
    93   45   47 1    
    94   47   48 1    
    95   47   49 1    
    96   47  170 1    
    97   48  171 1    
    98   48  172 1    
    99   48  173 1    
   100   49   50 am   BACKBONE|DICT|INTERRES
   101   49  174 1    
   102   50   51 2    
   103   50   52 1    
   104   52   53 1    
   105   52   54 1    
   106   52  175 1    
   107   53  176 1    
   108   53  177 1    
   109   53  178 1    
   110   54   55 am   BACKBONE|DICT|INTERRES
   111   54  179 1    
   112   55   56 2    
   113   55   57 1    
   114   57   58 1    
   115   57   59 1    
   116   57  180 1    
   117   58  181 1    
   118   58  182 1    
   119   58  183 1    
   120   59   60 am   BACKBONE|DICT|INTERRES
   121   59  184 1    
   122   60   61 2    
   123   60   62 1    
   124   62   63 1    
   125   62   64 1    
   126   62  185 1    
   127   63  186 1    
   128   63  187 1    
   129   63  188 1    
   130   64   65 am   BACKBONE|DICT|INTERRES
   131   64  189 1    
   132   65   66 2    
   133   67   68 2    
   134   67   69 am   BACKBONE|DICT|INTERRES
   135   69   70 1    
   136   69  190 1    
   137   70   71 1    
   138   70   72 1    
   139   70  191 1    
   140   71  192 1    
   141   71  193 1    
   142   71  194 1    
   143   72   73 2    
   144   72   74 am   BACKBONE|DICT|INTERRES
   145   74   75 1    
   146   74  195 1    
   147   75   76 1    
   148   75   77 1    
   149   75  196 1    
   150   76  197 1    
   151   76  198 1    
   152   76  199 1    
   153   77   78 2    
   154   77   79 am   BACKBONE|DICT|INTERRES
   155   79   80 1    
   156   79  200 1    
   157   80   81 1    
   158   80   82 1    
   159   80  201 1    
   160   81  202 1    
   161   81  203 1    
   162   81  204 1    
   163   82   83 2    
   164   82   84 am   BACKBONE|DICT|INTERRES
   165   84   85 1    
   166   84  205 1    
   167   85   86 1    
   168   85   87 1    
   169   85  206 1    
   170   86  207 1    
   171   86  208 1    
   172   86  209 1    
   173   87   88 2    
   174   87   89 am   BACKBONE|DICT|INTERRES
   175   89   90 1    
   176   89  210 1    
   177   90   91 1    
   178   90   92 1    
   179   90  211 1    
   180   91  212 1    
   181   91  213 1    
   182   91  214 1    
   183   92   93 2    
   184   92   94 am   BACKBONE|DICT|INTERRES
   185   94   95 1    
   186   94  215 1    
   187   95   96 1    
   188   95   97 1    
   189   95  216 1    
   190   96  217 1    
   191   96  218 1    
   192   96  219 1    
   193   97   98 2    
   194   97   99 am   BACKBONE|DICT|INTERRES
   195   99  100 1    
   196   99  220 1    
   197  100  101 1    
   198  100  102 1    
   199  100  221 1    
   200  101  222 1    
   201  101  223 1    
   202  101  224 1    
   203  102  103 2    
   204  102  104 am   BACKBONE|DICT|INTERRES
   205  104  105 1    
   206  104  225 1    
   207  105  106 1    
   208  105  107 1    
   209  105  226 1    
   210  106  227 1    
   211  106  228 1    
   212  106  229 1    
   213  107  108 2    
   214  107  109 am   BACKBONE|DICT|INTERRES
   215  109  110 1    
   216  109  230 1    
   217  110  111 1    
   218  110  112 1    
   219  110  231 1    
   220  111  232 1    
   221  111  233 1    
   222  111  234 1    
   223  112  113 2    
   224  112  114 am   BACKBONE|DICT|INTERRES
   225  114  115 1    
   226  114  235 1    
   227  115  116 1    
   228  115  117 1    
   229  115  236 1    
   230  116  237 1    
   231  116  238 1    
   232  116  239 1    
   233  117  118 2    
   234  117  119 am   BACKBONE|DICT|INTERRES
   235  119  120 1    
   236  119  240 1    
   237  120  121 1    
   238  120  124 1    
   239  120  241 1    
   240  121  122 am   BACKBONE|DICT|INTERRES
   241  121  123 2    
   242  122  242 1    
   243  122  243 1    
   244  124  125 1    
   245  124  244 1    
   246  124  245 1    
   247  125  126 1    
   248  126  246 1    
   249  126  247 1    
@<TRIPOS>SUBSTRUCTURE
     1 UNK         1 GROUP             0       ****    0 ROOT    
