@<TRIPOS>MOLECULE
3R540
247   249    1
SMALL
USER_CHARGES


@<TRIPOS>ATOM
      1 CA         -2.4672  -14.4080  -47.6045 C.3       0 UNK        -0.1800 
      2 C          -1.2574  -14.2944  -48.5213 C.2       0 UNK         0.5000 
      3 O          -0.1278  -14.4374  -48.0559 O.2       0 UNK        -0.5000 
      4 N          -1.4978  -14.0122  -49.8106 N.am      1 UNK        -0.5000 
      5 CA         -0.4928  -13.7020  -50.8373 C.3       1 UNK         0.1400 
      6 C6          0.4465  -14.8875  -51.1960 C.3       23 UNK        -0.0398 
      7 S7         -0.4389  -16.2139  -52.0851 S.3       23 UNK        -0.2404 
      8 C8          0.1431  -17.7139  -51.2302 C.3       23 UNK        -0.0205 
      9 C9         -0.4475  -17.8537  -49.8354 C.ar      23 UNK        -0.0193 
     10 C10        -1.8282  -17.9875  -49.6641 C.ar      23 UNK        -0.1150 
     11 C11        -2.3925  -18.0758  -48.3854 C.ar      23 UNK        -0.0193 
     12 C12        -1.5396  -18.1031  -47.2790 C.ar      23 UNK        -0.1150 
     13 C13        -0.1521  -18.0548  -47.4418 C.ar      23 UNK        -0.0193 
     14 C14         0.3882  -17.8951  -48.7185 C.ar      23 UNK        -0.1150 
     15 C15         0.7635  -18.2579  -46.2465 C.3       23 UNK        -0.0205 
     16 S16         1.3619  -19.9824  -46.1377 S.3       23 UNK        -0.2404 
     17 C17        -0.1751  -20.9333  -46.3980 C.3       23 UNK        -0.0398 
     18 CA         -0.0084  -22.4579  -46.2334 C.3       11 UNK         0.1400 
     19 N           0.4513  -22.8402  -44.8949 N.am      11 UNK        -0.5000 
     20 C           0.8026  -24.0846  -44.5415 C.2       10 UNK         0.5000 
     21 O           0.8477  -25.0300  -45.3270 O.2       10 UNK        -0.5000 
     22 CA          1.0856  -24.3293  -43.0507 C.3       10 UNK         0.1400 
     23 CB          2.5435  -23.9958  -42.6995 C.3       10 UNK        -0.1800 
     24 N           0.1721  -23.5618  -42.2033 N.am      10 UNK        -0.5000 
     25 C          -1.1252  -23.8619  -42.0410 C.2       9 UNK         0.5000 
     26 O          -1.6624  -24.8467  -42.5484 O.2       9 UNK        -0.5000 
     27 CA         -1.9742  -22.8795  -41.2101 C.3       9 UNK         0.1400 
     28 CB         -1.8753  -23.2131  -39.7144 C.3       9 UNK        -0.1800 
     29 N          -1.5961  -21.4806  -41.4195 N.am      9 UNK        -0.5000 
     30 C          -1.7416  -20.8195  -42.5766 C.2       8 UNK         0.5000 
     31 O          -2.2780  -21.3042  -43.5714 O.2       8 UNK        -0.5000 
     32 CA         -1.1359  -19.4041  -42.6611 C.3       8 UNK         0.1400 
     33 CB         -2.1899  -18.3364  -42.3383 C.3       8 UNK        -0.1800 
     34 N           0.0372  -19.2033  -41.8058 N.am      8 UNK        -0.5000 
     35 C           1.1707  -19.9126  -41.8694 C.2       7 UNK         0.5000 
     36 O           1.3415  -20.8376  -42.6649 O.2       7 UNK        -0.5000 
     37 CA          2.2728  -19.5394  -40.8570 C.3       7 UNK         0.1400 
     38 CB          3.4062  -20.5803  -40.8159 C.3       7 UNK        -0.1800 
     39 N           2.8537  -18.2260  -41.1307 N.am      7 UNK        -0.5000 
     40 C           2.2735  -17.0413  -40.9000 C.2       6 UNK         0.5000 
     41 O           1.1489  -16.9180  -40.4095 O.2       6 UNK        -0.5000 
     42 CA          3.0763  -15.7744  -41.2652 C.3       6 UNK         0.1400 
     43 CB          4.5743  -16.0308  -41.5482 C.3       6 UNK        -0.1800 
     44 N           2.4689  -15.0363  -42.3757 N.am      6 UNK        -0.5000 
     45 C           2.2218  -15.4910  -43.6148 C.2       5 UNK         0.5000 
     46 O           2.4538  -16.6404  -43.9862 O.2       5 UNK        -0.5000 
     47 CA          1.6449  -14.4727  -44.6198 C.3       5 UNK         0.1400 
     48 CB          0.1092  -14.4816  -44.5680 C.3       5 UNK        -0.1800 
     49 N           2.1294  -13.1054  -44.3965 N.am      5 UNK        -0.5000 
     50 C           3.4063  -12.7157  -44.5296 C.2       4 UNK         0.5000 
     51 O           4.3133  -13.4610  -44.9053 O.2       4 UNK        -0.5000 
     52 CA          3.7033  -11.2459  -44.1659 C.3       4 UNK         0.1400 
     53 CB          5.1772  -10.8464  -44.3935 C.3       4 UNK        -0.1800 
     54 N           2.7968  -10.2981  -44.8251 N.am      4 UNK        -0.5000 
     55 C           2.6591  -10.0929  -46.1434 C.2       3 UNK         0.5000 
     56 O           3.2896  -10.6991  -47.0130 O.2       3 UNK        -0.5000 
     57 CA          1.6855   -8.9665  -46.5404 C.3       3 UNK         0.1400 
     58 CB          2.3734   -7.5967  -46.4214 C.3       3 UNK        -0.1800 
     59 N           1.1817   -9.1152  -47.9052 N.am      3 UNK        -0.5000 
     60 C           0.2917  -10.0340  -48.2983 C.2       2 UNK         0.5000 
     61 O          -0.2417  -10.8347  -47.5263 O.2       2 UNK        -0.5000 
     62 CA         -0.1303  -10.0083  -49.7840 C.3       2 UNK         0.1400 
     63 CB          0.8965   -9.3422  -50.7296 C.3       2 UNK        -0.1800 
     64 N          -0.5259  -11.3353  -50.2641 N.am      2 UNK        -0.5000 
     65 C           0.2600  -12.4041  -50.4671 C.2       1 UNK         0.5000 
     66 O           1.4880  -12.3958  -50.3627 O.2       1 UNK        -0.5000 
     67 C          -1.3222  -23.1757  -46.6143 C.2       11 UNK         0.5000 
     68 O          -1.4482  -23.6602  -47.7395 O.2       11 UNK        -0.5000 
     69 N          -2.2649  -23.2616  -45.6646 N.am      12 UNK        -0.5000 
     70 CA         -3.5243  -23.9913  -45.8084 C.3       12 UNK         0.1400 
     71 CB         -4.4381  -23.6964  -44.6102 C.3       12 UNK        -0.1800 
     72 C          -3.3098  -25.5054  -45.9826 C.2       12 UNK         0.5000 
     73 O          -3.9426  -26.1049  -46.8514 O.2       12 UNK        -0.5000 
     74 N          -2.3837  -26.0860  -45.2046 N.am      13 UNK        -0.5000 
     75 CA         -1.9608  -27.4859  -45.3204 C.3       13 UNK         0.1400 
     76 CB         -1.0456  -27.8469  -44.1411 C.3       13 UNK        -0.1800 
     77 C          -1.2735  -27.8003  -46.6655 C.2       13 UNK         0.5000 
     78 O          -1.4650  -28.8895  -47.2066 O.2       13 UNK        -0.5000 
     79 N          -0.5267  -26.8254  -47.2016 N.am      14 UNK        -0.5000 
     80 CA          0.0885  -26.8559  -48.5312 C.3       14 UNK         0.1400 
     81 CB          1.2441  -25.8421  -48.5648 C.3       14 UNK        -0.1800 
     82 C          -0.9067  -26.5910  -49.6839 C.2       14 UNK         0.5000 
     83 O          -0.5066  -26.6726  -50.8459 O.2       14 UNK        -0.5000 
     84 N          -2.1700  -26.2834  -49.3524 N.am      15 UNK        -0.5000 
     85 CA         -3.2928  -25.9993  -50.2490 C.3       15 UNK         0.1400 
     86 CB         -3.6368  -27.2238  -51.1226 C.3       15 UNK        -0.1800 
     87 C          -3.1158  -24.7050  -51.0668 C.2       15 UNK         0.5000 
     88 O          -3.5881  -24.6264  -52.2035 O.2       15 UNK        -0.5000 
     89 N          -2.4897  -23.6804  -50.4669 N.am      16 UNK        -0.5000 
     90 CA         -2.2867  -22.3603  -51.0772 C.3       16 UNK         0.1400 
     91 CB         -1.4462  -21.4843  -50.1419 C.3       16 UNK        -0.1800 
     92 C          -3.6025  -21.6461  -51.4467 C.2       16 UNK         0.5000 
     93 O          -3.6472  -20.9256  -52.4439 O.2       16 UNK        -0.5000 
     94 N          -4.6678  -21.9224  -50.6828 N.am      17 UNK        -0.5000 
     95 CA         -6.0340  -21.4616  -50.9347 C.3       17 UNK         0.1400 
     96 CB         -6.8966  -21.7787  -49.7041 C.3       17 UNK        -0.1800 
     97 C          -6.6714  -22.0396  -52.2149 C.2       17 UNK         0.5000 
     98 O          -7.6324  -21.4550  -52.7147 O.2       17 UNK        -0.5000 
     99 N          -6.1318  -23.1515  -52.7306 N.am      18 UNK        -0.5000 
    100 CA        -6.5123  -23.7328  -54.0157 C.3       18 UNK         0.1400 
    101 CB        -6.6239  -25.2594  -53.8717 C.3       18 UNK        -0.1800 
    102 C         -5.4893  -23.3631  -55.1024 C.2       18 UNK         0.5000 
    103 O         -5.8878  -23.0093  -56.2124 O.2       18 UNK        -0.5000 
    104 N         -4.1937  -23.4646  -54.7717 N.am      19 UNK        -0.5000 
    105 CA        -3.0850  -23.2860  -55.7090 C.3       19 UNK         0.1400 
    106 CB        -1.8036  -23.8664  -55.0910 C.3       19 UNK        -0.1800 
    107 C         -2.8627  -21.8273  -56.1489 C.2       19 UNK         0.5000 
    108 O         -2.6287  -21.5886  -57.3347 O.2       19 UNK        -0.5000 
    109 N         -2.9193  -20.8886  -55.1959 N.am      20 UNK        -0.5000 
    110 CA        -2.6518  -19.4638  -55.4123 C.3       20 UNK         0.1400 
    111 CB        -1.5386  -19.0217  -54.4497 C.3       20 UNK        -0.1800 
    112 C         -3.9021  -18.5944  -55.2002 C.2       20 UNK         0.5000 
    113 O         -3.9732  -17.5012  -55.7616 O.2       20 UNK        -0.5000 
    114 N         -4.8478  -19.0782  -54.3810 N.am      21 UNK        -0.5000 
    115 CA        -6.1052  -18.4311  -53.9786 C.3       21 UNK         0.1400 
    116 CB        -6.9976  -18.1111  -55.1957 C.3       21 UNK        -0.1800 
    117 C         -5.9254  -17.2231  -53.0331 C.2       21 UNK         0.5000 
    118 O         -6.8954  -16.5140  -52.7630 O.2       21 UNK        -0.5000 
    119 N         -4.7053  -17.0402  -52.5125 N.am      22 UNK        -0.5000 
    120 CA        -4.3261  -16.0927  -51.4485 C.3       22 UNK         0.1400 
    121 C         -4.3728  -14.5829  -51.8242 C.2       22 UNK         0.5000 
    122 N         -4.5901  -14.2133  -53.0792 N.am      22 UNK        -0.7600 
    123 O         -4.1460  -13.7305  -50.9690 O.2       22 UNK        -0.5000 
    124 C124       -5.0215  -16.3905  -50.0866 C.3       23 UNK        -0.0398 
    125 S125       -4.9824  -18.1558  -49.6006 S.3       23 UNK        -0.2404 
    126 C126       -3.8984  -18.1760  -48.1312 C.3       23 UNK        -0.0205 
    127 H127       -2.3597  -13.7252  -46.7619 H         1 UNK         0.0600 
    128 H128       -3.3925  -14.1549  -48.1213 H         1 UNK         0.0600 
    129 H129       -2.5537  -15.4195  -47.2119 H         1 UNK         0.0600 
    130 H130       -2.4608  -13.8969  -50.1148 H         1 UNK         0.3000 
    131 H131       -1.0559  -13.4565  -51.7395 H         1 UNK         0.0600 
    132 H132        0.9347  -15.2842  -50.3054 H         1 UNK         0.0800 
    133 H133        1.2493  -14.5548  -51.8559 H         1 UNK         0.0800 
    134 H134        1.2336  -17.7053  -51.1968 H         1 UNK         0.0800 
    135 H135       -0.1349  -18.5882  -51.8182 H         1 UNK         0.0800 
    136 H136       -2.4484  -18.0357  -50.5427 H         1 UNK         0.1150 
    137 H137       -1.9568  -18.2117  -46.2876 H         1 UNK         0.1150 
    138 H138        1.4606  -17.8437  -48.8422 H         1 UNK         0.1150 
    139 H139        1.6219  -17.5904  -46.3292 H         1 UNK         0.0800 
    140 H140        0.2552  -17.9860  -45.3215 H         1 UNK         0.0800 
    141 H141       -0.9434  -20.5519  -45.7259 H         1 UNK         0.0800 
    142 H142       -0.5184  -20.7226  -47.4112 H         1 UNK         0.0800 
    143 H143        0.7536  -22.7874  -46.9428 H         1 UNK         0.0600 
    144 H144        0.5011  -22.1054  -44.1988 H         1 UNK         0.3000 
    145 H145        0.9294  -25.3910  -42.8486 H         1 UNK         0.0600 
    146 H146        2.7972  -22.9633  -42.9385 H         1 UNK         0.0600 
    147 H147        2.7416  -24.1545  -41.6395 H         1 UNK         0.0600 
    148 H148        3.2293  -24.6341  -43.2577 H         1 UNK         0.0600 
    149 H149        0.5267  -22.6887  -41.8366 H         1 UNK         0.3000 
    150 H150       -3.0152  -22.9979  -41.5182 H         1 UNK         0.0600 
    151 H151       -2.5325  -22.5748  -39.1236 H         1 UNK         0.0600 
    152 H152       -0.8587  -23.0887  -39.3392 H         1 UNK         0.0600 
    153 H153       -2.1711  -24.2459  -39.5251 H         1 UNK         0.0600 
    154 H154       -1.1485  -21.0065  -40.6492 H         1 UNK         0.3000 
    155 H155       -0.8122  -19.2579  -43.6916 H         1 UNK         0.0600 
    156 H156       -1.7944  -17.3326  -42.4963 H         1 UNK         0.0600 
    157 H157       -2.5285  -18.4059  -41.3039 H         1 UNK         0.0600 
    158 H158       -3.0654  -18.4446  -42.9801 H         1 UNK         0.0600 
    159 H159        0.0120  -18.4188  -41.1625 H         1 UNK         0.3000 
    160 H160        1.8113  -19.5152  -39.8676 H         1 UNK         0.0600 
    161 H161        3.9273  -20.6479  -41.7718 H         1 UNK         0.0600 
    162 H162        3.0178  -21.5726  -40.5826 H         1 UNK         0.0600 
    163 H163        4.1414  -20.3334  -40.0498 H         1 UNK         0.0600 
    164 H164        3.7536  -18.2271  -41.5881 H         1 UNK         0.3000 
    165 H165        3.0182  -15.1213  -40.3933 H         1 UNK         0.0600 
    166 H166        4.7306  -16.6453  -42.4354 H         1 UNK         0.0600 
    167 H167        5.1037  -15.0911  -41.7064 H         1 UNK         0.0600 
    168 H168        5.0552  -16.5300  -40.7059 H         1 UNK         0.0600 
    169 H169        2.2084  -14.0827  -42.1711 H         1 UNK         0.3000 
    170 H170        1.9537  -14.7789  -45.6219 H         1 UNK         0.0600 
    171 H171       -0.3112  -13.7876  -45.2958 H         1 UNK         0.0600 
    172 H172       -0.2828  -15.4720  -44.8031 H         1 UNK         0.0600 
    173 H173       -0.2652  -14.2034  -43.5822 H         1 UNK         0.0600 
    174 H174        1.4424  -12.4223  -44.1127 H         1 UNK         0.3000 
    175 H175        3.5102  -11.1577  -43.0957 H         1 UNK         0.0600 
    176 H176        5.3566   -9.8142  -44.0929 H         1 UNK         0.0600 
    177 H177        5.8465  -11.4756  -43.8057 H         1 UNK         0.0600 
    178 H178        5.4707  -10.9467  -45.4388 H         1 UNK         0.0600 
    179 H179        2.2343   -9.7385  -44.1990 H         1 UNK         0.3000 
    180 H180        0.8339   -8.9884  -45.8569 H         1 UNK         0.0600 
    181 H181        1.6845   -6.7863  -46.6611 H         1 UNK         0.0600 
    182 H182        2.7340   -7.4235  -45.4067 H         1 UNK         0.0600 
    183 H183        3.2310   -7.5181  -47.0910 H         1 UNK         0.0600 
    184 H184        1.5936   -8.5134  -48.6027 H         1 UNK         0.3000 
    185 H185       -1.0377   -9.4040  -49.8203 H         1 UNK         0.0600 
    186 H186        1.0012   -8.2785  -50.5139 H         1 UNK         0.0600 
    187 H187        1.8851   -9.7949  -50.6458 H         1 UNK         0.0600 
    188 H188        0.5813   -9.4234  -51.7700 H         1 UNK         0.0600 
    189 H189       -1.5237  -11.4786  -50.3319 H         1 UNK         0.3000 
    190 H190       -2.1263  -22.7654  -44.7886 H         1 UNK         0.3000 
    191 H191       -4.0199  -23.6215  -46.7085 H         1 UNK         0.0600 
    192 H192       -5.3969  -24.2052  -44.7164 H         1 UNK         0.0600 
    193 H193       -4.6436  -22.6291  -44.5253 H         1 UNK         0.0600 
    194 H194       -3.9938  -24.0264  -43.6714 H         1 UNK         0.0600 
    195 H195       -1.9413  -25.5353  -44.4764 H         1 UNK         0.3000 
    196 H196       -2.8560  -28.1077  -45.2555 H         1 UNK         0.0600 
    197 H197       -0.7612  -28.8992  -44.1766 H         1 UNK         0.0600 
    198 H198       -1.5449  -27.6766  -43.1871 H         1 UNK         0.0600 
    199 H199       -0.1277  -27.2597  -44.1480 H         1 UNK         0.0600 
    200 H200       -0.3590  -25.9898  -46.6508 H         1 UNK         0.3000 
    201 H201        0.5089  -27.8505  -48.6926 H         1 UNK         0.0600 
    202 H202        1.9708  -26.0457  -47.7781 H         1 UNK         0.0600 
    203 H203        0.8871  -24.8207  -48.4342 H         1 UNK         0.0600 
    204 H204        1.7763  -25.8836  -49.5158 H         1 UNK         0.0600 
    205 H205       -2.3910  -26.2233  -48.3661 H         1 UNK         0.3000 
    206 H206       -4.1502  -25.8188  -49.5999 H         1 UNK         0.0600 
    207 H207       -3.7562  -28.1207  -50.5148 H         1 UNK         0.0600 
    208 H208       -4.5739  -27.0699  -51.6586 H         1 UNK         0.0600 
    209 H209       -2.8658  -27.4218  -51.8676 H         1 UNK         0.0600 
    210 H210       -2.1224  -23.8070  -49.5263 H         1 UNK         0.3000 
    211 H211       -1.7211  -22.5082  -51.9979 H         1 UNK         0.0600 
    212 H212       -1.1723  -20.5535  -50.6363 H         1 UNK         0.0600 
    213 H213       -0.5196  -21.9812  -49.8540 H         1 UNK         0.0600 
    214 H214       -1.9922  -21.2291  -49.2330 H         1 UNK         0.0600 
    215 H215       -4.5352  -22.5290  -49.8879 H         1 UNK         0.3000 
    216 H216       -6.0055  -20.3796  -51.0652 H         1 UNK         0.0600 
    217 H217       -7.9190  -21.4241  -49.8408 H         1 UNK         0.0600 
    218 H218       -6.5027  -21.2908  -48.8121 H         1 UNK         0.0600 
    219 H219       -6.9430  -22.8511  -49.5107 H         1 UNK         0.0600 
    220 H220       -5.3264  -23.5641  -52.2756 H         1 UNK         0.3000 
    221 H221       -7.4877  -23.3580  -54.3330 H         1 UNK         0.0600 
    222 H222       -5.6769  -25.7123  -53.5772 H         1 UNK         0.0600 
    223 H223       -7.3698  -25.5295  -53.1242 H         1 UNK         0.0600 
    224 H224       -6.9268  -25.7177  -54.8139 H         1 UNK         0.0600 
    225 H225       -3.9510  -23.8099  -53.8470 H         1 UNK         0.3000 
    226 H226       -3.3115  -23.8672  -56.6056 H         1 UNK         0.0600 
    227 H227       -0.9672  -23.7958  -55.7875 H         1 UNK         0.0600 
    228 H228       -1.5185  -23.3377  -54.1820 H         1 UNK         0.0600 
    229 H229       -1.9290  -24.9196  -54.8384 H         1 UNK         0.0600 
    230 H230       -3.1359  -21.1609  -54.2418 H         1 UNK         0.3000 
    231 H231       -2.3046  -19.2859  -56.4321 H         1 UNK         0.0600 
    232 H232       -1.2864  -17.9710  -54.5990 H         1 UNK         0.0600 
    233 H233       -0.6279  -19.5996  -54.6069 H         1 UNK         0.0600 
    234 H234       -1.8367  -19.1430  -53.4081 H         1 UNK         0.0600 
    235 H235       -4.6390  -19.9460  -53.9001 H         1 UNK         0.3000 
    236 H236       -6.6348  -19.1733  -53.3845 H         1 UNK         0.0600 
    237 H237       -6.5915  -17.2993  -55.7990 H         1 UNK         0.0600 
    238 H238       -7.1148  -18.9840  -55.8381 H         1 UNK         0.0600 
    239 H239       -7.9959  -17.8088  -54.8776 H         1 UNK         0.0600 
    240 H240       -3.9784  -17.6729  -52.8101 H         1 UNK         0.3000 
    241 H241       -3.2621  -16.2513  -51.3053 H         1 UNK         0.0600 
    242 H242       -4.6015  -13.2338  -53.3153 H         1 UNK         0.3800 
    243 H243       -4.7609  -14.9055  -53.7917 H         1 UNK         0.3800 
    244 H244       -6.0674  -16.0834  -50.1282 H         1 UNK         0.0800 
    245 H245       -4.5685  -15.7988  -49.2921 H         1 UNK         0.0800 
    246 H246       -4.0866  -19.1117  -47.6028 H         1 UNK         0.0800 
    247 H247       -4.2054  -17.3776  -47.4544 H         1 UNK         0.0800 
@<TRIPOS>BOND
     1    1    2 1    
     2    1  127 1    
     3    1  128 1    
     4    1  129 1    
     5    2    3 2    
     6    2    4 am   BACKBONE|DICT|INTERRES
     7    4    5 1    
     8    4  130 1    
     9    5    6 1    
    10    5   65 1    
    11    5  131 1    
    12    6    7 1    
    13    6  132 1    
    14    6  133 1    
    15    7    8 1    
    16    8    9 1    
    17    8  134 1    
    18    8  135 1    
    19    9   10 ar   
    20    9   14 ar   
    21   10   11 ar   
    22   10  136 1    
    23   11   12 ar   
    24   11  126 1    
    25   12   13 ar   
    26   12  137 1    
    27   13   14 ar   
    28   13   15 1    
    29   14  138 1    
    30   15   16 1    
    31   15  139 1    
    32   15  140 1    
    33   16   17 1    
    34   17   18 1    
    35   17  141 1    
    36   17  142 1    
    37   18   19 1    
    38   18   67 1    
    39   18  143 1    
    40   19   20 am   BACKBONE|DICT|INTERRES
    41   19  144 1    
    42   20   21 2    
    43   20   22 1    
    44   22   23 1    
    45   22   24 1    
    46   22  145 1    
    47   23  146 1    
    48   23  147 1    
    49   23  148 1    
    50   24   25 am   BACKBONE|DICT|INTERRES
    51   24  149 1    
    52   25   26 2    
    53   25   27 1    
    54   27   28 1    
    55   27   29 1    
    56   27  150 1    
    57   28  151 1    
    58   28  152 1    
    59   28  153 1    
    60   29   30 am   BACKBONE|DICT|INTERRES
    61   29  154 1    
    62   30   31 2    
    63   30   32 1    
    64   32   33 1    
    65   32   34 1    
    66   32  155 1    
    67   33  156 1    
    68   33  157 1    
    69   33  158 1    
    70   34   35 am   BACKBONE|DICT|INTERRES
    71   34  159 1    
    72   35   36 2    
    73   35   37 1    
    74   37   38 1    
    75   37   39 1    
    76   37  160 1    
    77   38  161 1    
    78   38  162 1    
    79   38  163 1    
    80   39   40 am   BACKBONE|DICT|INTERRES
    81   39  164 1    
    82   40   41 2    
    83   40   42 1    
    84   42   43 1    
    85   42   44 1    
    86   42  165 1    
    87   43  166 1    
    88   43  167 1    
    89   43  168 1    
    90   44   45 am   BACKBONE|DICT|INTERRES
    91   44  169 1    
    92   45   46 2    
    93   45   47 1    
    94   47   48 1    
    95   47   49 1    
    96   47  170 1    
    97   48  171 1    
    98   48  172 1    
    99   48  173 1    
   100   49   50 am   BACKBONE|DICT|INTERRES
   101   49  174 1    
   102   50   51 2    
   103   50   52 1    
   104   52   53 1    
   105   52   54 1    
   106   52  175 1    
   107   53  176 1    
   108   53  177 1    
   109   53  178 1    
   110   54   55 am   BACKBONE|DICT|INTERRES
   111   54  179 1    
   112   55   56 2    
   113   55   57 1    
   114   57   58 1    
   115   57   59 1    
   116   57  180 1    
   117   58  181 1    
   118   58  182 1    
   119   58  183 1    
   120   59   60 am   BACKBONE|DICT|INTERRES
   121   59  184 1    
   122   60   61 2    
   123   60   62 1    
   124   62   63 1    
   125   62   64 1    
   126   62  185 1    
   127   63  186 1    
   128   63  187 1    
   129   63  188 1    
   130   64   65 am   BACKBONE|DICT|INTERRES
   131   64  189 1    
   132   65   66 2    
   133   67   68 2    
   134   67   69 am   BACKBONE|DICT|INTERRES
   135   69   70 1    
   136   69  190 1    
   137   70   71 1    
   138   70   72 1    
   139   70  191 1    
   140   71  192 1    
   141   71  193 1    
   142   71  194 1    
   143   72   73 2    
   144   72   74 am   BACKBONE|DICT|INTERRES
   145   74   75 1    
   146   74  195 1    
   147   75   76 1    
   148   75   77 1    
   149   75  196 1    
   150   76  197 1    
   151   76  198 1    
   152   76  199 1    
   153   77   78 2    
   154   77   79 am   BACKBONE|DICT|INTERRES
   155   79   80 1    
   156   79  200 1    
   157   80   81 1    
   158   80   82 1    
   159   80  201 1    
   160   81  202 1    
   161   81  203 1    
   162   81  204 1    
   163   82   83 2    
   164   82   84 am   BACKBONE|DICT|INTERRES
   165   84   85 1    
   166   84  205 1    
   167   85   86 1    
   168   85   87 1    
   169   85  206 1    
   170   86  207 1    
   171   86  208 1    
   172   86  209 1    
   173   87   88 2    
   174   87   89 am   BACKBONE|DICT|INTERRES
   175   89   90 1    
   176   89  210 1    
   177   90   91 1    
   178   90   92 1    
   179   90  211 1    
   180   91  212 1    
   181   91  213 1    
   182   91  214 1    
   183   92   93 2    
   184   92   94 am   BACKBONE|DICT|INTERRES
   185   94   95 1    
   186   94  215 1    
   187   95   96 1    
   188   95   97 1    
   189   95  216 1    
   190   96  217 1    
   191   96  218 1    
   192   96  219 1    
   193   97   98 2    
   194   97   99 am   BACKBONE|DICT|INTERRES
   195   99  100 1    
   196   99  220 1    
   197  100  101 1    
   198  100  102 1    
   199  100  221 1    
   200  101  222 1    
   201  101  223 1    
   202  101  224 1    
   203  102  103 2    
   204  102  104 am   BACKBONE|DICT|INTERRES
   205  104  105 1    
   206  104  225 1    
   207  105  106 1    
   208  105  107 1    
   209  105  226 1    
   210  106  227 1    
   211  106  228 1    
   212  106  229 1    
   213  107  108 2    
   214  107  109 am   BACKBONE|DICT|INTERRES
   215  109  110 1    
   216  109  230 1    
   217  110  111 1    
   218  110  112 1    
   219  110  231 1    
   220  111  232 1    
   221  111  233 1    
   222  111  234 1    
   223  112  113 2    
   224  112  114 am   BACKBONE|DICT|INTERRES
   225  114  115 1    
   226  114  235 1    
   227  115  116 1    
   228  115  117 1    
   229  115  236 1    
   230  116  237 1    
   231  116  238 1    
   232  116  239 1    
   233  117  118 2    
   234  117  119 am   BACKBONE|DICT|INTERRES
   235  119  120 1    
   236  119  240 1    
   237  120  121 1    
   238  120  124 1    
   239  120  241 1    
   240  121  122 am   BACKBONE|DICT|INTERRES
   241  121  123 2    
   242  122  242 1    
   243  122  243 1    
   244  124  125 1    
   245  124  244 1    
   246  124  245 1    
   247  125  126 1    
   248  126  246 1    
   249  126  247 1    
@<TRIPOS>SUBSTRUCTURE
     1 UNK         1 GROUP             0       ****    0 ROOT    
