@<TRIPOS>MOLECULE
3R540
247   249    1
SMALL
USER_CHARGES


@<TRIPOS>ATOM
      1 CA         -1.1603  -12.1311  -44.6773 C.3       0 UNK        -0.1800 
      2 C          -0.0910  -11.9826  -45.7488 C.2       0 UNK         0.5000 
      3 O           0.6384  -10.9911  -45.7503 O.2       0 UNK        -0.5000 
      4 N          -0.0130  -12.9504  -46.6715 N.am      1 UNK        -0.5000 
      5 CA          0.8731  -12.9121  -47.8409 C.3       1 UNK         0.1400 
      6 C6          0.4235  -13.8832  -48.9620 C.3       23 UNK        -0.0398 
      7 S7         -1.2356  -13.4692  -49.6065 S.3       23 UNK        -0.2404 
      8 C8         -2.1442  -15.0400  -49.4292 C.3       23 UNK        -0.0205 
      9 C9         -1.6183  -16.1224  -50.3627 C.ar      23 UNK        -0.0193 
     10 C10        -1.7275  -15.9734  -51.7491 C.ar      23 UNK        -0.1150 
     11 C11        -1.2363  -16.9566  -52.6139 C.ar      23 UNK        -0.0193 
     12 C12        -0.6205  -18.0903  -52.0748 C.ar      23 UNK        -0.1150 
     13 C13        -0.5484  -18.2755  -50.6926 C.ar      23 UNK        -0.0193 
     14 C14        -1.0506  -17.2890  -49.8429 C.ar      23 UNK        -0.1150 
     15 C15         0.0683  -19.5437  -50.1246 C.3       23 UNK        -0.0205 
     16 S16        -1.1956  -20.8344  -49.8890 S.3       23 UNK        -0.2404 
     17 C17        -0.2378  -22.3610  -50.1960 C.3       23 UNK        -0.0398 
     18 CA         -0.2487  -23.4034  -49.0537 C.3       11 UNK         0.1400 
     19 N           0.3781  -22.9163  -47.8207 N.am      11 UNK        -0.5000 
     20 C           0.9015  -23.7348  -46.8964 C.2       10 UNK         0.5000 
     21 O           0.9016  -24.9616  -46.9981 O.2       10 UNK        -0.5000 
     22 CA          1.4950  -23.0855  -45.6324 C.3       10 UNK         0.1400 
     23 CB          2.9202  -22.5811  -45.9040 C.3       10 UNK        -0.1800 
     24 N           0.6921  -21.9911  -45.0826 N.am      10 UNK        -0.5000 
     25 C          -0.5900  -22.0814  -44.7025 C.2       9 UNK         0.5000 
     26 O          -1.2648  -23.1014  -44.8346 O.2       9 UNK        -0.5000 
     27 CA         -1.2381  -20.8395  -44.0593 C.3       9 UNK         0.1400 
     28 CB         -1.5025  -21.0868  -42.5660 C.3       9 UNK        -0.1800 
     29 N          -0.4642  -19.6023  -44.2000 N.am      9 UNK        -0.5000 
     30 C          -0.3107  -18.9227  -45.3450 C.2       8 UNK         0.5000 
     31 O          -0.7423  -19.3161  -46.4291 O.2       8 UNK        -0.5000 
     32 CA          0.4025  -17.5650  -45.2273 C.3       8 UNK         0.1400 
     33 CB          0.4217  -16.7866  -46.5553 C.3       8 UNK        -0.1800 
     34 N          -0.2386  -16.8030  -44.1551 N.am      8 UNK        -0.5000 
     35 C           0.1418  -15.6157  -43.6727 C.2       7 UNK         0.5000 
     36 O           1.0256  -14.9187  -44.1762 O.2       7 UNK        -0.5000 
     37 CA         -0.5734  -15.1062  -42.4039 C.3       7 UNK         0.1400 
     38 CB         -1.6472  -16.0580  -41.8267 C.3       7 UNK        -0.1800 
     39 N           0.4206  -14.7320  -41.3984 N.am      7 UNK        -0.5000 
     40 C           1.2837  -15.5443  -40.7711 C.2       6 UNK         0.5000 
     41 O           1.2371  -16.7743  -40.8194 O.2       6 UNK        -0.5000 
     42 CA          2.4191  -14.8720  -39.9804 C.3       6 UNK         0.1400 
     43 CB          3.6944  -14.8320  -40.8374 C.3       6 UNK        -0.1800 
     44 N           2.0911  -13.5076  -39.5607 N.am      6 UNK        -0.5000 
     45 C           1.5265  -13.1859  -38.3890 C.2       5 UNK         0.5000 
     46 O           1.1853  -14.0173  -37.5468 O.2       5 UNK        -0.5000 
     47 CA          1.3314  -11.6865  -38.0859 C.3       5 UNK         0.1400 
     48 CB          2.4681  -11.1755  -37.1866 C.3       5 UNK        -0.1800 
     49 N           1.2809  -10.8583  -39.2921 N.am      5 UNK        -0.5000 
     50 C           0.1804  -10.6608  -40.0299 C.2       4 UNK         0.5000 
     51 O          -0.9248  -11.1260  -39.7504 O.2       4 UNK        -0.5000 
     52 CA          0.3509   -9.8234  -41.3147 C.3       4 UNK         0.1400 
     53 CB          0.1420   -8.3311  -41.0162 C.3       4 UNK        -0.1800 
     54 N           1.6433  -10.0050  -41.9887 N.am      4 UNK        -0.5000 
     55 C           2.0994  -11.1774  -42.4455 C.2       3 UNK         0.5000 
     56 O           1.5149  -12.2479  -42.2664 O.2       3 UNK        -0.5000 
     57 CA          3.4439  -11.1739  -43.1813 C.3       3 UNK         0.1400 
     58 CB          4.6092  -11.1968  -42.1728 C.3       3 UNK        -0.1800 
     59 N           3.4624  -12.3526  -44.0403 N.am      3 UNK        -0.5000 
     60 C           4.3608  -12.6596  -44.9809 C.2       2 UNK         0.5000 
     61 O           5.3735  -11.9996  -45.2160 O.2       2 UNK        -0.5000 
     62 CA          4.0327  -13.8923  -45.8387 C.3       2 UNK         0.1400 
     63 CB          4.1912  -15.1956  -45.0372 C.3       2 UNK        -0.1800 
     64 N           2.6702  -13.7826  -46.3654 N.am      2 UNK        -0.5000 
     65 C           2.3638  -13.1111  -47.4868 C.2       1 UNK         0.5000 
     66 O           3.2141  -12.6317  -48.2388 O.2       1 UNK        -0.5000 
     67 C          -1.6439  -24.0116  -48.7952 C.2       11 UNK         0.5000 
     68 O          -2.0093  -24.9908  -49.4460 O.2       11 UNK        -0.5000 
     69 N          -2.3784  -23.4689  -47.8132 N.am      12 UNK        -0.5000 
     70 CA         -3.6651  -24.0004  -47.3625 C.3       12 UNK         0.1400 
     71 CB         -4.3763  -22.9679  -46.4761 C.3       12 UNK        -0.1800 
     72 C          -3.5101  -25.3529  -46.6460 C.2       12 UNK         0.5000 
     73 O          -4.2919  -26.2670  -46.9057 O.2       12 UNK        -0.5000 
     74 N          -2.4641  -25.4827  -45.8178 N.am      13 UNK        -0.5000 
     75 CA         -2.0592  -26.7285  -45.1608 C.3       13 UNK         0.1400 
     76 CB         -0.9398  -26.4286  -44.1527 C.3       13 UNK        -0.1800 
     77 C          -1.6204  -27.8212  -46.1571 C.2       13 UNK         0.5000 
     78 O          -1.8510  -29.0035  -45.9032 O.2       13 UNK        -0.5000 
     79 N          -1.0396  -27.4037  -47.2905 N.am      14 UNK        -0.5000 
     80 CA         -0.6869  -28.2580  -48.4271 C.3       14 UNK         0.1400 
     81 CB          0.4285  -27.5727  -49.2337 C.3       14 UNK        -0.1800 
     82 C          -1.8879  -28.6042  -49.3366 C.2       14 UNK         0.5000 
     83 O          -1.7071  -29.3524  -50.2981 O.2       14 UNK        -0.5000 
     84 N          -3.0779  -28.0625  -49.0306 N.am      15 UNK        -0.5000 
     85 CA         -4.3478  -28.2197  -49.7480 C.3       15 UNK         0.1400 
     86 CB         -4.8248  -29.6873  -49.7226 C.3       15 UNK        -0.1800 
     87 C          -4.3304  -27.6071  -51.1647 C.2       15 UNK         0.5000 
     88 O          -4.9888  -28.1225  -52.0700 O.2       15 UNK        -0.5000 
     89 N          -3.5953  -26.5016  -51.3253 N.am      16 UNK        -0.5000 
     90 CA         -3.4738  -25.7285  -52.5570 C.3       16 UNK         0.1400 
     91 CB         -2.1612  -26.1126  -53.2659 C.3       16 UNK        -0.1800 
     92 C          -3.5519  -24.2372  -52.1949 C.2       16 UNK         0.5000 
     93 O          -2.6332  -23.4800  -52.5024 O.2       16 UNK        -0.5000 
     94 N          -4.6267  -23.8682  -51.4869 N.am      17 UNK        -0.5000 
     95 CA         -4.8377  -22.5807  -50.8222 C.3       17 UNK         0.1400 
     96 CB         -6.2105  -22.6242  -50.1289 C.3       17 UNK        -0.1800 
     97 C          -4.7287  -21.3279  -51.7153 C.2       17 UNK         0.5000 
     98 O          -4.7773  -21.4131  -52.9469 O.2       17 UNK        -0.5000 
     99 N          -4.6204  -20.1744  -51.0429 N.am      18 UNK        -0.5000 
    100 CA        -4.5908  -18.8273  -51.6098 C.3       18 UNK         0.1400 
    101 CB        -4.6042  -17.8158  -50.4549 C.3       18 UNK        -0.1800 
    102 C         -5.7811  -18.5633  -52.5479 C.2       18 UNK         0.5000 
    103 O         -6.9209  -18.8541  -52.1786 O.2       18 UNK        -0.5000 
    104 N         -5.4852  -18.0610  -53.7524 N.am      19 UNK        -0.5000 
    105 CA        -6.3803  -17.7951  -54.8875 C.3       19 UNK         0.1400 
    106 CB        -7.4820  -16.7845  -54.5152 C.3       19 UNK        -0.1800 
    107 C         -6.9770  -19.0552  -55.5515 C.2       19 UNK         0.5000 
    108 O         -7.2142  -19.0346  -56.7598 O.2       19 UNK        -0.5000 
    109 N         -7.1941  -20.1271  -54.7785 N.am      20 UNK        -0.5000 
    110 CA        -7.6694  -21.4282  -55.2452 C.3       20 UNK         0.1400 
    111 CB        -8.0749  -22.2877  -54.0374 C.3       20 UNK        -0.1800 
    112 C         -6.6252  -22.1577  -56.1084 C.2       20 UNK         0.5000 
    113 O         -6.9914  -22.7521  -57.1236 O.2       20 UNK        -0.5000 
    114 N         -5.3506  -22.0823  -55.7047 N.am      21 UNK        -0.5000 
    115 CA        -4.2210  -22.6572  -56.4338 C.3       21 UNK         0.1400 
    116 CB        -4.0978  -24.1594  -56.1285 C.3       21 UNK        -0.1800 
    117 C         -2.8955  -21.9273  -56.1630 C.2       21 UNK         0.5000 
    118 O         -2.0609  -21.8819  -57.0679 O.2       21 UNK        -0.5000 
    119 N         -2.7156  -21.3678  -54.9561 N.am      22 UNK        -0.5000 
    120 CA        -1.4816  -20.6941  -54.5062 C.3       22 UNK         0.1400 
    121 C         -0.2400  -21.6405  -54.4574 C.2       22 UNK         0.5000 
    122 N         -0.3863  -22.8615  -53.9644 N.am      22 UNK        -0.7600 
    123 O          0.8638  -21.2782  -54.8570 O.2       22 UNK        -0.5000 
    124 C124       -1.1956  -19.3660  -55.2705 C.3       23 UNK        -0.0398 
    125 S125       -2.4057  -18.0480  -54.9096 S.3       23 UNK        -0.2404 
    126 C126       -1.3562  -16.7758  -54.1228 C.3       23 UNK        -0.0205 
    127 H127       -1.6976  -13.0749  -44.7700 H         1 UNK         0.0600 
    128 H128       -1.8835  -11.3198  -44.7574 H         1 UNK         0.0600 
    129 H129       -0.7099  -12.0853  -43.6874 H         1 UNK         0.0600 
    130 H130       -0.6393  -13.7394  -46.6190 H         1 UNK         0.3000 
    131 H131        0.8040  -11.9033  -48.2549 H         1 UNK         0.0600 
    132 H132        1.1144  -13.8381  -49.8058 H         1 UNK         0.0800 
    133 H133        0.4435  -14.9154  -48.6153 H         1 UNK         0.0800 
    134 H134       -2.1085  -15.3644  -48.3887 H         1 UNK         0.0800 
    135 H135       -3.1961  -14.8622  -49.6558 H         1 UNK         0.0800 
    136 H136       -2.1893  -15.0823  -52.1509 H         1 UNK         0.1150 
    137 H137       -0.2072  -18.8429  -52.7267 H         1 UNK         0.1150 
    138 H138       -1.0138  -17.4453  -48.7771 H         1 UNK         0.1150 
    139 H139        0.8504  -19.8906  -50.8010 H         1 UNK         0.0800 
    140 H140        0.5536  -19.3380  -49.1694 H         1 UNK         0.0800 
    141 H141        0.7979  -22.1056  -50.4201 H         1 UNK         0.0800 
    142 H142       -0.6160  -22.8146  -51.1108 H         1 UNK         0.0800 
    143 H143        0.3660  -24.2309  -49.4150 H         1 UNK         0.0600 
    144 H144        0.3791  -21.9180  -47.6651 H         1 UNK         0.3000 
    145 H145        1.5506  -23.8615  -44.8661 H         1 UNK         0.0600 
    146 H146        3.3930  -22.2224  -44.9895 H         1 UNK         0.0600 
    147 H147        3.5486  -23.3798  -46.3006 H         1 UNK         0.0600 
    148 H148        2.9283  -21.7661  -46.6288 H         1 UNK         0.0600 
    149 H149        1.1655  -21.1126  -44.9364 H         1 UNK         0.3000 
    150 H150       -2.2013  -20.6942  -44.5531 H         1 UNK         0.0600 
    151 H151       -2.1126  -21.9790  -42.4178 H         1 UNK         0.0600 
    152 H152       -2.0393  -20.2514  -42.1160 H         1 UNK         0.0600 
    153 H153       -0.5740  -21.2286  -42.0114 H         1 UNK         0.0600 
    154 H154       -0.0451  -19.2394  -43.3553 H         1 UNK         0.3000 
    155 H155        1.4340  -17.7698  -44.9342 H         1 UNK         0.0600 
    156 H156       -0.5727  -16.4247  -46.8133 H         1 UNK         0.0600 
    157 H157        1.0896  -15.9321  -46.5061 H         1 UNK         0.0600 
    158 H158        0.7888  -17.4087  -47.3719 H         1 UNK         0.0600 
    159 H159       -1.0008  -17.2794  -43.6930 H         1 UNK         0.3000 
    160 H160       -1.0793  -14.1834  -42.6824 H         1 UNK         0.0600 
    161 H161       -2.0912  -15.6367  -40.9247 H         1 UNK         0.0600 
    162 H162       -1.2462  -17.0379  -41.5670 H         1 UNK         0.0600 
    163 H163       -2.4595  -16.2098  -42.5386 H         1 UNK         0.0600 
    164 H164        0.6445  -13.7418  -41.3881 H         1 UNK         0.3000 
    165 H165        2.6231  -15.4873  -39.1014 H         1 UNK         0.0600 
    166 H166        4.5234  -14.3782  -40.2942 H         1 UNK         0.0600 
    167 H167        4.0047  -15.8380  -41.1224 H         1 UNK         0.0600 
    168 H168        3.5418  -14.2669  -41.7572 H         1 UNK         0.0600 
    169 H169        2.2723  -12.7736  -40.2305 H         1 UNK         0.3000 
    170 H170        0.3932  -11.5796  -37.5371 H         1 UNK         0.0600 
    171 H171        2.3143  -10.1318  -36.9116 H         1 UNK         0.0600 
    172 H172        3.4383  -11.2543  -37.6788 H         1 UNK         0.0600 
    173 H173        2.5223  -11.7493  -36.2605 H         1 UNK         0.0600 
    174 H174        2.1443  -10.4280  -39.5894 H         1 UNK         0.3000 
    175 H175       -0.4271  -10.1408  -42.0121 H         1 UNK         0.0600 
    176 H176        0.1546   -7.7398  -41.9320 H         1 UNK         0.0600 
    177 H177        0.9150   -7.9412  -40.3528 H         1 UNK         0.0600 
    178 H178       -0.8215   -8.1597  -40.5343 H         1 UNK         0.0600 
    179 H179        2.1838   -9.1685  -42.1562 H         1 UNK         0.3000 
    180 H180        3.5044  -10.2813  -43.8067 H         1 UNK         0.0600 
    181 H181        4.5886  -12.0909  -41.5503 H         1 UNK         0.0600 
    182 H182        4.5673  -10.3341  -41.5070 H         1 UNK         0.0600 
    183 H183        5.5759  -11.1632  -42.6742 H         1 UNK         0.0600 
    184 H184        2.6490  -12.9472  -43.9195 H         1 UNK         0.3000 
    185 H185        4.7428  -13.9310  -46.6676 H         1 UNK         0.0600 
    186 H186        3.5816  -15.2035  -44.1342 H         1 UNK         0.0600 
    187 H187        3.9122  -16.0628  -45.6357 H         1 UNK         0.0600 
    188 H188        5.2276  -15.3327  -44.7269 H         1 UNK         0.0600 
    189 H189        1.9255  -14.1242  -45.7645 H         1 UNK         0.3000 
    190 H190       -1.9929  -22.6964  -47.2902 H         1 UNK         0.3000 
    191 H191       -4.2860  -24.1715  -48.2434 H         1 UNK         0.0600 
    192 H192       -4.5299  -22.0302  -47.0104 H         1 UNK         0.0600 
    193 H193       -5.3577  -23.3312  -46.1691 H         1 UNK         0.0600 
    194 H194       -3.8107  -22.7497  -45.5703 H         1 UNK         0.0600 
    195 H195       -1.9052  -24.6579  -45.6100 H         1 UNK         0.3000 
    196 H196       -2.9215  -27.1103  -44.6104 H         1 UNK         0.0600 
    197 H197       -0.6398  -27.3323  -43.6209 H         1 UNK         0.0600 
    198 H198       -1.2654  -25.7038  -43.4063 H         1 UNK         0.0600 
    199 H199       -0.0534  -26.0262  -44.6438 H         1 UNK         0.0600 
    200 H200       -0.8400  -26.4169  -47.3918 H         1 UNK         0.3000 
    201 H201       -0.2920  -29.2005  -48.0427 H         1 UNK         0.0600 
    202 H202        1.2822  -27.3285  -48.6012 H         1 UNK         0.0600 
    203 H203        0.0809  -26.6513  -49.6997 H         1 UNK         0.0600 
    204 H204        0.7917  -28.2230  -50.0304 H         1 UNK         0.0600 
    205 H205       -3.1235  -27.4519  -48.2239 H         1 UNK         0.3000 
    206 H206       -5.0784  -27.6363  -49.1865 H         1 UNK         0.0600 
    207 H207       -4.8304  -30.0820  -48.7066 H         1 UNK         0.0600 
    208 H208       -5.8412  -29.7741  -50.1083 H         1 UNK         0.0600 
    209 H209       -4.1904  -30.3326  -50.3307 H         1 UNK         0.0600 
    210 H210       -3.0832  -26.1216  -50.5310 H         1 UNK         0.3000 
    211 H211       -4.3097  -25.9397  -53.2266 H         1 UNK         0.0600 
    212 H212       -1.2939  -25.9138  -52.6347 H         1 UNK         0.0600 
    213 H213       -2.0319  -25.5521  -54.1921 H         1 UNK         0.0600 
    214 H214       -2.1500  -27.1719  -53.5229 H         1 UNK         0.0600 
    215 H215       -5.3283  -24.5710  -51.3100 H         1 UNK         0.3000 
    216 H216       -4.0641  -22.4935  -50.0576 H         1 UNK         0.0600 
    217 H217       -6.3915  -21.7226  -49.5424 H         1 UNK         0.0600 
    218 H218       -6.2865  -23.4690  -49.4445 H         1 UNK         0.0600 
    219 H219       -7.0207  -22.7090  -50.8542 H         1 UNK         0.0600 
    220 H220       -4.5991  -20.2136  -50.0354 H         1 UNK         0.3000 
    221 H221       -3.6555  -18.7235  -52.1622 H         1 UNK         0.0600 
    222 H222       -5.5300  -17.8718  -49.8807 H         1 UNK         0.0600 
    223 H223       -3.7779  -17.9899  -49.7667 H         1 UNK         0.0600 
    224 H224       -4.5129  -16.7962  -50.8302 H         1 UNK         0.0600 
    225 H225       -4.5057  -17.9096  -53.9618 H         1 UNK         0.3000 
    226 H226       -5.7502  -17.3236  -55.6435 H         1 UNK         0.0600 
    227 H227       -7.0564  -15.8759  -54.0892 H         1 UNK         0.0600 
    228 H228       -8.0536  -16.4932  -55.3971 H         1 UNK         0.0600 
    229 H229       -8.1887  -17.1957  -53.7942 H         1 UNK         0.0600 
    230 H230       -7.0052  -20.0345  -53.7865 H         1 UNK         0.3000 
    231 H231       -8.5572  -21.2630  -55.8591 H         1 UNK         0.0600 
    232 H232       -7.2260  -22.4976  -53.3868 H         1 UNK         0.0600 
    233 H233       -8.4825  -23.2460  -54.3617 H         1 UNK         0.0600 
    234 H234       -8.8409  -21.7933  -53.4398 H         1 UNK         0.0600 
    235 H235       -5.1459  -21.6038  -54.8324 H         1 UNK         0.3000 
    236 H236       -4.4106  -22.5444  -57.5036 H         1 UNK         0.0600 
    237 H237       -4.9695  -24.7101  -56.4815 H         1 UNK         0.0600 
    238 H238       -3.2217  -24.5914  -56.6139 H         1 UNK         0.0600 
    239 H239       -4.0034  -24.3337  -55.0595 H         1 UNK         0.0600 
    240 H240       -3.4217  -21.4921  -54.2362 H         1 UNK         0.3000 
    241 H241       -1.6653  -20.4390  -53.4624 H         1 UNK         0.0600 
    242 H242       -1.2710  -23.1391  -53.5380 H         1 UNK         0.3800 
    243 H243        0.4038  -23.4842  -53.9381 H         1 UNK         0.3800 
    244 H244       -0.2012  -18.9886  -55.0320 H         1 UNK         0.0800 
    245 H245       -1.1807  -19.5335  -56.3474 H         1 UNK         0.0800 
    246 H246       -1.7929  -15.8016  -54.3474 H         1 UNK         0.0800 
    247 H247       -0.3628  -16.7623  -54.5725 H         1 UNK         0.0800 
@<TRIPOS>BOND
     1    1    2 1    
     2    1  127 1    
     3    1  128 1    
     4    1  129 1    
     5    2    3 2    
     6    2    4 am   BACKBONE|DICT|INTERRES
     7    4    5 1    
     8    4  130 1    
     9    5    6 1    
    10    5   65 1    
    11    5  131 1    
    12    6    7 1    
    13    6  132 1    
    14    6  133 1    
    15    7    8 1    
    16    8    9 1    
    17    8  134 1    
    18    8  135 1    
    19    9   10 ar   
    20    9   14 ar   
    21   10   11 ar   
    22   10  136 1    
    23   11   12 ar   
    24   11  126 1    
    25   12   13 ar   
    26   12  137 1    
    27   13   14 ar   
    28   13   15 1    
    29   14  138 1    
    30   15   16 1    
    31   15  139 1    
    32   15  140 1    
    33   16   17 1    
    34   17   18 1    
    35   17  141 1    
    36   17  142 1    
    37   18   19 1    
    38   18   67 1    
    39   18  143 1    
    40   19   20 am   BACKBONE|DICT|INTERRES
    41   19  144 1    
    42   20   21 2    
    43   20   22 1    
    44   22   23 1    
    45   22   24 1    
    46   22  145 1    
    47   23  146 1    
    48   23  147 1    
    49   23  148 1    
    50   24   25 am   BACKBONE|DICT|INTERRES
    51   24  149 1    
    52   25   26 2    
    53   25   27 1    
    54   27   28 1    
    55   27   29 1    
    56   27  150 1    
    57   28  151 1    
    58   28  152 1    
    59   28  153 1    
    60   29   30 am   BACKBONE|DICT|INTERRES
    61   29  154 1    
    62   30   31 2    
    63   30   32 1    
    64   32   33 1    
    65   32   34 1    
    66   32  155 1    
    67   33  156 1    
    68   33  157 1    
    69   33  158 1    
    70   34   35 am   BACKBONE|DICT|INTERRES
    71   34  159 1    
    72   35   36 2    
    73   35   37 1    
    74   37   38 1    
    75   37   39 1    
    76   37  160 1    
    77   38  161 1    
    78   38  162 1    
    79   38  163 1    
    80   39   40 am   BACKBONE|DICT|INTERRES
    81   39  164 1    
    82   40   41 2    
    83   40   42 1    
    84   42   43 1    
    85   42   44 1    
    86   42  165 1    
    87   43  166 1    
    88   43  167 1    
    89   43  168 1    
    90   44   45 am   BACKBONE|DICT|INTERRES
    91   44  169 1    
    92   45   46 2    
    93   45   47 1    
    94   47   48 1    
    95   47   49 1    
    96   47  170 1    
    97   48  171 1    
    98   48  172 1    
    99   48  173 1    
   100   49   50 am   BACKBONE|DICT|INTERRES
   101   49  174 1    
   102   50   51 2    
   103   50   52 1    
   104   52   53 1    
   105   52   54 1    
   106   52  175 1    
   107   53  176 1    
   108   53  177 1    
   109   53  178 1    
   110   54   55 am   BACKBONE|DICT|INTERRES
   111   54  179 1    
   112   55   56 2    
   113   55   57 1    
   114   57   58 1    
   115   57   59 1    
   116   57  180 1    
   117   58  181 1    
   118   58  182 1    
   119   58  183 1    
   120   59   60 am   BACKBONE|DICT|INTERRES
   121   59  184 1    
   122   60   61 2    
   123   60   62 1    
   124   62   63 1    
   125   62   64 1    
   126   62  185 1    
   127   63  186 1    
   128   63  187 1    
   129   63  188 1    
   130   64   65 am   BACKBONE|DICT|INTERRES
   131   64  189 1    
   132   65   66 2    
   133   67   68 2    
   134   67   69 am   BACKBONE|DICT|INTERRES
   135   69   70 1    
   136   69  190 1    
   137   70   71 1    
   138   70   72 1    
   139   70  191 1    
   140   71  192 1    
   141   71  193 1    
   142   71  194 1    
   143   72   73 2    
   144   72   74 am   BACKBONE|DICT|INTERRES
   145   74   75 1    
   146   74  195 1    
   147   75   76 1    
   148   75   77 1    
   149   75  196 1    
   150   76  197 1    
   151   76  198 1    
   152   76  199 1    
   153   77   78 2    
   154   77   79 am   BACKBONE|DICT|INTERRES
   155   79   80 1    
   156   79  200 1    
   157   80   81 1    
   158   80   82 1    
   159   80  201 1    
   160   81  202 1    
   161   81  203 1    
   162   81  204 1    
   163   82   83 2    
   164   82   84 am   BACKBONE|DICT|INTERRES
   165   84   85 1    
   166   84  205 1    
   167   85   86 1    
   168   85   87 1    
   169   85  206 1    
   170   86  207 1    
   171   86  208 1    
   172   86  209 1    
   173   87   88 2    
   174   87   89 am   BACKBONE|DICT|INTERRES
   175   89   90 1    
   176   89  210 1    
   177   90   91 1    
   178   90   92 1    
   179   90  211 1    
   180   91  212 1    
   181   91  213 1    
   182   91  214 1    
   183   92   93 2    
   184   92   94 am   BACKBONE|DICT|INTERRES
   185   94   95 1    
   186   94  215 1    
   187   95   96 1    
   188   95   97 1    
   189   95  216 1    
   190   96  217 1    
   191   96  218 1    
   192   96  219 1    
   193   97   98 2    
   194   97   99 am   BACKBONE|DICT|INTERRES
   195   99  100 1    
   196   99  220 1    
   197  100  101 1    
   198  100  102 1    
   199  100  221 1    
   200  101  222 1    
   201  101  223 1    
   202  101  224 1    
   203  102  103 2    
   204  102  104 am   BACKBONE|DICT|INTERRES
   205  104  105 1    
   206  104  225 1    
   207  105  106 1    
   208  105  107 1    
   209  105  226 1    
   210  106  227 1    
   211  106  228 1    
   212  106  229 1    
   213  107  108 2    
   214  107  109 am   BACKBONE|DICT|INTERRES
   215  109  110 1    
   216  109  230 1    
   217  110  111 1    
   218  110  112 1    
   219  110  231 1    
   220  111  232 1    
   221  111  233 1    
   222  111  234 1    
   223  112  113 2    
   224  112  114 am   BACKBONE|DICT|INTERRES
   225  114  115 1    
   226  114  235 1    
   227  115  116 1    
   228  115  117 1    
   229  115  236 1    
   230  116  237 1    
   231  116  238 1    
   232  116  239 1    
   233  117  118 2    
   234  117  119 am   BACKBONE|DICT|INTERRES
   235  119  120 1    
   236  119  240 1    
   237  120  121 1    
   238  120  124 1    
   239  120  241 1    
   240  121  122 am   BACKBONE|DICT|INTERRES
   241  121  123 2    
   242  122  242 1    
   243  122  243 1    
   244  124  125 1    
   245  124  244 1    
   246  124  245 1    
   247  125  126 1    
   248  126  246 1    
   249  126  247 1    
@<TRIPOS>SUBSTRUCTURE
     1 UNK         1 GROUP             0       ****    0 ROOT    
