@<TRIPOS>MOLECULE
3R540
247   249    1
SMALL
USER_CHARGES


@<TRIPOS>ATOM
      1 CA         -3.1592  -11.2068  -49.6756 C.3       0 UNK        -0.1800 
      2 C          -1.8400  -11.6682  -49.0729 C.2       0 UNK         0.5000 
      3 O          -1.2773  -10.9753  -48.2252 O.2       0 UNK        -0.5000 
      4 N          -1.3466  -12.8359  -49.5044 N.am      1 UNK        -0.5000 
      5 CA         -0.0850  -13.4354  -49.0487 C.3       1 UNK         0.1400 
      6 C6          0.3707  -14.5955  -49.9618 C.3       23 UNK        -0.0398 
      7 S7          0.5008  -14.2048  -51.7417 S.3       23 UNK        -0.2404 
      8 C8          1.3726  -15.6863  -52.3708 C.3       23 UNK        -0.0205 
      9 C9          0.7060  -16.9751  -51.9082 C.ar      23 UNK        -0.0193 
     10 C10        -0.3789  -17.5088  -52.6089 C.ar      23 UNK        -0.1150 
     11 C11        -1.0615  -18.6249  -52.1130 C.ar      23 UNK        -0.0193 
     12 C12        -0.6607  -19.1967  -50.9010 C.ar      23 UNK        -0.1150 
     13 C13         0.4280  -18.6732  -50.1988 C.ar      23 UNK        -0.0193 
     14 C14         1.1304  -17.5898  -50.7269 C.ar      23 UNK        -0.1150 
     15 C15         0.7898  -19.2080  -48.8255 C.3       23 UNK        -0.0205 
     16 S16         1.8773  -20.6628  -48.9037 S.3       23 UNK        -0.2404 
     17 C17         2.0815  -20.9732  -47.1127 C.3       23 UNK        -0.0398 
     18 CA          1.2020  -22.1019  -46.5140 C.3       11 UNK         0.1400 
     19 N           1.3751  -22.1825  -45.0618 N.am      11 UNK        -0.5000 
     20 C           0.8542  -23.1306  -44.2704 C.2       10 UNK         0.5000 
     21 O           0.2191  -24.0990  -44.6855 O.2       10 UNK        -0.5000 
     22 CA          1.0269  -22.9343  -42.7548 C.3       10 UNK         0.1400 
     23 CB          2.4275  -23.3766  -42.3061 C.3       10 UNK        -0.1800 
     24 N           0.7811  -21.5526  -42.3355 N.am      10 UNK        -0.5000 
     25 C          -0.3969  -20.9216  -42.4539 C.2       9 UNK         0.5000 
     26 O          -1.4134  -21.4538  -42.8984 O.2       9 UNK        -0.5000 
     27 CA         -0.4407  -19.4361  -42.0529 C.3       9 UNK         0.1400 
     28 CB         -0.5110  -19.2791  -40.5269 C.3       9 UNK        -0.1800 
     29 N           0.6977  -18.6796  -42.5710 N.am      9 UNK        -0.5000 
     30 C           0.9608  -18.4875  -43.8711 C.2       8 UNK         0.5000 
     31 O           0.2464  -18.8965  -44.7862 O.2       8 UNK        -0.5000 
     32 CA          2.2789  -17.7698  -44.2060 C.3       8 UNK         0.1400 
     33 CB          2.1398  -16.2482  -44.0557 C.3       8 UNK        -0.1800 
     34 N           3.3848  -18.2492  -43.3778 N.am      8 UNK        -0.5000 
     35 C           3.9091  -19.4805  -43.4550 C.2       7 UNK         0.5000 
     36 O           3.5319  -20.3376  -44.2543 O.2       7 UNK        -0.5000 
     37 CA          5.0143  -19.8201  -42.4394 C.3       7 UNK         0.1400 
     38 CB          6.3719  -19.2792  -42.9122 C.3       7 UNK        -0.1800 
     39 N           4.7234  -19.3043  -41.1005 N.am      7 UNK        -0.5000 
     40 C           3.7219  -19.7440  -40.3259 C.2       6 UNK         0.5000 
     41 O           2.9444  -20.6383  -40.6549 O.2       6 UNK        -0.5000 
     42 CA          3.5290  -19.0354  -38.9737 C.3       6 UNK         0.1400 
     43 CB          4.4681  -19.6288  -37.9130 C.3       6 UNK        -0.1800 
     44 N           3.7200  -17.5836  -39.0384 N.am      6 UNK        -0.5000 
     45 C           2.9819  -16.7531  -39.7854 C.2       5 UNK         0.5000 
     46 O           2.1080  -17.1287  -40.5709 O.2       5 UNK        -0.5000 
     47 CA          3.2855  -15.2569  -39.6533 C.3       5 UNK         0.1400 
     48 CB          4.3077  -14.8113  -40.7115 C.3       5 UNK        -0.1800 
     49 N           2.0413  -14.5234  -39.8441 N.am      5 UNK        -0.5000 
     50 C           1.6433  -13.4481  -39.1599 C.2       4 UNK         0.5000 
     51 O           2.3325  -12.8942  -38.3009 O.2       4 UNK        -0.5000 
     52 CA          0.2471  -12.8931  -39.5211 C.3       4 UNK         0.1400 
     53 CB         -0.1872  -11.7331  -38.6067 C.3       4 UNK        -0.1800 
     54 N           0.1898  -12.4399  -40.9125 N.am      4 UNK        -0.5000 
     55 C           0.0894  -13.2373  -41.9825 C.2       3 UNK         0.5000 
     56 O          -0.0080  -14.4651  -41.9065 O.2       3 UNK        -0.5000 
     57 CA          0.1659  -12.5392  -43.3548 C.3       3 UNK         0.1400 
     58 CB          1.6076  -12.0900  -43.6457 C.3       3 UNK        -0.1800 
     59 N          -0.2665  -13.4059  -44.4478 N.am      3 UNK        -0.5000 
     60 C          -1.5083  -13.8531  -44.6581 C.2       2 UNK         0.5000 
     61 O          -2.4877  -13.4857  -44.0058 O.2       2 UNK        -0.5000 
     62 CA         -1.6667  -14.8650  -45.8128 C.3       2 UNK         0.1400 
     63 CB         -3.0681  -15.4994  -45.8627 C.3       2 UNK        -0.1800 
     64 N          -1.3747  -14.2699  -47.1181 N.am      2 UNK        -0.5000 
     65 C          -0.1594  -13.9668  -47.5983 C.2       1 UNK         0.5000 
     66 O           0.8824  -14.1307  -46.9609 O.2       1 UNK        -0.5000 
     67 C          -0.2913  -21.9792  -46.8896 C.2       11 UNK         0.5000 
     68 O          -0.7659  -22.7413  -47.7314 O.2       11 UNK        -0.5000 
     69 N          -1.0125  -21.0549  -46.2376 N.am      12 UNK        -0.5000 
     70 CA         -2.4425  -20.8268  -46.4490 C.3       12 UNK         0.1400 
     71 CB         -2.8906  -19.5843  -45.6652 C.3       12 UNK        -0.1800 
     72 C          -3.3031  -22.0517  -46.0902 C.2       12 UNK         0.5000 
     73 O          -4.2141  -22.3909  -46.8452 O.2       12 UNK        -0.5000 
     74 N          -2.9725  -22.7190  -44.9761 N.am      13 UNK        -0.5000 
     75 CA         -3.6049  -23.9619  -44.5338 C.3       13 UNK         0.1400 
     76 CB         -3.1238  -24.3078  -43.1166 C.3       13 UNK        -0.1800 
     77 C          -3.3564  -25.1374  -45.4974 C.2       13 UNK         0.5000 
     78 O          -4.2822  -25.9051  -45.7617 O.2       13 UNK        -0.5000 
     79 N          -2.1248  -25.2473  -46.0162 N.am      14 UNK        -0.5000 
     80 CA         -1.7273  -26.2521  -47.0031 C.3       14 UNK         0.1400 
     81 CB         -0.1965  -26.2746  -47.1319 C.3       14 UNK        -0.1800 
     82 C          -2.3891  -26.0309  -48.3753 C.2       14 UNK         0.5000 
     83 O          -2.8244  -27.0001  -48.9986 O.2       14 UNK        -0.5000 
     84 N          -2.4644  -24.7663  -48.8139 N.am      15 UNK        -0.5000 
     85 CA         -3.1345  -24.3527  -50.0471 C.3       15 UNK         0.1400 
     86 CB         -2.7872  -22.8871  -50.3563 C.3       15 UNK        -0.1800 
     87 C          -4.6602  -24.5420  -49.9798 C.2       15 UNK         0.5000 
     88 O          -5.2595  -24.9865  -50.9588 O.2       15 UNK        -0.5000 
     89 N          -5.2540  -24.1907  -48.8296 N.am      16 UNK        -0.5000 
     90 CA         -6.6764  -24.2248  -48.4633 C.3       16 UNK         0.1400 
     91 CB         -7.2649  -25.6427  -48.5876 C.3       16 UNK        -0.1800 
     92 C          -7.5467  -23.1829  -49.1959 C.2       16 UNK         0.5000 
     93 O          -8.4367  -22.5993  -48.5758 O.2       16 UNK        -0.5000 
     94 N          -7.2649  -22.9404  -50.4779 N.am      17 UNK        -0.5000 
     95 CA         -7.8461  -21.8987  -51.3124 C.3       17 UNK         0.1400 
     96 CB         -9.0952  -22.4400  -52.0271 C.3       17 UNK        -0.1800 
     97 C          -6.7811  -21.4531  -52.3220 C.2       17 UNK         0.5000 
     98 O          -5.9284  -22.2563  -52.7096 O.2       17 UNK        -0.5000 
     99 N          -6.8560  -20.1914  -52.7585 N.am      18 UNK        -0.5000 
    100 CA        -5.9324  -19.5821  -53.7176 C.3       18 UNK         0.1400 
    101 CB        -5.8910  -18.0631  -53.4728 C.3       18 UNK        -0.1800 
    102 C         -6.2840  -19.9484  -55.1740 C.2       18 UNK         0.5000 
    103 O         -6.5056  -19.0625  -56.0028 O.2       18 UNK        -0.5000 
    104 N         -6.3373  -21.2560  -55.4584 N.am      19 UNK        -0.5000 
    105 CA        -6.5899  -21.8369  -56.7767 C.3       19 UNK         0.1400 
    106 CB        -6.6479  -23.3668  -56.6496 C.3       19 UNK        -0.1800 
    107 C         -5.5091  -21.4012  -57.7813 C.2       19 UNK         0.5000 
    108 O         -4.3297  -21.6852  -57.5611 O.2       19 UNK        -0.5000 
    109 N         -5.9242  -20.6530  -58.8144 N.am      20 UNK        -0.5000 
    110 CA        -5.0765  -19.9885  -59.8159 C.3       20 UNK         0.1400 
    111 CB        -4.4275  -21.0314  -60.7496 C.3       20 UNK        -0.1800 
    112 C         -4.0416  -19.0240  -59.1894 C.2       20 UNK         0.5000 
    113 O         -2.9287  -18.8919  -59.7034 O.2       20 UNK        -0.5000 
    114 N         -4.4080  -18.4170  -58.0478 N.am      21 UNK        -0.5000 
    115 CA        -3.5749  -17.5793  -57.1754 C.3       21 UNK         0.1400 
    116 CB        -3.2269  -16.2483  -57.8733 C.3       21 UNK        -0.1800 
    117 C         -2.3255  -18.3070  -56.6260 C.2       21 UNK         0.5000 
    118 O         -1.3500  -17.6487  -56.2629 O.2       21 UNK        -0.5000 
    119 N         -2.3722  -19.6475  -56.5910 N.am      22 UNK        -0.5000 
    120 CA        -1.2488  -20.5561  -56.3076 C.3       22 UNK         0.1400 
    121 C         -0.1256  -20.5373  -57.3926 C.2       22 UNK         0.5000 
    122 N         -0.3675  -20.0306  -58.5974 N.am      22 UNK        -0.7600 
    123 O          0.9792  -21.0193  -57.1570 O.2       22 UNK        -0.5000 
    124 C124       -0.6962  -20.4318  -54.8595 C.3       23 UNK        -0.0398 
    125 S125       -1.9532  -20.8113  -53.5893 S.3       23 UNK        -0.2404 
    126 C126       -2.2695  -19.1762  -52.8542 C.3       23 UNK        -0.0205 
    127 H127       -3.9098  -11.0933  -48.8933 H         1 UNK         0.0600 
    128 H128       -3.5391  -11.9160  -50.4114 H         1 UNK         0.0600 
    129 H129       -3.0298  -10.2431  -50.1680 H         1 UNK         0.0600 
    130 H130       -1.8377  -13.3484  -50.2234 H         1 UNK         0.3000 
    131 H131        0.6842  -12.6606  -49.0736 H         1 UNK         0.0600 
    132 H132        1.3466  -14.9555  -49.6308 H         1 UNK         0.0800 
    133 H133       -0.3251  -15.4306  -49.8594 H         1 UNK         0.0800 
    134 H134        2.4121  -15.6593  -52.0403 H         1 UNK         0.0800 
    135 H135        1.3973  -15.6510  -53.4610 H         1 UNK         0.0800 
    136 H136       -0.7096  -17.0361  -53.5236 H         1 UNK         0.1150 
    137 H137       -1.2085  -20.0364  -50.4959 H         1 UNK         0.1150 
    138 H138        1.9646  -17.1774  -50.1770 H         1 UNK         0.1150 
    139 H139        1.2760  -18.4264  -48.2391 H         1 UNK         0.0800 
    140 H140       -0.1271  -19.4553  -48.2915 H         1 UNK         0.0800 
    141 H141        1.9118  -20.0417  -46.5727 H         1 UNK         0.0800 
    142 H142        3.1318  -21.2140  -46.9427 H         1 UNK         0.0800 
    143 H143        1.5551  -23.0475  -46.9306 H         1 UNK         0.0600 
    144 H144        1.9251  -21.4434  -44.6349 H         1 UNK         0.3000 
    145 H145        0.2941  -23.5696  -42.2532 H         1 UNK         0.0600 
    146 H146        2.5231  -23.3373  -41.2210 H         1 UNK         0.0600 
    147 H147        2.6308  -24.4033  -42.6128 H         1 UNK         0.0600 
    148 H148        3.2062  -22.7442  -42.7336 H         1 UNK         0.0600 
    149 H149        1.5627  -21.0639  -41.9071 H         1 UNK         0.3000 
    150 H150       -1.3475  -19.0033  -42.4802 H         1 UNK         0.0600 
    151 H151       -1.3705  -19.8120  -40.1184 H         1 UNK         0.0600 
    152 H152       -0.6118  -18.2309  -40.2441 H         1 UNK         0.0600 
    153 H153        0.3819  -19.6710  -40.0396 H         1 UNK         0.0600 
    154 H154        1.3180  -18.2637  -41.8811 H         1 UNK         0.3000 
    155 H155        2.5189  -17.9834  -45.2497 H         1 UNK         0.0600 
    156 H156        1.9233  -15.9616  -43.0270 H         1 UNK         0.0600 
    157 H157        1.3300  -15.8699  -44.6791 H         1 UNK         0.0600 
    158 H158        3.0511  -15.7348  -44.3622 H         1 UNK         0.0600 
    159 H159        3.7160  -17.6269  -42.6564 H         1 UNK         0.3000 
    160 H160        5.0845  -20.9082  -42.3766 H         1 UNK         0.0600 
    161 H161        6.3765  -18.1900  -42.9684 H         1 UNK         0.0600 
    162 H162        6.6192  -19.6605  -43.9039 H         1 UNK         0.0600 
    163 H163        7.1733  -19.5842  -42.2392 H         1 UNK         0.0600 
    164 H164        5.3126  -18.5617  -40.7542 H         1 UNK         0.3000 
    165 H165        2.5007  -19.2177  -38.6545 H         1 UNK         0.0600 
    166 H166        4.2693  -19.2049  -36.9285 H         1 UNK         0.0600 
    167 H167        4.3337  -20.7085  -37.8329 H         1 UNK         0.0600 
    168 H168        5.5161  -19.4453  -38.1529 H         1 UNK         0.0600 
    169 H169        4.4282  -17.1975  -38.4306 H         1 UNK         0.3000 
    170 H170        3.6858  -15.0681  -38.6549 H         1 UNK         0.0600 
    171 H171        5.2476  -15.3538  -40.6030 H         1 UNK         0.0600 
    172 H172        3.9409  -14.9838  -41.7240 H         1 UNK         0.0600 
    173 H173        4.5326  -13.7489  -40.6160 H         1 UNK         0.0600 
    174 H174        1.4045  -14.9272  -40.5268 H         1 UNK         0.3000 
    175 H175       -0.4694  -13.7061  -39.3847 H         1 UNK         0.0600 
    176 H176        0.4779  -10.8736  -38.7002 H         1 UNK         0.0600 
    177 H177       -1.1983  -11.4019  -38.8443 H         1 UNK         0.0600 
    178 H178       -0.1856  -12.0387  -37.5596 H         1 UNK         0.0600 
    179 H179        0.3051  -11.4471  -41.0567 H         1 UNK         0.3000 
    180 H180       -0.4849  -11.6628  -43.3341 H         1 UNK         0.0600 
    181 H181        2.2948  -12.9373  -43.6648 H         1 UNK         0.0600 
    182 H182        1.9678  -11.3930  -42.8881 H         1 UNK         0.0600 
    183 H183        1.6758  -11.5826  -44.6083 H         1 UNK         0.0600 
    184 H184        0.4545  -13.7255  -45.0863 H         1 UNK         0.3000 
    185 H185       -0.9528  -15.6721  -45.6347 H         1 UNK         0.0600 
    186 H186       -3.1289  -16.2603  -46.6411 H         1 UNK         0.0600 
    187 H187       -3.3099  -15.9861  -44.9169 H         1 UNK         0.0600 
    188 H188       -3.8416  -14.7559  -46.0589 H         1 UNK         0.0600 
    189 H189       -2.1718  -14.0708  -47.7043 H         1 UNK         0.3000 
    190 H190       -0.5496  -20.4398  -45.5733 H         1 UNK         0.3000 
    191 H191       -2.5882  -20.6237  -47.5120 H         1 UNK         0.0600 
    192 H192       -3.9494  -19.3797  -45.8279 H         1 UNK         0.0600 
    193 H193       -2.3360  -18.7000  -45.9798 H         1 UNK         0.0600 
    194 H194       -2.7397  -19.7080  -44.5926 H         1 UNK         0.0600 
    195 H195       -2.2415  -22.3419  -44.3784 H         1 UNK         0.3000 
    196 H196       -4.6825  -23.7901  -44.4927 H         1 UNK         0.0600 
    197 H197       -2.0444  -24.4582  -43.0833 H         1 UNK         0.0600 
    198 H198       -3.3716  -23.5136  -42.4121 H         1 UNK         0.0600 
    199 H199       -3.5954  -25.2225  -42.7555 H         1 UNK         0.0600 
    200 H200       -1.4007  -24.6074  -45.7036 H         1 UNK         0.3000 
    201 H201       -2.0473  -27.2290  -46.6347 H         1 UNK         0.0600 
    202 H202        0.2747  -26.5181  -46.1796 H         1 UNK         0.0600 
    203 H203        0.1953  -25.3119  -47.4613 H         1 UNK         0.0600 
    204 H204        0.1242  -27.0254  -47.8551 H         1 UNK         0.0600 
    205 H205       -2.0118  -24.0330  -48.2728 H         1 UNK         0.3000 
    206 H206       -2.7561  -24.9712  -50.8635 H         1 UNK         0.0600 
    207 H207       -1.7142  -22.7567  -50.4989 H         1 UNK         0.0600 
    208 H208       -3.2799  -22.5532  -51.2707 H         1 UNK         0.0600 
    209 H209       -3.1001  -22.2197  -49.5527 H         1 UNK         0.0600 
    210 H210       -4.6661  -23.7581  -48.1217 H         1 UNK         0.3000 
    211 H211       -6.7011  -23.9571  -47.4057 H         1 UNK         0.0600 
    212 H212       -8.2778  -25.6774  -48.1850 H         1 UNK         0.0600 
    213 H213       -6.6678  -26.3655  -48.0309 H         1 UNK         0.0600 
    214 H214       -7.3173  -25.9757  -49.6242 H         1 UNK         0.0600 
    215 H215       -6.5143  -23.4682  -50.9177 H         1 UNK         0.3000 
    216 H216       -8.1187  -21.0417  -50.6928 H         1 UNK         0.0600 
    217 H217       -8.8563  -23.2988  -52.6560 H         1 UNK         0.0600 
    218 H218       -9.5425  -21.6778  -52.6662 H         1 UNK         0.0600 
    219 H219       -9.8558  -22.7512  -51.3109 H         1 UNK         0.0600 
    220 H220       -7.6097  -19.6035  -52.4320 H         1 UNK         0.3000 
    221 H221       -4.9304  -19.9718  -53.5353 H         1 UNK         0.0600 
    222 H222       -5.5954  -17.8378  -52.4480 H         1 UNK         0.0600 
    223 H223       -6.8614  -17.5989  -53.6524 H         1 UNK         0.0600 
    224 H224       -5.1672  -17.5788  -54.1282 H         1 UNK         0.0600 
    225 H225       -6.1214  -21.9037  -54.7080 H         1 UNK         0.3000 
    226 H226       -7.5646  -21.4839  -57.1195 H         1 UNK         0.0600 
    227 H227       -5.7096  -23.7754  -56.2719 H         1 UNK         0.0600 
    228 H228       -7.4440  -23.6762  -55.9720 H         1 UNK         0.0600 
    229 H229       -6.8437  -23.8315  -57.6166 H         1 UNK         0.0600 
    230 H230       -6.9116  -20.4476  -58.8847 H         1 UNK         0.3000 
    231 H231       -5.7394  -19.3687  -60.4210 H         1 UNK         0.0600 
    232 H232       -3.6992  -21.6490  -60.2230 H         1 UNK         0.0600 
    233 H233       -3.9076  -20.5471  -61.5770 H         1 UNK         0.0600 
    234 H234       -5.1773  -21.6932  -61.1831 H         1 UNK         0.0600 
    235 H235       -5.3273  -18.6284  -57.6730 H         1 UNK         0.3000 
    236 H236       -4.1902  -17.3424  -56.3075 H         1 UNK         0.0600 
    237 H237       -2.7423  -15.5580  -57.1818 H         1 UNK         0.0600 
    238 H238       -2.5489  -16.3968  -58.7142 H         1 UNK         0.0600 
    239 H239       -4.1229  -15.7532  -58.2474 H         1 UNK         0.0600 
    240 H240       -3.2065  -20.1148  -56.9288 H         1 UNK         0.3000 
    241 H241       -1.6737  -21.5566  -56.3945 H         1 UNK         0.0600 
    242 H242        0.3654  -20.0372  -59.2888 H         1 UNK         0.3800 
    243 H243       -1.2726  -19.6389  -58.8359 H         1 UNK         0.3800 
    244 H244       -0.2649  -19.4454  -54.6929 H         1 UNK         0.0800 
    245 H245        0.1197  -21.1387  -54.7026 H         1 UNK         0.0800 
    246 H246       -2.5983  -18.4865  -53.6322 H         1 UNK         0.0800 
    247 H247       -3.0989  -19.2629  -52.1512 H         1 UNK         0.0800 
@<TRIPOS>BOND
     1    1    2 1    
     2    1  127 1    
     3    1  128 1    
     4    1  129 1    
     5    2    3 2    
     6    2    4 am   BACKBONE|DICT|INTERRES
     7    4    5 1    
     8    4  130 1    
     9    5    6 1    
    10    5   65 1    
    11    5  131 1    
    12    6    7 1    
    13    6  132 1    
    14    6  133 1    
    15    7    8 1    
    16    8    9 1    
    17    8  134 1    
    18    8  135 1    
    19    9   10 ar   
    20    9   14 ar   
    21   10   11 ar   
    22   10  136 1    
    23   11   12 ar   
    24   11  126 1    
    25   12   13 ar   
    26   12  137 1    
    27   13   14 ar   
    28   13   15 1    
    29   14  138 1    
    30   15   16 1    
    31   15  139 1    
    32   15  140 1    
    33   16   17 1    
    34   17   18 1    
    35   17  141 1    
    36   17  142 1    
    37   18   19 1    
    38   18   67 1    
    39   18  143 1    
    40   19   20 am   BACKBONE|DICT|INTERRES
    41   19  144 1    
    42   20   21 2    
    43   20   22 1    
    44   22   23 1    
    45   22   24 1    
    46   22  145 1    
    47   23  146 1    
    48   23  147 1    
    49   23  148 1    
    50   24   25 am   BACKBONE|DICT|INTERRES
    51   24  149 1    
    52   25   26 2    
    53   25   27 1    
    54   27   28 1    
    55   27   29 1    
    56   27  150 1    
    57   28  151 1    
    58   28  152 1    
    59   28  153 1    
    60   29   30 am   BACKBONE|DICT|INTERRES
    61   29  154 1    
    62   30   31 2    
    63   30   32 1    
    64   32   33 1    
    65   32   34 1    
    66   32  155 1    
    67   33  156 1    
    68   33  157 1    
    69   33  158 1    
    70   34   35 am   BACKBONE|DICT|INTERRES
    71   34  159 1    
    72   35   36 2    
    73   35   37 1    
    74   37   38 1    
    75   37   39 1    
    76   37  160 1    
    77   38  161 1    
    78   38  162 1    
    79   38  163 1    
    80   39   40 am   BACKBONE|DICT|INTERRES
    81   39  164 1    
    82   40   41 2    
    83   40   42 1    
    84   42   43 1    
    85   42   44 1    
    86   42  165 1    
    87   43  166 1    
    88   43  167 1    
    89   43  168 1    
    90   44   45 am   BACKBONE|DICT|INTERRES
    91   44  169 1    
    92   45   46 2    
    93   45   47 1    
    94   47   48 1    
    95   47   49 1    
    96   47  170 1    
    97   48  171 1    
    98   48  172 1    
    99   48  173 1    
   100   49   50 am   BACKBONE|DICT|INTERRES
   101   49  174 1    
   102   50   51 2    
   103   50   52 1    
   104   52   53 1    
   105   52   54 1    
   106   52  175 1    
   107   53  176 1    
   108   53  177 1    
   109   53  178 1    
   110   54   55 am   BACKBONE|DICT|INTERRES
   111   54  179 1    
   112   55   56 2    
   113   55   57 1    
   114   57   58 1    
   115   57   59 1    
   116   57  180 1    
   117   58  181 1    
   118   58  182 1    
   119   58  183 1    
   120   59   60 am   BACKBONE|DICT|INTERRES
   121   59  184 1    
   122   60   61 2    
   123   60   62 1    
   124   62   63 1    
   125   62   64 1    
   126   62  185 1    
   127   63  186 1    
   128   63  187 1    
   129   63  188 1    
   130   64   65 am   BACKBONE|DICT|INTERRES
   131   64  189 1    
   132   65   66 2    
   133   67   68 2    
   134   67   69 am   BACKBONE|DICT|INTERRES
   135   69   70 1    
   136   69  190 1    
   137   70   71 1    
   138   70   72 1    
   139   70  191 1    
   140   71  192 1    
   141   71  193 1    
   142   71  194 1    
   143   72   73 2    
   144   72   74 am   BACKBONE|DICT|INTERRES
   145   74   75 1    
   146   74  195 1    
   147   75   76 1    
   148   75   77 1    
   149   75  196 1    
   150   76  197 1    
   151   76  198 1    
   152   76  199 1    
   153   77   78 2    
   154   77   79 am   BACKBONE|DICT|INTERRES
   155   79   80 1    
   156   79  200 1    
   157   80   81 1    
   158   80   82 1    
   159   80  201 1    
   160   81  202 1    
   161   81  203 1    
   162   81  204 1    
   163   82   83 2    
   164   82   84 am   BACKBONE|DICT|INTERRES
   165   84   85 1    
   166   84  205 1    
   167   85   86 1    
   168   85   87 1    
   169   85  206 1    
   170   86  207 1    
   171   86  208 1    
   172   86  209 1    
   173   87   88 2    
   174   87   89 am   BACKBONE|DICT|INTERRES
   175   89   90 1    
   176   89  210 1    
   177   90   91 1    
   178   90   92 1    
   179   90  211 1    
   180   91  212 1    
   181   91  213 1    
   182   91  214 1    
   183   92   93 2    
   184   92   94 am   BACKBONE|DICT|INTERRES
   185   94   95 1    
   186   94  215 1    
   187   95   96 1    
   188   95   97 1    
   189   95  216 1    
   190   96  217 1    
   191   96  218 1    
   192   96  219 1    
   193   97   98 2    
   194   97   99 am   BACKBONE|DICT|INTERRES
   195   99  100 1    
   196   99  220 1    
   197  100  101 1    
   198  100  102 1    
   199  100  221 1    
   200  101  222 1    
   201  101  223 1    
   202  101  224 1    
   203  102  103 2    
   204  102  104 am   BACKBONE|DICT|INTERRES
   205  104  105 1    
   206  104  225 1    
   207  105  106 1    
   208  105  107 1    
   209  105  226 1    
   210  106  227 1    
   211  106  228 1    
   212  106  229 1    
   213  107  108 2    
   214  107  109 am   BACKBONE|DICT|INTERRES
   215  109  110 1    
   216  109  230 1    
   217  110  111 1    
   218  110  112 1    
   219  110  231 1    
   220  111  232 1    
   221  111  233 1    
   222  111  234 1    
   223  112  113 2    
   224  112  114 am   BACKBONE|DICT|INTERRES
   225  114  115 1    
   226  114  235 1    
   227  115  116 1    
   228  115  117 1    
   229  115  236 1    
   230  116  237 1    
   231  116  238 1    
   232  116  239 1    
   233  117  118 2    
   234  117  119 am   BACKBONE|DICT|INTERRES
   235  119  120 1    
   236  119  240 1    
   237  120  121 1    
   238  120  124 1    
   239  120  241 1    
   240  121  122 am   BACKBONE|DICT|INTERRES
   241  121  123 2    
   242  122  242 1    
   243  122  243 1    
   244  124  125 1    
   245  124  244 1    
   246  124  245 1    
   247  125  126 1    
   248  126  246 1    
   249  126  247 1    
@<TRIPOS>SUBSTRUCTURE
     1 UNK         1 GROUP             0       ****    0 ROOT    
