@<TRIPOS>MOLECULE
3R540
247   249    1
SMALL
USER_CHARGES


@<TRIPOS>ATOM
      1 CA         -5.9712  -17.4777  -46.6237 C.3       0 UNK        -0.1800 
      2 C          -5.1328  -16.4144  -47.3198 C.2       0 UNK         0.5000 
      3 O          -4.9654  -15.3178  -46.7862 O.2       0 UNK        -0.5000 
      4 N          -4.6212  -16.7297  -48.5144 N.am      1 UNK        -0.5000 
      5 CA         -3.7590  -15.8626  -49.3207 C.3       1 UNK         0.1400 
      6 C6         -3.7190  -16.3008  -50.8092 C.3       23 UNK        -0.0398 
      7 S7         -3.4347  -18.0877  -51.0651 S.3       23 UNK        -0.2404 
      8 C8         -2.3733  -18.1061  -52.5389 C.3       23 UNK        -0.0205 
      9 C9         -0.9152  -17.8172  -52.2136 C.ar      23 UNK        -0.0193 
     10 C10        -0.2959  -16.6705  -52.7172 C.ar      23 UNK        -0.1150 
     11 C11         1.0650  -16.4428  -52.4921 C.ar      23 UNK        -0.0193 
     12 C12         1.7979  -17.3491  -51.7216 C.ar      23 UNK        -0.1150 
     13 C13         1.1876  -18.4907  -51.1974 C.ar      23 UNK        -0.0193 
     14 C14        -0.1677  -18.7249  -51.4559 C.ar      23 UNK        -0.1150 
     15 C15         2.0023  -19.4799  -50.3738 C.3       23 UNK        -0.0205 
     16 S16         2.4380  -18.8338  -48.7236 S.3       23 UNK        -0.2404 
     17 C17         0.7907  -18.6531  -47.9720 C.3       23 UNK        -0.0398 
     18 CA          0.3046  -19.9423  -47.2779 C.3       11 UNK         0.1400 
     19 N           1.1198  -20.2920  -46.1108 N.am      11 UNK        -0.5000 
     20 C           0.9429  -21.3632  -45.3262 C.2       10 UNK         0.5000 
     21 O           0.0638  -22.2077  -45.5102 O.2       10 UNK        -0.5000 
     22 CA          1.8425  -21.4797  -44.0819 C.3       10 UNK         0.1400 
     23 CB          3.0732  -20.5488  -44.0988 C.3       10 UNK        -0.1800 
     24 N           1.0710  -21.2720  -42.8549 N.am      10 UNK        -0.5000 
     25 C           0.2895  -20.2299  -42.5387 C.2       9 UNK         0.5000 
     26 O           0.1275  -19.2444  -43.2625 O.2       9 UNK        -0.5000 
     27 CA         -0.4402  -20.3004  -41.1833 C.3       9 UNK         0.1400 
     28 CB         -1.5708  -21.3453  -41.1998 C.3       9 UNK        -0.1800 
     29 N           0.4579  -20.4894  -40.0387 N.am      9 UNK        -0.5000 
     30 C           1.2482  -21.5306  -39.7314 C.2       8 UNK         0.5000 
     31 O           1.2451  -22.5949  -40.3528 O.2       8 UNK        -0.5000 
     32 CA          2.2329  -21.3417  -38.5578 C.3       8 UNK         0.1400 
     33 CB          3.6429  -21.8306  -38.9330 C.3       8 UNK        -0.1800 
     34 N           2.3256  -19.9340  -38.1689 N.am      8 UNK        -0.5000 
     35 C           1.9533  -19.4159  -36.9917 C.2       7 UNK         0.5000 
     36 O           1.5534  -20.0904  -36.0421 O.2       7 UNK        -0.5000 
     37 CA          2.0147  -17.8785  -36.8540 C.3       7 UNK         0.1400 
     38 CB          3.3239  -17.4548  -36.1712 C.3       7 UNK        -0.1800 
     39 N           1.8902  -17.1596  -38.1266 N.am      7 UNK        -0.5000 
     40 C           0.8213  -17.1968  -38.9348 C.2       6 UNK         0.5000 
     41 O          -0.2098  -17.8144  -38.6707 O.2       6 UNK        -0.5000 
     42 CA          0.9366  -16.4790  -40.2938 C.3       6 UNK         0.1400 
     43 CB          0.3972  -15.0457  -40.1719 C.3       6 UNK        -0.1800 
     44 N           2.2832  -16.4330  -40.8772 N.am      6 UNK        -0.5000 
     45 C           3.1253  -17.4616  -41.0565 C.2       5 UNK         0.5000 
     46 O           2.9083  -18.6096  -40.6696 O.2       5 UNK        -0.5000 
     47 CA          4.3937  -17.1421  -41.8550 C.3       5 UNK         0.1400 
     48 CB          5.4347  -18.2763  -41.8469 C.3       5 UNK        -0.1800 
     49 N           3.9738  -16.8471  -43.2183 N.am      5 UNK        -0.5000 
     50 C           4.5159  -15.9188  -44.0111 C.2       4 UNK         0.5000 
     51 O           5.5323  -15.2838  -43.7266 O.2       4 UNK        -0.5000 
     52 CA          3.7887  -15.6285  -45.3402 C.3       4 UNK         0.1400 
     53 CB          4.4431  -16.4125  -46.4883 C.3       4 UNK        -0.1800 
     54 N           2.3458  -15.9035  -45.3511 N.am      4 UNK        -0.5000 
     55 C           1.4262  -15.3855  -44.5213 C.2       3 UNK         0.5000 
     56 O           1.6987  -14.6979  -43.5362 O.2       3 UNK        -0.5000 
     57 CA         -0.0452  -15.6620  -44.9040 C.3       3 UNK         0.1400 
     58 CB         -1.0565  -14.9506  -43.9837 C.3       3 UNK        -0.1800 
     59 N          -0.3213  -15.3366  -46.3090 N.am      3 UNK        -0.5000 
     60 C          -0.0995  -14.1763  -46.9439 C.2       2 UNK         0.5000 
     61 O           0.3386  -13.1632  -46.3980 O.2       2 UNK        -0.5000 
     62 CA         -0.3984  -14.1341  -48.4558 C.3       2 UNK         0.1400 
     63 CB          0.6766  -14.8916  -49.2565 C.3       2 UNK        -0.1800 
     64 N          -1.7497  -14.5521  -48.8530 N.am      2 UNK        -0.5000 
     65 C          -2.3455  -15.7451  -48.7132 C.2       1 UNK         0.5000 
     66 O          -1.8310  -16.7146  -48.1522 O.2       1 UNK        -0.5000 
     67 C          -1.2000  -19.8235  -46.9689 C.2       11 UNK         0.5000 
     68 O          -2.0007  -20.1258  -47.8485 O.2       11 UNK        -0.5000 
     69 N          -1.5673  -19.4344  -45.7377 N.am      12 UNK        -0.5000 
     70 CA         -2.9658  -19.3386  -45.3177 C.3       12 UNK         0.1400 
     71 CB         -3.0625  -18.5376  -44.0111 C.3       12 UNK        -0.1800 
     72 C          -3.6548  -20.7113  -45.1776 C.2       12 UNK         0.5000 
     73 O          -4.8704  -20.7905  -45.3531 O.2       12 UNK        -0.5000 
     74 N          -2.8756  -21.7629  -44.8854 N.am      13 UNK        -0.5000 
     75 CA         -3.3464  -23.1473  -44.8269 C.3       13 UNK         0.1400 
     76 CB         -2.5700  -23.9101  -43.7425 C.3       13 UNK        -0.1800 
     77 C          -3.1982  -23.8427  -46.1900 C.2       13 UNK         0.5000 
     78 O          -4.0994  -24.5720  -46.6042 O.2       13 UNK        -0.5000 
     79 N          -2.0740  -23.5889  -46.8738 N.am      14 UNK        -0.5000 
     80 CA         -1.7286  -24.1633  -48.1773 C.3       14 UNK         0.1400 
     81 CB         -0.2086  -24.0443  -48.3754 C.3       14 UNK        -0.1800 
     82 C          -2.4865  -23.5398  -49.3695 C.2       14 UNK         0.5000 
     83 O          -2.2979  -23.9980  -50.4963 O.2       14 UNK        -0.5000 
     84 N          -3.3042  -22.5092  -49.1085 N.am      15 UNK        -0.5000 
     85 CA         -4.0487  -21.6979  -50.0732 C.3       15 UNK         0.1400 
     86 CB         -4.9577  -20.7184  -49.3067 C.3       15 UNK        -0.1800 
     87 C          -4.9045  -22.4959  -51.0687 C.2       15 UNK         0.5000 
     88 O          -4.9422  -22.1389  -52.2467 O.2       15 UNK        -0.5000 
     89 N          -5.6049  -23.5231  -50.5614 N.am      16 UNK        -0.5000 
     90 CA         -6.5692  -24.3673  -51.2783 C.3       16 UNK         0.1400 
     91 CB         -5.8451  -25.2451  -52.3215 C.3       16 UNK        -0.1800 
     92 C          -7.7208  -23.5357  -51.8842 C.2       16 UNK         0.5000 
     93 O          -8.0097  -23.6504  -53.0742 O.2       16 UNK        -0.5000 
     94 N          -8.3104  -22.6535  -51.0608 N.am      17 UNK        -0.5000 
     95 CA         -9.3047  -21.6347  -51.4376 C.3       17 UNK         0.1400 
     96 CB        -10.6267  -22.2866  -51.8955 C.3       17 UNK        -0.1800 
     97 C          -8.7463  -20.6117  -52.4549 C.2       17 UNK         0.5000 
     98 O          -9.4632  -20.1580  -53.3476 O.2       17 UNK        -0.5000 
     99 N          -7.4540  -20.2955  -52.2909 N.am      18 UNK        -0.5000 
    100 CA        -6.6017  -19.4317  -53.1143 C.3       18 UNK         0.1400 
    101 CB        -7.1499  -17.9924  -53.1871 C.3       18 UNK        -0.1800 
    102 C         -6.2500  -20.0091  -54.5021 C.2       18 UNK         0.5000 
    103 O         -5.6519  -19.2969  -55.3103 O.2       18 UNK        -0.5000 
    104 N         -6.5573  -21.2926  -54.7497 N.am      19 UNK        -0.5000 
    105 CA        -6.2189  -22.0076  -55.9841 C.3       19 UNK         0.1400 
    106 CB        -6.9815  -23.3387  -56.0413 C.3       19 UNK        -0.1800 
    107 C         -4.7074  -22.2471  -56.1681 C.2       19 UNK         0.5000 
    108 O         -4.2777  -22.4851  -57.2977 O.2       19 UNK        -0.5000 
    109 N         -3.9231  -22.1577  -55.0809 N.am      20 UNK        -0.5000 
    110 CA        -2.4572  -22.1777  -55.1133 C.3       20 UNK         0.1400 
    111 CB        -1.9140  -22.2281  -53.6773 C.3       20 UNK        -0.1800 
    112 C         -1.8546  -20.9877  -55.8909 C.2       20 UNK         0.5000 
    113 O         -0.7982  -21.1425  -56.5056 O.2       20 UNK        -0.5000 
    114 N         -2.5554  -19.8406  -55.8701 N.am      21 UNK        -0.5000 
    115 CA        -2.3816  -18.6569  -56.7244 C.3       21 UNK         0.1400 
    116 CB        -2.9282  -18.9677  -58.1325 C.3       21 UNK        -0.1800 
    117 C         -0.9572  -18.0567  -56.7732 C.2       21 UNK         0.5000 
    118 O         -0.5965  -17.4219  -57.7661 O.2       21 UNK        -0.5000 
    119 N         -0.1726  -18.2631  -55.7078 N.am      22 UNK        -0.5000 
    120 CA         1.2490  -17.8907  -55.6050 C.3       22 UNK         0.1400 
    121 C          2.2016  -18.7265  -56.5178 C.2       22 UNK         0.5000 
    122 N          1.7897  -19.8880  -57.0143 N.am      22 UNK        -0.7600 
    123 O          3.3400  -18.3380  -56.7652 O.2       22 UNK        -0.5000 
    124 C124        1.4691  -16.3491  -55.7064 C.3       23 UNK        -0.0398 
    125 S125        2.7531  -15.7272  -54.5649 S.3       23 UNK        -0.2404 
    126 C126        1.7576  -15.2418  -53.1162 C.3       23 UNK        -0.0205 
    127 H127       -5.6592  -17.5859  -45.5853 H         1 UNK         0.0600 
    128 H128       -7.0226  -17.1910  -46.6342 H         1 UNK         0.0600 
    129 H129       -5.8774  -18.4500  -47.1087 H         1 UNK         0.0600 
    130 H130       -4.7438  -17.6603  -48.8862 H         1 UNK         0.3000 
    131 H131       -4.2021  -14.8644  -49.2972 H         1 UNK         0.0600 
    132 H132       -4.6753  -16.0610  -51.2758 H         1 UNK         0.0800 
    133 H133       -2.9744  -15.7242  -51.3611 H         1 UNK         0.0800 
    134 H134       -2.7630  -17.4039  -53.2777 H         1 UNK         0.0800 
    135 H135       -2.4403  -19.0913  -52.9974 H         1 UNK         0.0800 
    136 H136       -0.8626  -15.9747  -53.3195 H         1 UNK         0.1150 
    137 H137        2.8495  -17.1740  -51.5429 H         1 UNK         0.1150 
    138 H138       -0.6464  -19.6125  -51.0656 H         1 UNK         0.1150 
    139 H139        1.4653  -20.4229  -50.2618 H         1 UNK         0.0800 
    140 H140        2.9216  -19.7172  -50.9108 H         1 UNK         0.0800 
    141 H141        0.8245  -17.8287  -47.2607 H         1 UNK         0.0800 
    142 H142        0.0896  -18.3432  -48.7467 H         1 UNK         0.0800 
    143 H143        0.4049  -20.7626  -47.9895 H         1 UNK         0.0600 
    144 H144        1.8649  -19.6527  -45.8808 H         1 UNK         0.3000 
    145 H145        2.2020  -22.5093  -44.0590 H         1 UNK         0.0600 
    146 H146        3.7231  -20.7763  -43.2549 H         1 UNK         0.0600 
    147 H147        3.6663  -20.6872  -45.0038 H         1 UNK         0.0600 
    148 H148        2.8002  -19.4958  -44.0298 H         1 UNK         0.0600 
    149 H149        1.1382  -22.0103  -42.1594 H         1 UNK         0.3000 
    150 H150       -0.9061  -19.3256  -41.0321 H         1 UNK         0.0600 
    151 H151       -2.2750  -21.1465  -42.0078 H         1 UNK         0.0600 
    152 H152       -2.1348  -21.3270  -40.2673 H         1 UNK         0.0600 
    153 H153       -1.1924  -22.3575  -41.3404 H         1 UNK         0.0600 
    154 H154        0.5346  -19.6767  -39.4401 H         1 UNK         0.3000 
    155 H155        1.8634  -21.9496  -37.7300 H         1 UNK         0.0600 
    156 H156        3.6404  -22.8922  -39.1829 H         1 UNK         0.0600 
    157 H157        4.3391  -21.6957  -38.1051 H         1 UNK         0.0600 
    158 H158        4.0372  -21.2890  -39.7942 H         1 UNK         0.0600 
    159 H159        2.6255  -19.3064  -38.9115 H         1 UNK         0.3000 
    160 H160        1.1812  -17.5745  -36.2175 H         1 UNK         0.0600 
    161 H161        4.1941  -17.7116  -36.7767 H         1 UNK         0.0600 
    162 H162        3.3451  -16.3801  -35.9893 H         1 UNK         0.0600 
    163 H163        3.4388  -17.9485  -35.2053 H         1 UNK         0.0600 
    164 H164        2.6978  -16.6359  -38.4305 H         1 UNK         0.3000 
    165 H165        0.3066  -17.0213  -41.0016 H         1 UNK         0.0600 
    166 H166        0.3950  -14.5355  -41.1345 H         1 UNK         0.0600 
    167 H167       -0.6294  -15.0433  -39.8028 H         1 UNK         0.0600 
    168 H168        0.9961  -14.4499  -39.4820 H         1 UNK         0.0600 
    169 H169        2.5407  -15.5455  -41.2882 H         1 UNK         0.3000 
    170 H170        4.8451  -16.2576  -41.4002 H         1 UNK         0.0600 
    171 H171        5.7346  -18.5222  -40.8276 H         1 UNK         0.0600 
    172 H172        5.0480  -19.1854  -42.3034 H         1 UNK         0.0600 
    173 H173        6.3341  -17.9873  -42.3906 H         1 UNK         0.0600 
    174 H174        3.1165  -17.2888  -43.5174 H         1 UNK         0.3000 
    175 H175        3.9108  -14.5627  -45.5430 H         1 UNK         0.0600 
    176 H176        4.3201  -17.4888  -46.3606 H         1 UNK         0.0600 
    177 H177        4.0135  -16.1377  -47.4520 H         1 UNK         0.0600 
    178 H178        5.5134  -16.2090  -46.5424 H         1 UNK         0.0600 
    179 H179        2.0135  -16.4245  -46.1471 H         1 UNK         0.3000 
    180 H180       -0.1993  -16.7366  -44.7962 H         1 UNK         0.0600 
    181 H181       -0.9700  -15.3127  -42.9593 H         1 UNK         0.0600 
    182 H182       -0.9017  -13.8712  -43.9685 H         1 UNK         0.0600 
    183 H183       -2.0812  -15.1347  -44.3066 H         1 UNK         0.0600 
    184 H184       -0.7640  -16.0665  -46.8656 H         1 UNK         0.3000 
    185 H185       -0.3260  -13.0849  -48.7470 H         1 UNK         0.0600 
    186 H186        1.6803  -14.5794  -48.9653 H         1 UNK         0.0600 
    187 H187        0.6159  -15.9696  -49.1142 H         1 UNK         0.0600 
    188 H188        0.5726  -14.6915  -50.3218 H         1 UNK         0.0600 
    189 H189       -2.2875  -13.8187  -49.2936 H         1 UNK         0.3000 
    190 H190       -0.8606  -19.2510  -45.0327 H         1 UNK         0.3000 
    191 H191       -3.5001  -18.7837  -46.0904 H         1 UNK         0.0600 
    192 H192       -4.1029  -18.4002  -43.7145 H         1 UNK         0.0600 
    193 H193       -2.6243  -17.5467  -44.1238 H         1 UNK         0.0600 
    194 H194       -2.5542  -19.0385  -43.1888 H         1 UNK         0.0600 
    195 H195       -1.8748  -21.6248  -44.8211 H         1 UNK         0.3000 
    196 H196       -4.4041  -23.1702  -44.5554 H         1 UNK         0.0600 
    197 H197       -2.8403  -24.9669  -43.7374 H         1 UNK         0.0600 
    198 H198       -2.7981  -23.5181  -42.7524 H         1 UNK         0.0600 
    199 H199       -1.4914  -23.8472  -43.8913 H         1 UNK         0.0600 
    200 H200       -1.3616  -23.0080  -46.4395 H         1 UNK         0.3000 
    201 H201       -1.9824  -25.2251  -48.1594 H         1 UNK         0.0600 
    202 H202        0.3351  -24.5111  -47.5538 H         1 UNK         0.0600 
    203 H203        0.1071  -23.0037  -48.4367 H         1 UNK         0.0600 
    204 H204        0.1086  -24.5375  -49.2950 H         1 UNK         0.0600 
    205 H205       -3.3161  -22.1703  -48.1575 H         1 UNK         0.3000 
    206 H206       -3.3186  -21.1245  -50.6470 H         1 UNK         0.0600 
    207 H207       -4.3793  -20.0300  -48.6934 H         1 UNK         0.0600 
    208 H208       -5.5481  -20.1080  -49.9904 H         1 UNK         0.0600 
    209 H209       -5.6523  -21.2409  -48.6479 H         1 UNK         0.0600 
    210 H210       -5.4851  -23.7284  -49.5791 H         1 UNK         0.3000 
    211 H211       -7.0201  -25.0316  -50.5399 H         1 UNK         0.0600 
    212 H212       -5.3926  -24.6478  -53.1138 H         1 UNK         0.0600 
    213 H213       -6.5376  -25.9430  -52.7934 H         1 UNK         0.0600 
    214 H214       -5.0545  -25.8345  -51.8572 H         1 UNK         0.0600 
    215 H215       -8.0082  -22.6333  -50.0968 H         1 UNK         0.3000 
    216 H216       -9.5193  -21.0679  -50.5305 H         1 UNK         0.0600 
    217 H217      -10.9897  -23.0019  -51.1577 H         1 UNK         0.0600 
    218 H218      -10.5162  -22.8106  -52.8452 H         1 UNK         0.0600 
    219 H219      -11.4059  -21.5353  -52.0283 H         1 UNK         0.0600 
    220 H220       -6.9647  -20.7827  -51.5559 H         1 UNK         0.3000 
    221 H221       -5.6512  -19.3821  -52.5831 H         1 UNK         0.0600 
    222 H222       -8.0657  -17.9351  -53.7755 H         1 UNK         0.0600 
    223 H223       -7.3615  -17.6005  -52.1923 H         1 UNK         0.0600 
    224 H224       -6.4245  -17.3217  -53.6491 H         1 UNK         0.0600 
    225 H225       -7.0101  -21.8362  -54.0256 H         1 UNK         0.3000 
    226 H226       -6.5538  -21.3928  -56.8220 H         1 UNK         0.0600 
    227 H227       -8.0522  -23.1907  -55.8992 H         1 UNK         0.0600 
    228 H228       -6.8455  -23.8234  -57.0087 H         1 UNK         0.0600 
    229 H229       -6.6311  -24.0343  -55.2784 H         1 UNK         0.0600 
    230 H230       -4.3598  -22.0249  -54.1731 H         1 UNK         0.3000 
    231 H231       -2.1468  -23.0909  -55.6252 H         1 UNK         0.0600 
    232 H232       -2.2585  -21.3838  -53.0816 H         1 UNK         0.0600 
    233 H233       -2.2343  -23.1392  -53.1716 H         1 UNK         0.0600 
    234 H234       -0.8233  -22.2175  -53.6668 H         1 UNK         0.0600 
    235 H235       -3.4211  -19.8463  -55.3460 H         1 UNK         0.3000 
    236 H236       -3.0144  -17.8811  -56.2912 H         1 UNK         0.0600 
    237 H237       -3.9490  -19.3477  -58.0818 H         1 UNK         0.0600 
    238 H238       -2.9490  -18.0747  -58.7581 H         1 UNK         0.0600 
    239 H239       -2.3188  -19.7149  -58.6422 H         1 UNK         0.0600 
    240 H240       -0.5391  -18.8118  -54.9449 H         1 UNK         0.3000 
    241 H241        1.5236  -18.2032  -54.5980 H         1 UNK         0.0600 
    242 H242        2.4128  -20.4249  -57.5959 H         1 UNK         0.3800 
    243 H243        0.8574  -20.2444  -56.8185 H         1 UNK         0.3800 
    244 H244        0.5451  -15.8135  -55.4862 H         1 UNK         0.0800 
    245 H245        1.7287  -16.0579  -56.7255 H         1 UNK         0.0800 
    246 H246        2.4097  -14.7750  -52.3766 H         1 UNK         0.0800 
    247 H247        1.0315  -14.4812  -53.4075 H         1 UNK         0.0800 
@<TRIPOS>BOND
     1    1    2 1    
     2    1  127 1    
     3    1  128 1    
     4    1  129 1    
     5    2    3 2    
     6    2    4 am   BACKBONE|DICT|INTERRES
     7    4    5 1    
     8    4  130 1    
     9    5    6 1    
    10    5   65 1    
    11    5  131 1    
    12    6    7 1    
    13    6  132 1    
    14    6  133 1    
    15    7    8 1    
    16    8    9 1    
    17    8  134 1    
    18    8  135 1    
    19    9   10 ar   
    20    9   14 ar   
    21   10   11 ar   
    22   10  136 1    
    23   11   12 ar   
    24   11  126 1    
    25   12   13 ar   
    26   12  137 1    
    27   13   14 ar   
    28   13   15 1    
    29   14  138 1    
    30   15   16 1    
    31   15  139 1    
    32   15  140 1    
    33   16   17 1    
    34   17   18 1    
    35   17  141 1    
    36   17  142 1    
    37   18   19 1    
    38   18   67 1    
    39   18  143 1    
    40   19   20 am   BACKBONE|DICT|INTERRES
    41   19  144 1    
    42   20   21 2    
    43   20   22 1    
    44   22   23 1    
    45   22   24 1    
    46   22  145 1    
    47   23  146 1    
    48   23  147 1    
    49   23  148 1    
    50   24   25 am   BACKBONE|DICT|INTERRES
    51   24  149 1    
    52   25   26 2    
    53   25   27 1    
    54   27   28 1    
    55   27   29 1    
    56   27  150 1    
    57   28  151 1    
    58   28  152 1    
    59   28  153 1    
    60   29   30 am   BACKBONE|DICT|INTERRES
    61   29  154 1    
    62   30   31 2    
    63   30   32 1    
    64   32   33 1    
    65   32   34 1    
    66   32  155 1    
    67   33  156 1    
    68   33  157 1    
    69   33  158 1    
    70   34   35 am   BACKBONE|DICT|INTERRES
    71   34  159 1    
    72   35   36 2    
    73   35   37 1    
    74   37   38 1    
    75   37   39 1    
    76   37  160 1    
    77   38  161 1    
    78   38  162 1    
    79   38  163 1    
    80   39   40 am   BACKBONE|DICT|INTERRES
    81   39  164 1    
    82   40   41 2    
    83   40   42 1    
    84   42   43 1    
    85   42   44 1    
    86   42  165 1    
    87   43  166 1    
    88   43  167 1    
    89   43  168 1    
    90   44   45 am   BACKBONE|DICT|INTERRES
    91   44  169 1    
    92   45   46 2    
    93   45   47 1    
    94   47   48 1    
    95   47   49 1    
    96   47  170 1    
    97   48  171 1    
    98   48  172 1    
    99   48  173 1    
   100   49   50 am   BACKBONE|DICT|INTERRES
   101   49  174 1    
   102   50   51 2    
   103   50   52 1    
   104   52   53 1    
   105   52   54 1    
   106   52  175 1    
   107   53  176 1    
   108   53  177 1    
   109   53  178 1    
   110   54   55 am   BACKBONE|DICT|INTERRES
   111   54  179 1    
   112   55   56 2    
   113   55   57 1    
   114   57   58 1    
   115   57   59 1    
   116   57  180 1    
   117   58  181 1    
   118   58  182 1    
   119   58  183 1    
   120   59   60 am   BACKBONE|DICT|INTERRES
   121   59  184 1    
   122   60   61 2    
   123   60   62 1    
   124   62   63 1    
   125   62   64 1    
   126   62  185 1    
   127   63  186 1    
   128   63  187 1    
   129   63  188 1    
   130   64   65 am   BACKBONE|DICT|INTERRES
   131   64  189 1    
   132   65   66 2    
   133   67   68 2    
   134   67   69 am   BACKBONE|DICT|INTERRES
   135   69   70 1    
   136   69  190 1    
   137   70   71 1    
   138   70   72 1    
   139   70  191 1    
   140   71  192 1    
   141   71  193 1    
   142   71  194 1    
   143   72   73 2    
   144   72   74 am   BACKBONE|DICT|INTERRES
   145   74   75 1    
   146   74  195 1    
   147   75   76 1    
   148   75   77 1    
   149   75  196 1    
   150   76  197 1    
   151   76  198 1    
   152   76  199 1    
   153   77   78 2    
   154   77   79 am   BACKBONE|DICT|INTERRES
   155   79   80 1    
   156   79  200 1    
   157   80   81 1    
   158   80   82 1    
   159   80  201 1    
   160   81  202 1    
   161   81  203 1    
   162   81  204 1    
   163   82   83 2    
   164   82   84 am   BACKBONE|DICT|INTERRES
   165   84   85 1    
   166   84  205 1    
   167   85   86 1    
   168   85   87 1    
   169   85  206 1    
   170   86  207 1    
   171   86  208 1    
   172   86  209 1    
   173   87   88 2    
   174   87   89 am   BACKBONE|DICT|INTERRES
   175   89   90 1    
   176   89  210 1    
   177   90   91 1    
   178   90   92 1    
   179   90  211 1    
   180   91  212 1    
   181   91  213 1    
   182   91  214 1    
   183   92   93 2    
   184   92   94 am   BACKBONE|DICT|INTERRES
   185   94   95 1    
   186   94  215 1    
   187   95   96 1    
   188   95   97 1    
   189   95  216 1    
   190   96  217 1    
   191   96  218 1    
   192   96  219 1    
   193   97   98 2    
   194   97   99 am   BACKBONE|DICT|INTERRES
   195   99  100 1    
   196   99  220 1    
   197  100  101 1    
   198  100  102 1    
   199  100  221 1    
   200  101  222 1    
   201  101  223 1    
   202  101  224 1    
   203  102  103 2    
   204  102  104 am   BACKBONE|DICT|INTERRES
   205  104  105 1    
   206  104  225 1    
   207  105  106 1    
   208  105  107 1    
   209  105  226 1    
   210  106  227 1    
   211  106  228 1    
   212  106  229 1    
   213  107  108 2    
   214  107  109 am   BACKBONE|DICT|INTERRES
   215  109  110 1    
   216  109  230 1    
   217  110  111 1    
   218  110  112 1    
   219  110  231 1    
   220  111  232 1    
   221  111  233 1    
   222  111  234 1    
   223  112  113 2    
   224  112  114 am   BACKBONE|DICT|INTERRES
   225  114  115 1    
   226  114  235 1    
   227  115  116 1    
   228  115  117 1    
   229  115  236 1    
   230  116  237 1    
   231  116  238 1    
   232  116  239 1    
   233  117  118 2    
   234  117  119 am   BACKBONE|DICT|INTERRES
   235  119  120 1    
   236  119  240 1    
   237  120  121 1    
   238  120  124 1    
   239  120  241 1    
   240  121  122 am   BACKBONE|DICT|INTERRES
   241  121  123 2    
   242  122  242 1    
   243  122  243 1    
   244  124  125 1    
   245  124  244 1    
   246  124  245 1    
   247  125  126 1    
   248  126  246 1    
   249  126  247 1    
@<TRIPOS>SUBSTRUCTURE
     1 UNK         1 GROUP             0       ****    0 ROOT    
