@<TRIPOS>MOLECULE
3R540
247   249    1
SMALL
USER_CHARGES


@<TRIPOS>ATOM
      1 CA         -1.8739  -14.8700  -51.6949 C.3       0 UNK        -0.1800 
      2 C          -0.8301  -14.0864  -50.9161 C.2       0 UNK         0.5000 
      3 O          -1.0905  -12.9624  -50.4849 O.2       0 UNK        -0.5000 
      4 N           0.3531  -14.6804  -50.7259 N.am      1 UNK        -0.5000 
      5 CA          1.5171  -14.0855  -50.0567 C.3       1 UNK         0.1400 
      6 C6          2.8559  -14.6893  -50.5586 C.3       23 UNK        -0.0398 
      7 S7          3.0232  -14.6530  -52.3798 S.3       23 UNK        -0.2404 
      8 C8          3.0440  -16.4267  -52.8038 C.3       23 UNK        -0.0205 
      9 C9          1.6885  -17.0945  -52.6127 C.ar      23 UNK        -0.0193 
     10 C10         0.7410  -17.0835  -53.6410 C.ar      23 UNK        -0.1150 
     11 C11        -0.4921  -17.7225  -53.4755 C.ar      23 UNK        -0.0193 
     12 C12        -0.7727  -18.3789  -52.2752 C.ar      23 UNK        -0.1150 
     13 C13         0.1517  -18.3716  -51.2277 C.ar      23 UNK        -0.0193 
     14 C14         1.3837  -17.7362  -51.4092 C.ar      23 UNK        -0.1150 
     15 C15        -0.2060  -18.9861  -49.8817 C.3       23 UNK        -0.0205 
     16 S16         1.0697  -20.1235  -49.2581 S.3       23 UNK        -0.2404 
     17 C17         0.5719  -20.2313  -47.5100 C.3       23 UNK        -0.0398 
     18 CA          0.1962  -21.6575  -47.0523 C.3       11 UNK         0.1400 
     19 N           0.2107  -21.7523  -45.5942 N.am      11 UNK        -0.5000 
     20 C           0.1165  -22.8919  -44.9011 C.2       10 UNK         0.5000 
     21 O           0.0529  -24.0035  -45.4245 O.2       10 UNK        -0.5000 
     22 CA          0.0328  -22.7617  -43.3700 C.3       10 UNK         0.1400 
     23 CB          1.4277  -22.5544  -42.7629 C.3       10 UNK        -0.1800 
     24 N          -0.8555  -21.6767  -42.9471 N.am      10 UNK        -0.5000 
     25 C          -2.1738  -21.6435  -43.1914 C.2       9 UNK         0.5000 
     26 O          -2.7848  -22.5436  -43.7689 O.2       9 UNK        -0.5000 
     27 CA         -2.9303  -20.3745  -42.7598 C.3       9 UNK         0.1400 
     28 CB         -3.1879  -20.3789  -41.2458 C.3       9 UNK        -0.1800 
     29 N          -2.2384  -19.1422  -43.1402 N.am      9 UNK        -0.5000 
     30 C          -1.9825  -18.7727  -44.4037 C.2       8 UNK         0.5000 
     31 O          -2.3168  -19.4229  -45.3912 O.2       8 UNK        -0.5000 
     32 CA         -1.1683  -17.4852  -44.6026 C.3       8 UNK         0.1400 
     33 CB         -2.0526  -16.2484  -44.3885 C.3       8 UNK        -0.1800 
     34 N          -0.0051  -17.4213  -43.7205 N.am      8 UNK        -0.5000 
     35 C           1.0014  -18.3068  -43.7061 C.2       7 UNK         0.5000 
     36 O           1.0813  -19.2691  -44.4672 O.2       7 UNK        -0.5000 
     37 CA          2.0677  -18.1190  -42.6159 C.3       7 UNK         0.1400 
     38 CB          3.0598  -17.0087  -42.9966 C.3       7 UNK        -0.1800 
     39 N           1.4649  -17.8272  -41.3160 N.am      7 UNK        -0.5000 
     40 C           0.7117  -18.6907  -40.6189 C.2       6 UNK         0.5000 
     41 O           0.4766  -19.8447  -40.9787 O.2       6 UNK        -0.5000 
     42 CA          0.0819  -18.1540  -39.3213 C.3       6 UNK         0.1400 
     43 CB          1.0840  -18.2281  -38.1597 C.3       6 UNK        -0.1800 
     44 N          -0.3981  -16.7781  -39.4641 N.am      6 UNK        -0.5000 
     45 C          -1.4344  -16.4187  -40.2345 C.2       5 UNK         0.5000 
     46 O          -2.1112  -17.2146  -40.8857 O.2       5 UNK        -0.5000 
     47 CA         -1.7301  -14.9099  -40.3289 C.3       5 UNK         0.1400 
     48 CB         -2.5630  -14.4434  -39.1256 C.3       5 UNK        -0.1800 
     49 N          -0.5204  -14.0863  -40.4370 N.am      5 UNK        -0.5000 
     50 C           0.3441  -14.1548  -41.4566 C.2       4 UNK         0.5000 
     51 O           0.2327  -14.9519  -42.3915 O.2       4 UNK        -0.5000 
     52 CA          1.5470  -13.2042  -41.4247 C.3       4 UNK         0.1400 
     53 CB          2.6553  -13.7462  -40.5050 C.3       4 UNK        -0.1800 
     54 N           2.0420  -13.0915  -42.7902 N.am      4 UNK        -0.5000 
     55 C           2.7551  -12.0876  -43.3076 C.2       3 UNK         0.5000 
     56 O           3.1655  -11.1291  -42.6521 O.2       3 UNK        -0.5000 
     57 CA          3.0501  -12.1623  -44.8205 C.3       3 UNK         0.1400 
     58 CB          4.4380  -12.7739  -45.0654 C.3       3 UNK        -0.1800 
     59 N           2.0565  -12.9312  -45.5780 N.am      3 UNK        -0.5000 
     60 C           0.7812  -12.5713  -45.7711 C.2       2 UNK         0.5000 
     61 O           0.3023  -11.5151  -45.3546 O.2       2 UNK        -0.5000 
     62 CA         -0.0872  -13.5546  -46.5830 C.3       2 UNK         0.1400 
     63 CB         -1.5896  -13.2315  -46.4906 C.3       2 UNK        -0.1800 
     64 N           0.2902  -13.5829  -47.9945 N.am      2 UNK        -0.5000 
     65 C           1.3723  -14.1696  -48.5189 C.2       1 UNK         0.5000 
     66 O           2.2056  -14.7749  -47.8410 O.2       1 UNK        -0.5000 
     67 C          -1.1493  -22.1393  -47.6404 C.2       11 UNK         0.5000 
     68 O          -1.1600  -22.9216  -48.5922 O.2       11 UNK        -0.5000 
     69 N          -2.2614  -21.6958  -47.0395 N.am      12 UNK        -0.5000 
     70 CA         -3.6153  -22.0607  -47.4379 C.3       12 UNK         0.1400 
     71 CB         -4.6447  -21.2077  -46.6807 C.3       12 UNK        -0.1800 
     72 C          -3.9208  -23.5555  -47.2622 C.2       12 UNK         0.5000 
     73 O          -4.3796  -24.1857  -48.2153 O.2       12 UNK        -0.5000 
     74 N          -3.6859  -24.0771  -46.0514 N.am      13 UNK        -0.5000 
     75 CA         -4.1004  -25.4180  -45.6488 C.3       13 UNK         0.1400 
     76 CB         -4.5076  -25.4024  -44.1656 C.3       13 UNK        -0.1800 
     77 C          -3.0204  -26.4776  -45.9111 C.2       13 UNK         0.5000 
     78 O          -3.2778  -27.4311  -46.6457 O.2       13 UNK        -0.5000 
     79 N          -1.8477  -26.3199  -45.2819 N.am      14 UNK        -0.5000 
     80 CA         -0.7960  -27.3400  -45.2474 C.3       14 UNK         0.1400 
     81 CB          0.1563  -27.0801  -44.0687 C.3       14 UNK        -0.1800 
     82 C          -0.0294  -27.4527  -46.5744 C.2       14 UNK         0.5000 
     83 O           0.1977  -28.5673  -47.0470 O.2       14 UNK        -0.5000 
     84 N           0.3268  -26.3054  -47.1688 N.am      15 UNK        -0.5000 
     85 CA          0.9479  -26.2408  -48.4971 C.3       15 UNK         0.1400 
     86 CB          1.7570  -24.9430  -48.6330 C.3       15 UNK        -0.1800 
     87 C          -0.0835  -26.3687  -49.6375 C.2       15 UNK         0.5000 
     88 O           0.3110  -26.6113  -50.7785 O.2       15 UNK        -0.5000 
     89 N          -1.3750  -26.2180  -49.3043 N.am      16 UNK        -0.5000 
     90 CA         -2.5505  -26.3641  -50.1681 C.3       16 UNK         0.1400 
     91 CB         -2.6846  -27.8200  -50.6619 C.3       16 UNK        -0.1800 
     92 C          -2.6169  -25.3315  -51.3144 C.2       16 UNK         0.5000 
     93 O          -3.1887  -25.6220  -52.3667 O.2       16 UNK        -0.5000 
     94 N          -2.0485  -24.1374  -51.0963 N.am      17 UNK        -0.5000 
     95 CA         -2.0102  -23.0462  -52.0736 C.3       17 UNK         0.1400 
     96 CB         -0.7057  -22.2575  -51.8853 C.3       17 UNK        -0.1800 
     97 C          -3.2359  -22.1156  -51.9826 C.2       17 UNK         0.5000 
     98 O          -3.3006  -21.1376  -52.7256 O.2       17 UNK        -0.5000 
     99 N          -4.1655  -22.3981  -51.0561 N.am      18 UNK        -0.5000 
    100 CA        -5.4579  -21.7369  -50.8056 C.3       18 UNK         0.1400 
    101 CB        -6.3829  -21.8906  -52.0286 C.3       18 UNK        -0.1800 
    102 C         -5.4014  -20.2613  -50.3453 C.2       18 UNK         0.5000 
    103 O         -6.4193  -19.7498  -49.8793 O.2       18 UNK        -0.5000 
    104 N         -4.2370  -19.6096  -50.4761 N.am      19 UNK        -0.5000 
    105 CA        -3.9729  -18.1866  -50.2281 C.3       19 UNK         0.1400 
    106 CB        -4.1402  -17.8236  -48.7382 C.3       19 UNK        -0.1800 
    107 C         -4.7344  -17.2487  -51.1903 C.2       19 UNK         0.5000 
    108 O         -4.9877  -16.0935  -50.8474 O.2       19 UNK        -0.5000 
    109 N         -5.0572  -17.7527  -52.3885 N.am      20 UNK        -0.5000 
    110 CA        -5.7594  -17.0610  -53.4644 C.3       20 UNK         0.1400 
    111 CB        -7.2147  -16.7541  -53.0526 C.3       20 UNK        -0.1800 
    112 C         -5.7463  -17.9504  -54.7172 C.2       20 UNK         0.5000 
    113 O         -5.5322  -19.1592  -54.6058 O.2       20 UNK        -0.5000 
    114 N         -6.0278  -17.3343  -55.8738 N.am      21 UNK        -0.5000 
    115 CA        -6.2896  -17.9704  -57.1719 C.3       21 UNK         0.1400 
    116 CB        -7.5929  -18.7968  -57.1127 C.3       21 UNK        -0.1800 
    117 C         -5.1015  -18.7656  -57.7582 C.2       21 UNK         0.5000 
    118 O         -5.3127  -19.7810  -58.4250 O.2       21 UNK        -0.5000 
    119 N         -3.8745  -18.2756  -57.5355 N.am      22 UNK        -0.5000 
    120 CA        -2.6444  -18.8367  -58.1291 C.3       22 UNK         0.1400 
    121 C         -2.4341  -18.4790  -59.6319 C.2       22 UNK         0.5000 
    122 N         -3.1891  -17.5549  -60.2144 N.am      22 UNK        -0.7600 
    123 O         -1.5717  -19.0587  -60.2864 O.2       22 UNK        -0.5000 
    124 C124       -1.3782  -18.4868  -57.3069 C.3       23 UNK        -0.0398 
    125 S125       -1.4221  -19.1801  -55.6188 S.3       23 UNK        -0.2404 
    126 C126       -1.5336  -17.6906  -54.5811 C.3       23 UNK        -0.0205 
    127 H127       -2.8624  -14.4291  -51.5656 H         1 UNK         0.0600 
    128 H128       -1.9164  -15.9015  -51.3490 H         1 UNK         0.0600 
    129 H129       -1.6345  -14.8685  -52.7581 H         1 UNK         0.0600 
    130 H130        0.5066  -15.6025  -51.1115 H         1 UNK         0.3000 
    131 H131        1.5408  -13.0223  -50.3058 H         1 UNK         0.0600 
    132 H132        3.6923  -14.1250  -50.1427 H         1 UNK         0.0800 
    133 H133        2.9863  -15.7090  -50.1981 H         1 UNK         0.0800 
    134 H134        3.8063  -16.9356  -52.2117 H         1 UNK         0.0800 
    135 H135        3.3551  -16.5314  -53.8442 H         1 UNK         0.0800 
    136 H136        0.9654  -16.5808  -54.5714 H         1 UNK         0.1150 
    137 H137       -1.7211  -18.8827  -52.1623 H         1 UNK         0.1150 
    138 H138        2.1059  -17.7441  -50.6056 H         1 UNK         0.1150 
    139 H139       -0.3493  -18.1696  -49.1725 H         1 UNK         0.0800 
    140 H140       -1.1508  -19.5282  -49.9338 H         1 UNK         0.0800 
    141 H141       -0.2302  -19.5274  -47.2830 H         1 UNK         0.0800 
    142 H142        1.4357  -19.8845  -46.9423 H         1 UNK         0.0800 
    143 H143        0.9754  -22.3312  -47.4086 H         1 UNK         0.0600 
    144 H144        0.3075  -20.8767  -45.0861 H         1 UNK         0.3000 
    145 H145       -0.3721  -23.6978  -42.9800 H         1 UNK         0.0600 
    146 H146        1.3847  -22.5437  -41.6737 H         1 UNK         0.0600 
    147 H147        2.1046  -23.3585  -43.0547 H         1 UNK         0.0600 
    148 H148        1.8731  -21.6134  -43.0877 H         1 UNK         0.0600 
    149 H149       -0.4280  -20.9079  -42.4398 H         1 UNK         0.3000 
    150 H150       -3.8974  -20.3796  -43.2667 H         1 UNK         0.0600 
    151 H151       -3.8049  -19.5303  -40.9498 H         1 UNK         0.0600 
    152 H152       -3.7129  -21.2850  -40.9409 H         1 UNK         0.0600 
    153 H153       -2.2586  -20.3293  -40.6778 H         1 UNK         0.0600 
    154 H154       -1.9605  -18.5247  -42.3836 H         1 UNK         0.3000 
    155 H155       -0.8023  -17.4707  -45.6312 H         1 UNK         0.0600 
    156 H156       -2.5034  -16.2386  -43.3961 H         1 UNK         0.0600 
    157 H157       -2.8623  -16.2167  -45.1184 H         1 UNK         0.0600 
    158 H158       -1.4783  -15.3304  -44.4944 H         1 UNK         0.0600 
    159 H159        0.0306  -16.6313  -43.0803 H         1 UNK         0.3000 
    160 H160        2.6235  -19.0549  -42.5276 H         1 UNK         0.0600 
    161 H161        2.5699  -16.0416  -43.1047 H         1 UNK         0.0600 
    162 H162        3.5475  -17.2338  -43.9459 H         1 UNK         0.0600 
    163 H163        3.8436  -16.9056  -42.2461 H         1 UNK         0.0600 
    164 H164        1.5694  -16.8877  -40.9658 H         1 UNK         0.3000 
    165 H165       -0.7716  -18.7903  -39.0772 H         1 UNK         0.0600 
    166 H166        0.6226  -17.9199  -37.2214 H         1 UNK         0.0600 
    167 H167        1.4468  -19.2477  -38.0227 H         1 UNK         0.0600 
    168 H168        1.9522  -17.5909  -38.3326 H         1 UNK         0.0600 
    169 H169        0.1048  -16.0605  -38.9633 H         1 UNK         0.3000 
    170 H170       -2.3223  -14.7496  -41.2325 H         1 UNK         0.0600 
    171 H171       -3.4772  -15.0314  -39.0325 H         1 UNK         0.0600 
    172 H172       -2.0121  -14.5425  -38.1895 H         1 UNK         0.0600 
    173 H173       -2.8595  -13.3998  -39.2322 H         1 UNK         0.0600 
    174 H174       -0.3630  -13.4139  -39.6999 H         1 UNK         0.3000 
    175 H175        1.2127  -12.2253  -41.0752 H         1 UNK         0.0600 
    176 H176        3.0109  -14.7228  -40.8350 H         1 UNK         0.0600 
    177 H177        3.5115  -13.0721  -40.4795 H         1 UNK         0.0600 
    178 H178        2.2988  -13.8535  -39.4800 H         1 UNK         0.0600 
    179 H179        1.6987  -13.8187  -43.4048 H         1 UNK         0.3000 
    180 H180        3.0522  -11.1407  -45.2060 H         1 UNK         0.0600 
    181 H181        4.4894  -13.8060  -44.7159 H         1 UNK         0.0600 
    182 H182        5.2118  -12.2106  -44.5421 H         1 UNK         0.0600 
    183 H183        4.6916  -12.7654  -46.1257 H         1 UNK         0.0600 
    184 H184        2.3797  -13.7792  -46.0313 H         1 UNK         0.3000 
    185 H185        0.0677  -14.5503  -46.1622 H         1 UNK         0.0600 
    186 H186       -1.9169  -13.1663  -45.4522 H         1 UNK         0.0600 
    187 H187       -1.8269  -12.2799  -46.9681 H         1 UNK         0.0600 
    188 H188       -2.1882  -14.0053  -46.9719 H         1 UNK         0.0600 
    189 H189       -0.3415  -13.1211  -48.6415 H         1 UNK         0.3000 
    190 H190       -2.1832  -21.0188  -46.2835 H         1 UNK         0.3000 
    191 H191       -3.7040  -21.8245  -48.4959 H         1 UNK         0.0600 
    192 H192       -4.5129  -20.1477  -46.8904 H         1 UNK         0.0600 
    193 H193       -5.6620  -21.4687  -46.9752 H         1 UNK         0.0600 
    194 H194       -4.5682  -21.3442  -45.6017 H         1 UNK         0.0600 
    195 H195       -3.2977  -23.4820  -45.3226 H         1 UNK         0.3000 
    196 H196       -4.9863  -25.7055  -46.2197 H         1 UNK         0.0600 
    197 H197       -4.8431  -26.3886  -43.8424 H         1 UNK         0.0600 
    198 H198       -5.3291  -24.7070  -43.9925 H         1 UNK         0.0600 
    199 H199       -3.6824  -25.1078  -43.5165 H         1 UNK         0.0600 
    200 H200       -1.6701  -25.4667  -44.7708 H         1 UNK         0.3000 
    201 H201       -1.2754  -28.3048  -45.0668 H         1 UNK         0.0600 
    202 H202       -0.3874  -27.0316  -43.1252 H         1 UNK         0.0600 
    203 H203        0.7124  -26.1506  -44.1835 H         1 UNK         0.0600 
    204 H204        0.8878  -27.8842  -43.9800 H         1 UNK         0.0600 
    205 H205        0.1431  -25.4273  -46.6878 H         1 UNK         0.3000 
    206 H206        1.6480  -27.0735  -48.5927 H         1 UNK         0.0600 
    207 H207        2.3744  -24.7574  -47.7539 H         1 UNK         0.0600 
    208 H208        2.4224  -24.9954  -49.4954 H         1 UNK         0.0600 
    209 H209        1.1107  -24.0827  -48.7860 H         1 UNK         0.0600 
    210 H210       -1.5733  -26.0047  -48.3375 H         1 UNK         0.3000 
    211 H211       -3.4142  -26.1671  -49.5343 H         1 UNK         0.0600 
    212 H212       -1.8938  -28.0854  -51.3640 H         1 UNK         0.0600 
    213 H213       -3.6375  -27.9758  -51.1688 H         1 UNK         0.0600 
    214 H214       -2.6446  -28.5221  -49.8288 H         1 UNK         0.0600 
    215 H215       -1.6286  -23.9421  -50.1905 H         1 UNK         0.3000 
    216 H216       -1.9997  -23.4625  -53.0829 H         1 UNK         0.0600 
    217 H217       -0.5961  -21.4852  -52.6480 H         1 UNK         0.0600 
    218 H218        0.1656  -22.9089  -51.9547 H         1 UNK         0.0600 
    219 H219       -0.6783  -21.7651  -50.9157 H         1 UNK         0.0600 
    220 H220       -3.9841  -23.2037  -50.4717 H         1 UNK         0.3000 
    221 H221       -5.9120  -22.2883  -49.9808 H         1 UNK         0.0600 
    222 H222       -6.0040  -21.3475  -52.8949 H         1 UNK         0.0600 
    223 H223       -6.4926  -22.9376  -52.3110 H         1 UNK         0.0600 
    224 H224       -7.3812  -21.5059  -51.8167 H         1 UNK         0.0600 
    225 H225       -3.5103  -20.1144  -50.9685 H         1 UNK         0.3000 
    226 H226       -2.9230  -18.0257  -50.4594 H         1 UNK         0.0600 
    227 H227       -3.4975  -18.4427  -48.1125 H         1 UNK         0.0600 
    228 H228       -3.8577  -16.7868  -48.5520 H         1 UNK         0.0600 
    229 H229       -5.1682  -17.9468  -48.3982 H         1 UNK         0.0600 
    230 H230       -4.8128  -18.7108  -52.6142 H         1 UNK         0.3000 
    231 H231       -5.2311  -16.1321  -53.6880 H         1 UNK         0.0600 
    232 H232       -7.7462  -17.6620  -52.7641 H         1 UNK         0.0600 
    233 H233       -7.7704  -16.2954  -53.8712 H         1 UNK         0.0600 
    234 H234       -7.2607  -16.0606  -52.2134 H         1 UNK         0.0600 
    235 H235       -6.1685  -16.3336  -55.8550 H         1 UNK         0.3000 
    236 H236       -6.4633  -17.1524  -57.8723 H         1 UNK         0.0600 
    237 H237       -7.4857  -19.6760  -56.4765 H         1 UNK         0.0600 
    238 H238       -8.4202  -18.2019  -56.7257 H         1 UNK         0.0600 
    239 H239       -7.8837  -19.1448  -58.1046 H         1 UNK         0.0600 
    240 H240       -3.7731  -17.4439  -56.9740 H         1 UNK         0.3000 
    241 H241       -2.7401  -19.9242  -58.1070 H         1 UNK         0.0600 
    242 H242       -3.8996  -17.0658  -59.6947 H         1 UNK         0.3800 
    243 H243       -3.0440  -17.3387  -61.1885 H         1 UNK         0.3800 
    244 H244       -1.2242  -17.4077  -57.2846 H         1 UNK         0.0800 
    245 H245       -0.4889  -18.9006  -57.7859 H         1 UNK         0.0800 
    246 H246       -2.5339  -17.6386  -54.1489 H         1 UNK         0.0800 
    247 H247       -1.4133  -16.7813  -55.1701 H         1 UNK         0.0800 
@<TRIPOS>BOND
     1    1    2 1    
     2    1  127 1    
     3    1  128 1    
     4    1  129 1    
     5    2    3 2    
     6    2    4 am   BACKBONE|DICT|INTERRES
     7    4    5 1    
     8    4  130 1    
     9    5    6 1    
    10    5   65 1    
    11    5  131 1    
    12    6    7 1    
    13    6  132 1    
    14    6  133 1    
    15    7    8 1    
    16    8    9 1    
    17    8  134 1    
    18    8  135 1    
    19    9   10 ar   
    20    9   14 ar   
    21   10   11 ar   
    22   10  136 1    
    23   11   12 ar   
    24   11  126 1    
    25   12   13 ar   
    26   12  137 1    
    27   13   14 ar   
    28   13   15 1    
    29   14  138 1    
    30   15   16 1    
    31   15  139 1    
    32   15  140 1    
    33   16   17 1    
    34   17   18 1    
    35   17  141 1    
    36   17  142 1    
    37   18   19 1    
    38   18   67 1    
    39   18  143 1    
    40   19   20 am   BACKBONE|DICT|INTERRES
    41   19  144 1    
    42   20   21 2    
    43   20   22 1    
    44   22   23 1    
    45   22   24 1    
    46   22  145 1    
    47   23  146 1    
    48   23  147 1    
    49   23  148 1    
    50   24   25 am   BACKBONE|DICT|INTERRES
    51   24  149 1    
    52   25   26 2    
    53   25   27 1    
    54   27   28 1    
    55   27   29 1    
    56   27  150 1    
    57   28  151 1    
    58   28  152 1    
    59   28  153 1    
    60   29   30 am   BACKBONE|DICT|INTERRES
    61   29  154 1    
    62   30   31 2    
    63   30   32 1    
    64   32   33 1    
    65   32   34 1    
    66   32  155 1    
    67   33  156 1    
    68   33  157 1    
    69   33  158 1    
    70   34   35 am   BACKBONE|DICT|INTERRES
    71   34  159 1    
    72   35   36 2    
    73   35   37 1    
    74   37   38 1    
    75   37   39 1    
    76   37  160 1    
    77   38  161 1    
    78   38  162 1    
    79   38  163 1    
    80   39   40 am   BACKBONE|DICT|INTERRES
    81   39  164 1    
    82   40   41 2    
    83   40   42 1    
    84   42   43 1    
    85   42   44 1    
    86   42  165 1    
    87   43  166 1    
    88   43  167 1    
    89   43  168 1    
    90   44   45 am   BACKBONE|DICT|INTERRES
    91   44  169 1    
    92   45   46 2    
    93   45   47 1    
    94   47   48 1    
    95   47   49 1    
    96   47  170 1    
    97   48  171 1    
    98   48  172 1    
    99   48  173 1    
   100   49   50 am   BACKBONE|DICT|INTERRES
   101   49  174 1    
   102   50   51 2    
   103   50   52 1    
   104   52   53 1    
   105   52   54 1    
   106   52  175 1    
   107   53  176 1    
   108   53  177 1    
   109   53  178 1    
   110   54   55 am   BACKBONE|DICT|INTERRES
   111   54  179 1    
   112   55   56 2    
   113   55   57 1    
   114   57   58 1    
   115   57   59 1    
   116   57  180 1    
   117   58  181 1    
   118   58  182 1    
   119   58  183 1    
   120   59   60 am   BACKBONE|DICT|INTERRES
   121   59  184 1    
   122   60   61 2    
   123   60   62 1    
   124   62   63 1    
   125   62   64 1    
   126   62  185 1    
   127   63  186 1    
   128   63  187 1    
   129   63  188 1    
   130   64   65 am   BACKBONE|DICT|INTERRES
   131   64  189 1    
   132   65   66 2    
   133   67   68 2    
   134   67   69 am   BACKBONE|DICT|INTERRES
   135   69   70 1    
   136   69  190 1    
   137   70   71 1    
   138   70   72 1    
   139   70  191 1    
   140   71  192 1    
   141   71  193 1    
   142   71  194 1    
   143   72   73 2    
   144   72   74 am   BACKBONE|DICT|INTERRES
   145   74   75 1    
   146   74  195 1    
   147   75   76 1    
   148   75   77 1    
   149   75  196 1    
   150   76  197 1    
   151   76  198 1    
   152   76  199 1    
   153   77   78 2    
   154   77   79 am   BACKBONE|DICT|INTERRES
   155   79   80 1    
   156   79  200 1    
   157   80   81 1    
   158   80   82 1    
   159   80  201 1    
   160   81  202 1    
   161   81  203 1    
   162   81  204 1    
   163   82   83 2    
   164   82   84 am   BACKBONE|DICT|INTERRES
   165   84   85 1    
   166   84  205 1    
   167   85   86 1    
   168   85   87 1    
   169   85  206 1    
   170   86  207 1    
   171   86  208 1    
   172   86  209 1    
   173   87   88 2    
   174   87   89 am   BACKBONE|DICT|INTERRES
   175   89   90 1    
   176   89  210 1    
   177   90   91 1    
   178   90   92 1    
   179   90  211 1    
   180   91  212 1    
   181   91  213 1    
   182   91  214 1    
   183   92   93 2    
   184   92   94 am   BACKBONE|DICT|INTERRES
   185   94   95 1    
   186   94  215 1    
   187   95   96 1    
   188   95   97 1    
   189   95  216 1    
   190   96  217 1    
   191   96  218 1    
   192   96  219 1    
   193   97   98 2    
   194   97   99 am   BACKBONE|DICT|INTERRES
   195   99  100 1    
   196   99  220 1    
   197  100  101 1    
   198  100  102 1    
   199  100  221 1    
   200  101  222 1    
   201  101  223 1    
   202  101  224 1    
   203  102  103 2    
   204  102  104 am   BACKBONE|DICT|INTERRES
   205  104  105 1    
   206  104  225 1    
   207  105  106 1    
   208  105  107 1    
   209  105  226 1    
   210  106  227 1    
   211  106  228 1    
   212  106  229 1    
   213  107  108 2    
   214  107  109 am   BACKBONE|DICT|INTERRES
   215  109  110 1    
   216  109  230 1    
   217  110  111 1    
   218  110  112 1    
   219  110  231 1    
   220  111  232 1    
   221  111  233 1    
   222  111  234 1    
   223  112  113 2    
   224  112  114 am   BACKBONE|DICT|INTERRES
   225  114  115 1    
   226  114  235 1    
   227  115  116 1    
   228  115  117 1    
   229  115  236 1    
   230  116  237 1    
   231  116  238 1    
   232  116  239 1    
   233  117  118 2    
   234  117  119 am   BACKBONE|DICT|INTERRES
   235  119  120 1    
   236  119  240 1    
   237  120  121 1    
   238  120  124 1    
   239  120  241 1    
   240  121  122 am   BACKBONE|DICT|INTERRES
   241  121  123 2    
   242  122  242 1    
   243  122  243 1    
   244  124  125 1    
   245  124  244 1    
   246  124  245 1    
   247  125  126 1    
   248  126  246 1    
   249  126  247 1    
@<TRIPOS>SUBSTRUCTURE
     1 UNK         1 GROUP             0       ****    0 ROOT    
