@<TRIPOS>MOLECULE
3R540
247   249    1
SMALL
USER_CHARGES


@<TRIPOS>ATOM
      1 CA          1.7555  -13.7728  -43.9155 C.3       0 UNK        -0.1800 
      2 C           1.2849  -14.6717  -45.0490 C.2       0 UNK         0.5000 
      3 O           0.9812  -15.8407  -44.8075 O.2       0 UNK        -0.5000 
      4 N           1.2497  -14.1331  -46.2720 N.am      1 UNK        -0.5000 
      5 CA          0.7965  -14.8230  -47.4865 C.3       1 UNK         0.1400 
      6 C6          1.7634  -14.5544  -48.6689 C.3       23 UNK        -0.0398 
      7 S7          3.2951  -15.5417  -48.5419 S.3       23 UNK        -0.2404 
      8 C8          3.2631  -16.5009  -50.0953 C.3       23 UNK        -0.0205 
      9 C9          2.4747  -17.8013  -49.9821 C.ar      23 UNK        -0.0193 
     10 C10         1.0864  -17.7825  -49.8229 C.ar      23 UNK        -0.1150 
     11 C11         0.3590  -18.9711  -49.7422 C.ar      23 UNK        -0.0193 
     12 C12         1.0308  -20.1939  -49.8321 C.ar      23 UNK        -0.1150 
     13 C13         2.4151  -20.2346  -50.0243 C.ar      23 UNK        -0.0193 
     14 C14         3.1300  -19.0324  -50.0905 C.ar      23 UNK        -0.1150 
     15 C15         3.1123  -21.5799  -50.2192 C.3       23 UNK        -0.0205 
     16 S16         4.6562  -21.7537  -49.2661 S.3       23 UNK        -0.2404 
     17 C17         4.0126  -21.7005  -47.5641 C.3       23 UNK        -0.0398 
     18 CA          4.4158  -22.9212  -46.7002 C.3       11 UNK         0.1400 
     19 N           4.4024  -22.5488  -45.2833 N.am      11 UNK        -0.5000 
     20 C           4.9638  -23.2174  -44.2692 C.2       10 UNK         0.5000 
     21 O           5.6533  -24.2275  -44.4085 O.2       10 UNK        -0.5000 
     22 CA          4.6534  -22.6828  -42.8574 C.3       10 UNK         0.1400 
     23 CB          5.6689  -21.6073  -42.4423 C.3       10 UNK        -0.1800 
     24 N           3.2962  -22.1349  -42.7569 N.am      10 UNK        -0.5000 
     25 C           2.1758  -22.8716  -42.7809 C.2       9 UNK         0.5000 
     26 O           2.1691  -24.1001  -42.8567 O.2       9 UNK        -0.5000 
     27 CA          0.8387  -22.1079  -42.7626 C.3       9 UNK         0.1400 
     28 CB          0.4768  -21.6807  -41.3324 C.3       9 UNK        -0.1800 
     29 N           0.8446  -20.9333  -43.6345 N.am      9 UNK        -0.5000 
     30 C           0.9477  -20.9739  -44.9698 C.2       8 UNK         0.5000 
     31 O           1.0054  -22.0201  -45.6164 O.2       8 UNK        -0.5000 
     32 CA          1.0485  -19.6214  -45.7032 C.3       8 UNK         0.1400 
     33 CB         -0.3488  -19.0382  -45.9551 C.3       8 UNK        -0.1800 
     34 N           1.8676  -18.6293  -45.0014 N.am      8 UNK        -0.5000 
     35 C           3.1509  -18.7951  -44.6478 C.2       7 UNK         0.5000 
     36 O           3.7880  -19.8243  -44.8577 O.2       7 UNK        -0.5000 
     37 CA          3.8303  -17.6431  -43.8966 C.3       7 UNK         0.1400 
     38 CB          4.3655  -16.5906  -44.8790 C.3       7 UNK        -0.1800 
     39 N           2.9034  -17.0316  -42.9445 N.am      7 UNK        -0.5000 
     40 C           2.7958  -17.4145  -41.6657 C.2       6 UNK         0.5000 
     41 O           3.5136  -18.2695  -41.1451 O.2       6 UNK        -0.5000 
     42 CA          1.6960  -16.7448  -40.8191 C.3       6 UNK         0.1400 
     43 CB          2.2118  -15.4311  -40.2114 C.3       6 UNK        -0.1800 
     44 N           0.4372  -16.4818  -41.5217 N.am      6 UNK        -0.5000 
     45 C          -0.3279  -17.3976  -42.1342 C.2       5 UNK         0.5000 
     46 O           0.0128  -18.5699  -42.2869 O.2       5 UNK        -0.5000 
     47 CA         -1.7156  -16.9461  -42.6346 C.3       5 UNK         0.1400 
     48 CB         -2.8130  -17.9108  -42.1535 C.3       5 UNK        -0.1800 
     49 N          -2.0542  -15.5894  -42.1882 N.am      5 UNK        -0.5000 
     50 C          -2.0524  -14.5133  -42.9816 C.2       4 UNK         0.5000 
     51 O          -1.8255  -14.5595  -44.1941 O.2       4 UNK        -0.5000 
     52 CA         -2.3305  -13.1526  -42.3173 C.3       4 UNK         0.1400 
     53 CB         -1.3808  -12.8592  -41.1390 C.3       4 UNK        -0.1800 
     54 N          -2.1595  -12.1489  -43.3550 N.am      4 UNK        -0.5000 
     55 C          -2.6930  -10.9287  -43.4250 C.2       3 UNK         0.5000 
     56 O          -3.3455  -10.4077  -42.5198 O.2       3 UNK        -0.5000 
     57 CA         -2.4641  -10.1712  -44.7509 C.3       3 UNK         0.1400 
     58 CB         -1.3295   -9.1471  -44.5924 C.3       3 UNK        -0.1800 
     59 N          -2.1510  -11.0544  -45.8852 N.am      3 UNK        -0.5000 
     60 C          -3.0247  -11.9032  -46.4509 C.2       2 UNK         0.5000 
     61 O          -4.1978  -12.0110  -46.0928 O.2       2 UNK        -0.5000 
     62 CA         -2.5014  -12.7916  -47.5890 C.3       2 UNK         0.1400 
     63 CB         -2.5049  -12.0277  -48.9267 C.3       2 UNK        -0.1800 
     64 N          -1.1654  -13.3191  -47.2978 N.am      2 UNK        -0.5000 
     65 C          -0.6436  -14.4142  -47.8695 C.2       1 UNK         0.5000 
     66 O          -1.2505  -15.0967  -48.6956 O.2       1 UNK        -0.5000 
     67 C           3.5388  -24.1633  -47.0046 C.2       11 UNK         0.5000 
     68 O           3.6568  -24.7348  -48.0888 O.2       11 UNK        -0.5000 
     69 N           2.6942  -24.5666  -46.0425 N.am      12 UNK        -0.5000 
     70 CA          1.7661  -25.6978  -46.0740 C.3       12 UNK         0.1400 
     71 CB          2.5220  -27.0380  -46.1957 C.3       12 UNK        -0.1800 
     72 C           0.6526  -25.5181  -47.1242 C.2       12 UNK         0.5000 
     73 O           0.3736  -26.4337  -47.9016 O.2       12 UNK        -0.5000 
     74 N           0.0298  -24.3314  -47.1171 N.am      13 UNK        -0.5000 
     75 CA         -1.1570  -23.9951  -47.9047 C.3       13 UNK         0.1400 
     76 CB         -1.5102  -22.5217  -47.6467 C.3       13 UNK        -0.1800 
     77 C          -2.3705  -24.8851  -47.5661 C.2       13 UNK         0.5000 
     78 O          -2.4983  -25.3605  -46.4350 O.2       13 UNK        -0.5000 
     79 N          -3.2749  -25.0378  -48.5393 N.am      14 UNK        -0.5000 
     80 CA         -4.5314  -25.7835  -48.4175 C.3       14 UNK         0.1400 
     81 CB         -4.9251  -26.2992  -49.8125 C.3       14 UNK        -0.1800 
     82 C          -5.6742  -24.9472  -47.8004 C.2       14 UNK         0.5000 
     83 O          -6.8084  -25.4239  -47.7505 O.2       14 UNK        -0.5000 
     84 N          -5.3659  -23.7101  -47.3801 N.am      15 UNK        -0.5000 
     85 CA         -6.2681  -22.6724  -46.8617 C.3       15 UNK         0.1400 
     86 CB         -7.0281  -23.1501  -45.6064 C.3       15 UNK        -0.1800 
     87 C          -7.2011  -22.0709  -47.9356 C.2       15 UNK         0.5000 
     88 O          -8.1607  -21.3770  -47.5942 O.2       15 UNK        -0.5000 
     89 N          -6.8854  -22.3152  -49.2137 N.am      16 UNK        -0.5000 
     90 CA         -7.5098  -21.6789  -50.3697 C.3       16 UNK         0.1400 
     91 CB         -7.3483  -22.6064  -51.5848 C.3       16 UNK        -0.1800 
     92 C          -6.8752  -20.3008  -50.6384 C.2       16 UNK         0.5000 
     93 O          -5.8233  -19.9784  -50.0792 O.2       16 UNK        -0.5000 
     94 N          -7.5245  -19.5147  -51.5031 N.am      17 UNK        -0.5000 
     95 CA         -7.0521  -18.2037  -51.9468 C.3       17 UNK         0.1400 
     96 CB         -8.2016  -17.4990  -52.6857 C.3       17 UNK        -0.1800 
     97 C          -5.8210  -18.3029  -52.8668 C.2       17 UNK         0.5000 
     98 O          -5.6041  -19.3342  -53.5093 O.2       17 UNK        -0.5000 
     99 N          -5.0834  -17.1914  -52.9877 N.am      18 UNK        -0.5000 
    100 CA        -3.9498  -17.0373  -53.9072 C.3       18 UNK         0.1400 
    101 CB        -3.2554  -15.6952  -53.6348 C.3       18 UNK        -0.1800 
    102 C         -4.3471  -17.1570  -55.3935 C.2       18 UNK         0.5000 
    103 O         -3.5279  -17.5796  -56.2087 O.2       18 UNK        -0.5000 
    104 N         -5.6151  -16.8535  -55.7096 N.am      19 UNK        -0.5000 
    105 CA        -6.2415  -17.0780  -57.0162 C.3       19 UNK         0.1400 
    106 CB        -7.6208  -16.4017  -57.0260 C.3       19 UNK        -0.1800 
    107 C         -6.3724  -18.5717  -57.3870 C.2       19 UNK         0.5000 
    108 O         -6.4258  -18.8973  -58.5729 O.2       19 UNK        -0.5000 
    109 N         -6.3914  -19.4476  -56.3730 N.am      20 UNK        -0.5000 
    110 CA        -6.3636  -20.9059  -56.4933 C.3       20 UNK         0.1400 
    111 CB        -7.4328  -21.4910  -55.5541 C.3       20 UNK        -0.1800 
    112 C         -4.9588  -21.4617  -56.1717 C.2       20 UNK         0.5000 
    113 O         -4.8282  -22.6432  -55.8448 O.2       20 UNK        -0.5000 
    114 N         -3.9349  -20.5937  -56.2308 N.am      21 UNK        -0.5000 
    115 CA        -2.5183  -20.8491  -55.9470 C.3       21 UNK         0.1400 
    116 CB        -1.9167  -21.7841  -57.0168 C.3       21 UNK        -0.1800 
    117 C         -2.2481  -21.3404  -54.5084 C.2       21 UNK         0.5000 
    118 O         -1.2380  -22.0062  -54.2756 O.2       21 UNK        -0.5000 
    119 N         -3.1570  -21.0176  -53.5760 N.am      22 UNK        -0.5000 
    120 CA        -3.1658  -21.4793  -52.1787 C.3       22 UNK         0.1400 
    121 C         -3.3808  -23.0150  -52.0069 C.2       22 UNK         0.5000 
    122 N         -3.8782  -23.7321  -53.0087 N.am      22 UNK        -0.7600 
    123 O         -3.1330  -23.5626  -50.9355 O.2       22 UNK        -0.5000 
    124 C124       -1.9637  -20.9416  -51.3558 C.3       23 UNK        -0.0398 
    125 S125       -2.0059  -19.1267  -51.1744 S.3       23 UNK        -0.2404 
    126 C126       -1.1532  -18.9190  -49.5794 C.3       23 UNK        -0.0205 
    127 H127        2.7614  -14.0543  -43.6047 H         1 UNK         0.0600 
    128 H128        1.0916  -13.8749  -43.0589 H         1 UNK         0.0600 
    129 H129        1.7685  -12.7231  -44.2093 H         1 UNK         0.0600 
    130 H130        1.5783  -13.1871  -46.4028 H         1 UNK         0.3000 
    131 H131        0.7641  -15.9010  -47.3127 H         1 UNK         0.0600 
    132 H132        1.2910  -14.7583  -49.6304 H         1 UNK         0.0800 
    133 H133        2.0366  -13.4987  -48.7087 H         1 UNK         0.0800 
    134 H134        2.8601  -15.8954  -50.9081 H         1 UNK         0.0800 
    135 H135        4.2958  -16.7159  -50.3737 H         1 UNK         0.0800 
    136 H136        0.5591  -16.8432  -49.7731 H         1 UNK         0.1150 
    137 H137        0.4713  -21.1163  -49.7883 H         1 UNK         0.1150 
    138 H138        4.1992  -19.0567  -50.2468 H         1 UNK         0.1150 
    139 H139        2.4476  -22.4043  -49.9550 H         1 UNK         0.0800 
    140 H140        3.3421  -21.6981  -51.2787 H         1 UNK         0.0800 
    141 H141        4.4245  -20.7863  -47.1371 H         1 UNK         0.0800 
    142 H142        2.9303  -21.5648  -47.5624 H         1 UNK         0.0800 
    143 H143        5.4454  -23.1911  -46.9441 H         1 UNK         0.0600 
    144 H144        3.9318  -21.6742  -45.0637 H         1 UNK         0.3000 
    145 H145        4.7378  -23.5180  -42.1588 H         1 UNK         0.0600 
    146 H146        5.4816  -21.2594  -41.4262 H         1 UNK         0.0600 
    147 H147        5.6356  -20.7408  -43.1033 H         1 UNK         0.0600 
    148 H148        6.6857  -22.0009  -42.4694 H         1 UNK         0.0600 
    149 H149        3.2132  -21.1284  -42.7382 H         1 UNK         0.3000 
    150 H150        0.0628  -22.7875  -43.1215 H         1 UNK         0.0600 
    151 H151        0.4628  -22.5379  -40.6581 H         1 UNK         0.0600 
    152 H152       -0.5123  -21.2233  -41.2980 H         1 UNK         0.0600 
    153 H153        1.1913  -20.9583  -40.9352 H         1 UNK         0.0600 
    154 H154        0.7379  -20.0286  -43.1798 H         1 UNK         0.3000 
    155 H155        1.5177  -19.8038  -46.6717 H         1 UNK         0.0600 
    156 H156       -0.9738  -19.7433  -46.5025 H         1 UNK         0.0600 
    157 H157       -0.2954  -18.1221  -46.5438 H         1 UNK         0.0600 
    158 H158       -0.8605  -18.8092  -45.0210 H         1 UNK         0.0600 
    159 H159        1.4286  -17.7334  -44.8124 H         1 UNK         0.3000 
    160 H160        4.6904  -18.0528  -43.3624 H         1 UNK         0.0600 
    161 H161        3.5930  -16.2327  -45.5575 H         1 UNK         0.0600 
    162 H162        5.1599  -17.0115  -45.4964 H         1 UNK         0.0600 
    163 H163        4.7817  -15.7309  -44.3540 H         1 UNK         0.0600 
    164 H164        2.2157  -16.3922  -43.3255 H         1 UNK         0.3000 
    165 H165        1.4649  -17.4275  -39.9988 H         1 UNK         0.0600 
    166 H166        1.4847  -15.0013  -39.5222 H         1 UNK         0.0600 
    167 H167        3.1319  -15.5955  -39.6489 H         1 UNK         0.0600 
    168 H168        2.4266  -14.6882  -40.9802 H         1 UNK         0.0600 
    169 H169        0.0796  -15.5419  -41.4607 H         1 UNK         0.3000 
    170 H170       -1.6836  -16.9933  -43.7245 H         1 UNK         0.0600 
    171 H171       -2.6314  -18.9251  -42.5119 H         1 UNK         0.0600 
    172 H172       -2.8652  -17.9508  -41.0649 H         1 UNK         0.0600 
    173 H173       -3.7920  -17.6091  -42.5261 H         1 UNK         0.0600 
    174 H174       -2.2691  -15.4823  -41.2067 H         1 UNK         0.3000 
    175 H175       -3.3664  -13.1463  -41.9730 H         1 UNK         0.0600 
    176 H176       -0.3353  -12.8825  -41.4457 H         1 UNK         0.0600 
    177 H177       -1.5766  -11.8746  -40.7141 H         1 UNK         0.0600 
    178 H178       -1.5071  -13.5823  -40.3330 H         1 UNK         0.0600 
    179 H179       -1.7178  -12.5253  -44.1840 H         1 UNK         0.3000 
    180 H180       -3.3841   -9.6303  -44.9823 H         1 UNK         0.0600 
    181 H181       -1.5401   -8.4539  -43.7768 H         1 UNK         0.0600 
    182 H182       -1.2045   -8.5523  -45.4974 H         1 UNK         0.0600 
    183 H183       -0.3773   -9.6319  -44.3728 H         1 UNK         0.0600 
    184 H184       -1.2263  -10.9635  -46.2777 H         1 UNK         0.3000 
    185 H185       -3.1934  -13.6329  -47.6711 H         1 UNK         0.0600 
    186 H186       -3.4878  -11.6011  -49.1310 H         1 UNK         0.0600 
    187 H187       -1.7844  -11.2092  -48.9240 H         1 UNK         0.0600 
    188 H188       -2.2605  -12.6852  -49.7611 H         1 UNK         0.0600 
    189 H189       -0.6450  -12.8687  -46.5618 H         1 UNK         0.3000 
    190 H190        2.6573  -24.0089  -45.1999 H         1 UNK         0.3000 
    191 H191        1.2647  -25.6989  -45.1050 H         1 UNK         0.0600 
    192 H192        1.8396  -27.8806  -46.0788 H         1 UNK         0.0600 
    193 H193        3.2859  -27.1300  -45.4235 H         1 UNK         0.0600 
    194 H194        3.0093  -27.1467  -47.1648 H         1 UNK         0.0600 
    195 H195        0.3543  -23.6159  -46.4719 H         1 UNK         0.3000 
    196 H196       -0.9105  -24.1234  -48.9608 H         1 UNK         0.0600 
    197 H197       -1.7398  -22.3446  -46.5951 H         1 UNK         0.0600 
    198 H198       -0.6840  -21.8666  -47.9184 H         1 UNK         0.0600 
    199 H199       -2.3807  -22.2139  -48.2264 H         1 UNK         0.0600 
    200 H200       -3.1254  -24.5698  -49.4337 H         1 UNK         0.3000 
    201 H201       -4.3732  -26.6472  -47.7685 H         1 UNK         0.0600 
    202 H202       -5.8071  -26.9389  -49.7620 H         1 UNK         0.0600 
    203 H203       -4.1234  -26.8901  -50.2558 H         1 UNK         0.0600 
    204 H204       -5.1537  -25.4791  -50.4943 H         1 UNK         0.0600 
    205 H205       -4.3996  -23.4336  -47.4713 H         1 UNK         0.3000 
    206 H206       -5.6191  -21.8529  -46.5499 H         1 UNK         0.0600 
    207 H207       -6.3471  -23.5803  -44.8721 H         1 UNK         0.0600 
    208 H208       -7.5416  -22.3187  -45.1223 H         1 UNK         0.0600 
    209 H209       -7.7828  -23.8992  -45.8462 H         1 UNK         0.0600 
    210 H210       -6.0563  -22.8590  -49.3969 H         1 UNK         0.3000 
    211 H211       -8.5754  -21.5413  -50.1738 H         1 UNK         0.0600 
    212 H212       -6.3069  -22.6929  -51.8920 H         1 UNK         0.0600 
    213 H213       -7.9121  -22.2331  -52.4394 H         1 UNK         0.0600 
    214 H214       -7.7185  -23.6092  -51.3700 H         1 UNK         0.0600 
    215 H215       -8.3628  -19.8605  -51.9458 H         1 UNK         0.3000 
    216 H216       -6.7827  -17.6163  -51.0665 H         1 UNK         0.0600 
    217 H217       -9.0799  -17.4021  -52.0470 H         1 UNK         0.0600 
    218 H218       -8.4984  -18.0445  -53.5829 H         1 UNK         0.0600 
    219 H219       -7.9169  -16.4920  -52.9930 H         1 UNK         0.0600 
    220 H220       -5.3229  -16.3812  -52.4344 H         1 UNK         0.3000 
    221 H221       -3.2383  -17.8386  -53.6976 H         1 UNK         0.0600 
    222 H222       -2.3936  -15.5616  -54.2901 H         1 UNK         0.0600 
    223 H223       -3.9277  -14.8523  -53.7991 H         1 UNK         0.0600 
    224 H224       -2.8915  -15.6422  -52.6083 H         1 UNK         0.0600 
    225 H225       -6.2143  -16.5001  -54.9790 H         1 UNK         0.3000 
    226 H226       -5.6181  -16.6029  -57.7765 H         1 UNK         0.0600 
    227 H227       -7.5371  -15.3309  -56.8392 H         1 UNK         0.0600 
    228 H228       -8.1092  -16.5238  -57.9938 H         1 UNK         0.0600 
    229 H229       -8.2820  -16.8251  -56.2688 H         1 UNK         0.0600 
    230 H230       -6.2971  -19.1001  -55.4254 H         1 UNK         0.3000 
    231 H231       -6.6036  -21.2090  -57.5140 H         1 UNK         0.0600 
    232 H232       -7.4946  -22.5755  -55.6511 H         1 UNK         0.0600 
    233 H233       -8.4200  -21.0894  -55.7823 H         1 UNK         0.0600 
    234 H234       -7.2127  -21.2656  -54.5107 H         1 UNK         0.0600 
    235 H235       -4.1453  -19.6340  -56.4754 H         1 UNK         0.3000 
    236 H236       -2.0133  -19.8862  -56.0316 H         1 UNK         0.0600 
    237 H237       -2.3250  -22.7928  -56.9478 H         1 UNK         0.0600 
    238 H238       -2.1125  -21.4105  -58.0218 H         1 UNK         0.0600 
    239 H239       -0.8344  -21.8615  -56.9075 H         1 UNK         0.0600 
    240 H240       -3.9662  -20.4689  -53.8464 H         1 UNK         0.3000 
    241 H241       -4.0664  -21.0462  -51.7463 H         1 UNK         0.0600 
    242 H242       -4.0163  -24.7215  -52.8852 H         1 UNK         0.3800 
    243 H243       -4.1031  -23.3025  -53.8978 H         1 UNK         0.3800 
    244 H244       -1.0138  -21.2357  -51.8022 H         1 UNK         0.0800 
    245 H245       -1.9716  -21.3735  -50.3567 H         1 UNK         0.0800 
    246 H246       -1.4484  -17.9584  -49.1537 H         1 UNK         0.0800 
    247 H247       -1.4878  -19.6738  -48.8683 H         1 UNK         0.0800 
@<TRIPOS>BOND
     1    1    2 1    
     2    1  127 1    
     3    1  128 1    
     4    1  129 1    
     5    2    3 2    
     6    2    4 am   BACKBONE|DICT|INTERRES
     7    4    5 1    
     8    4  130 1    
     9    5    6 1    
    10    5   65 1    
    11    5  131 1    
    12    6    7 1    
    13    6  132 1    
    14    6  133 1    
    15    7    8 1    
    16    8    9 1    
    17    8  134 1    
    18    8  135 1    
    19    9   10 ar   
    20    9   14 ar   
    21   10   11 ar   
    22   10  136 1    
    23   11   12 ar   
    24   11  126 1    
    25   12   13 ar   
    26   12  137 1    
    27   13   14 ar   
    28   13   15 1    
    29   14  138 1    
    30   15   16 1    
    31   15  139 1    
    32   15  140 1    
    33   16   17 1    
    34   17   18 1    
    35   17  141 1    
    36   17  142 1    
    37   18   19 1    
    38   18   67 1    
    39   18  143 1    
    40   19   20 am   BACKBONE|DICT|INTERRES
    41   19  144 1    
    42   20   21 2    
    43   20   22 1    
    44   22   23 1    
    45   22   24 1    
    46   22  145 1    
    47   23  146 1    
    48   23  147 1    
    49   23  148 1    
    50   24   25 am   BACKBONE|DICT|INTERRES
    51   24  149 1    
    52   25   26 2    
    53   25   27 1    
    54   27   28 1    
    55   27   29 1    
    56   27  150 1    
    57   28  151 1    
    58   28  152 1    
    59   28  153 1    
    60   29   30 am   BACKBONE|DICT|INTERRES
    61   29  154 1    
    62   30   31 2    
    63   30   32 1    
    64   32   33 1    
    65   32   34 1    
    66   32  155 1    
    67   33  156 1    
    68   33  157 1    
    69   33  158 1    
    70   34   35 am   BACKBONE|DICT|INTERRES
    71   34  159 1    
    72   35   36 2    
    73   35   37 1    
    74   37   38 1    
    75   37   39 1    
    76   37  160 1    
    77   38  161 1    
    78   38  162 1    
    79   38  163 1    
    80   39   40 am   BACKBONE|DICT|INTERRES
    81   39  164 1    
    82   40   41 2    
    83   40   42 1    
    84   42   43 1    
    85   42   44 1    
    86   42  165 1    
    87   43  166 1    
    88   43  167 1    
    89   43  168 1    
    90   44   45 am   BACKBONE|DICT|INTERRES
    91   44  169 1    
    92   45   46 2    
    93   45   47 1    
    94   47   48 1    
    95   47   49 1    
    96   47  170 1    
    97   48  171 1    
    98   48  172 1    
    99   48  173 1    
   100   49   50 am   BACKBONE|DICT|INTERRES
   101   49  174 1    
   102   50   51 2    
   103   50   52 1    
   104   52   53 1    
   105   52   54 1    
   106   52  175 1    
   107   53  176 1    
   108   53  177 1    
   109   53  178 1    
   110   54   55 am   BACKBONE|DICT|INTERRES
   111   54  179 1    
   112   55   56 2    
   113   55   57 1    
   114   57   58 1    
   115   57   59 1    
   116   57  180 1    
   117   58  181 1    
   118   58  182 1    
   119   58  183 1    
   120   59   60 am   BACKBONE|DICT|INTERRES
   121   59  184 1    
   122   60   61 2    
   123   60   62 1    
   124   62   63 1    
   125   62   64 1    
   126   62  185 1    
   127   63  186 1    
   128   63  187 1    
   129   63  188 1    
   130   64   65 am   BACKBONE|DICT|INTERRES
   131   64  189 1    
   132   65   66 2    
   133   67   68 2    
   134   67   69 am   BACKBONE|DICT|INTERRES
   135   69   70 1    
   136   69  190 1    
   137   70   71 1    
   138   70   72 1    
   139   70  191 1    
   140   71  192 1    
   141   71  193 1    
   142   71  194 1    
   143   72   73 2    
   144   72   74 am   BACKBONE|DICT|INTERRES
   145   74   75 1    
   146   74  195 1    
   147   75   76 1    
   148   75   77 1    
   149   75  196 1    
   150   76  197 1    
   151   76  198 1    
   152   76  199 1    
   153   77   78 2    
   154   77   79 am   BACKBONE|DICT|INTERRES
   155   79   80 1    
   156   79  200 1    
   157   80   81 1    
   158   80   82 1    
   159   80  201 1    
   160   81  202 1    
   161   81  203 1    
   162   81  204 1    
   163   82   83 2    
   164   82   84 am   BACKBONE|DICT|INTERRES
   165   84   85 1    
   166   84  205 1    
   167   85   86 1    
   168   85   87 1    
   169   85  206 1    
   170   86  207 1    
   171   86  208 1    
   172   86  209 1    
   173   87   88 2    
   174   87   89 am   BACKBONE|DICT|INTERRES
   175   89   90 1    
   176   89  210 1    
   177   90   91 1    
   178   90   92 1    
   179   90  211 1    
   180   91  212 1    
   181   91  213 1    
   182   91  214 1    
   183   92   93 2    
   184   92   94 am   BACKBONE|DICT|INTERRES
   185   94   95 1    
   186   94  215 1    
   187   95   96 1    
   188   95   97 1    
   189   95  216 1    
   190   96  217 1    
   191   96  218 1    
   192   96  219 1    
   193   97   98 2    
   194   97   99 am   BACKBONE|DICT|INTERRES
   195   99  100 1    
   196   99  220 1    
   197  100  101 1    
   198  100  102 1    
   199  100  221 1    
   200  101  222 1    
   201  101  223 1    
   202  101  224 1    
   203  102  103 2    
   204  102  104 am   BACKBONE|DICT|INTERRES
   205  104  105 1    
   206  104  225 1    
   207  105  106 1    
   208  105  107 1    
   209  105  226 1    
   210  106  227 1    
   211  106  228 1    
   212  106  229 1    
   213  107  108 2    
   214  107  109 am   BACKBONE|DICT|INTERRES
   215  109  110 1    
   216  109  230 1    
   217  110  111 1    
   218  110  112 1    
   219  110  231 1    
   220  111  232 1    
   221  111  233 1    
   222  111  234 1    
   223  112  113 2    
   224  112  114 am   BACKBONE|DICT|INTERRES
   225  114  115 1    
   226  114  235 1    
   227  115  116 1    
   228  115  117 1    
   229  115  236 1    
   230  116  237 1    
   231  116  238 1    
   232  116  239 1    
   233  117  118 2    
   234  117  119 am   BACKBONE|DICT|INTERRES
   235  119  120 1    
   236  119  240 1    
   237  120  121 1    
   238  120  124 1    
   239  120  241 1    
   240  121  122 am   BACKBONE|DICT|INTERRES
   241  121  123 2    
   242  122  242 1    
   243  122  243 1    
   244  124  125 1    
   245  124  244 1    
   246  124  245 1    
   247  125  126 1    
   248  126  246 1    
   249  126  247 1    
@<TRIPOS>SUBSTRUCTURE
     1 UNK         1 GROUP             0       ****    0 ROOT    
