@<TRIPOS>MOLECULE
3R540
247   249    1
SMALL
USER_CHARGES


@<TRIPOS>ATOM
      1 CA         -1.3376  -12.7749  -46.2900 C.3       0 UNK        -0.1800 
      2 C          -0.2114  -12.0927  -47.0488 C.2       0 UNK         0.5000 
      3 O          -0.4494  -11.1008  -47.7391 O.2       0 UNK        -0.5000 
      4 N           1.0172  -12.6064  -46.9165 N.am      1 UNK        -0.5000 
      5 CA          2.2251  -12.0547  -47.5367 C.3       1 UNK         0.1400 
      6 C6          3.2715  -13.1552  -47.8408 C.3       23 UNK        -0.0398 
      7 S7          2.7170  -14.2653  -49.1764 S.3       23 UNK        -0.2404 
      8 C8          2.1347  -15.6919  -48.2120 C.3       23 UNK        -0.0205 
      9 C9          1.4021  -16.6957  -49.0861 C.ar      23 UNK        -0.0193 
     10 C10         0.1516  -16.3759  -49.6213 C.ar      23 UNK        -0.1150 
     11 C11        -0.5463  -17.2986  -50.4055 C.ar      23 UNK        -0.0193 
     12 C12         0.0193  -18.5517  -50.6565 C.ar      23 UNK        -0.1150 
     13 C13         1.2721  -18.8826  -50.1284 C.ar      23 UNK        -0.0193 
     14 C14         1.9590  -17.9503  -49.3457 C.ar      23 UNK        -0.1150 
     15 C15         1.8855  -20.2493  -50.3958 C.3       23 UNK        -0.0205 
     16 S16         1.7323  -21.3484  -48.9537 S.3       23 UNK        -0.2404 
     17 C17        -0.0790  -21.4620  -48.8223 C.3       23 UNK        -0.0398 
     18 CA         -0.5292  -22.5952  -47.8780 C.3       11 UNK         0.1400 
     19 N          -0.2561  -22.3086  -46.4668 N.am      11 UNK        -0.5000 
     20 C          -0.3930  -23.2040  -45.4782 C.2       10 UNK         0.5000 
     21 O          -0.7380  -24.3713  -45.6586 O.2       10 UNK        -0.5000 
     22 CA         -0.1651  -22.7038  -44.0423 C.3       10 UNK         0.1400 
     23 CB          1.3340  -22.5713  -43.7356 C.3       10 UNK        -0.1800 
     24 N          -0.8467  -21.4363  -43.7814 N.am      10 UNK        -0.5000 
     25 C          -2.1771  -21.2721  -43.8115 C.2       9 UNK         0.5000 
     26 O          -2.9724  -22.1912  -44.0084 O.2       9 UNK        -0.5000 
     27 CA         -2.7086  -19.8365  -43.6395 C.3       9 UNK         0.1400 
     28 CB         -2.7499  -19.4402  -42.1566 C.3       9 UNK        -0.1800 
     29 N          -1.9321  -18.8495  -44.3911 N.am      9 UNK        -0.5000 
     30 C          -1.8142  -18.8323  -45.7270 C.2       8 UNK         0.5000 
     31 O          -2.3802  -19.6264  -46.4768 O.2       8 UNK        -0.5000 
     32 CA         -0.8592  -17.7843  -46.3211 C.3       8 UNK         0.1400 
     33 CB         -1.5324  -16.4073  -46.3895 C.3       8 UNK        -0.1800 
     34 N           0.3941  -17.6871  -45.5718 N.am      8 UNK        -0.5000 
     35 C           1.2824  -18.6858  -45.4647 C.2       7 UNK         0.5000 
     36 O           1.1563  -19.7774  -46.0168 O.2       7 UNK        -0.5000 
     37 CA          2.4771  -18.4462  -44.5263 C.3       7 UNK         0.1400 
     38 CB          3.5534  -17.5890  -45.2073 C.3       7 UNK        -0.1800 
     39 N           2.0694  -17.8162  -43.2705 N.am      7 UNK        -0.5000 
     40 C           1.3069  -18.4106  -42.3412 C.2       6 UNK         0.5000 
     41 O           0.9047  -19.5693  -42.4271 O.2       6 UNK        -0.5000 
     42 CA          0.8889  -17.5558  -41.1313 C.3       6 UNK         0.1400 
     43 CB          1.9394  -17.6519  -40.0153 C.3       6 UNK        -0.1800 
     44 N           0.6733  -16.1490  -41.4715 N.am      6 UNK        -0.5000 
     45 C          -0.2725  -15.6956  -42.3076 C.2       5 UNK         0.5000 
     46 O          -1.0865  -16.4235  -42.8759 O.2       5 UNK        -0.5000 
     47 CA         -0.2730  -14.1809  -42.5865 C.3       5 UNK         0.1400 
     48 CB         -1.1768  -13.4435  -41.5888 C.3       5 UNK        -0.1800 
     49 N           1.0748  -13.6121  -42.5308 N.am      5 UNK        -0.5000 
     50 C           2.0348  -13.8274  -43.4382 C.2       4 UNK         0.5000 
     51 O           1.8437  -14.4052  -44.5120 O.2       4 UNK        -0.5000 
     52 CA          3.4348  -13.3154  -43.0497 C.3       4 UNK         0.1400 
     53 CB          4.5538  -13.8400  -43.9638 C.3       4 UNK        -0.1800 
     54 N           3.4742  -11.8544  -43.0104 N.am      4 UNK        -0.5000 
     55 C           3.0807  -11.1099  -41.9663 C.2       3 UNK         0.5000 
     56 O           2.6249  -11.5937  -40.9286 O.2       3 UNK        -0.5000 
     57 CA          3.2065   -9.5780  -42.0891 C.3       3 UNK         0.1400 
     58 CB          4.5081   -9.0935  -41.4326 C.3       3 UNK        -0.1800 
     59 N           3.1666   -9.1017  -43.4716 N.am      3 UNK        -0.5000 
     60 C           2.0712   -9.0953  -44.2412 C.2       2 UNK         0.5000 
     61 O           0.9578   -9.4447  -43.8460 O.2       2 UNK        -0.5000 
     62 CA          2.2401   -8.6603  -45.7107 C.3       2 UNK         0.1400 
     63 CB          3.5671   -7.9280  -46.0156 C.3       2 UNK        -0.1800 
     64 N           2.0549   -9.8067  -46.6025 N.am      2 UNK        -0.5000 
     65 C           2.7714  -10.9401  -46.6245 C.2       1 UNK         0.5000 
     66 O           3.7694  -11.1362  -45.9284 O.2       1 UNK        -0.5000 
     67 C          -2.0067  -22.9407  -48.1367 C.2       11 UNK         0.5000 
     68 O          -2.2711  -23.8161  -48.9601 O.2       11 UNK        -0.5000 
     69 N          -2.9340  -22.2784  -47.4329 N.am      12 UNK        -0.5000 
     70 CA         -4.3659  -22.5701  -47.4771 C.3       12 UNK         0.1400 
     71 CB         -5.1433  -21.4790  -46.7248 C.3       12 UNK        -0.1800 
     72 C          -4.6948  -23.9624  -46.9127 C.2       12 UNK         0.5000 
     73 O          -5.4470  -24.7080  -47.5400 O.2       12 UNK        -0.5000 
     74 N          -4.1011  -24.2965  -45.7581 N.am      13 UNK        -0.5000 
     75 CA         -4.2551  -25.5863  -45.0845 C.3       13 UNK         0.1400 
     76 CB         -3.6425  -25.5028  -43.6781 C.3       13 UNK        -0.1800 
     77 C          -3.6440  -26.7560  -45.8780 C.2       13 UNK         0.5000 
     78 O          -4.2672  -27.8134  -45.9795 O.2       13 UNK        -0.5000 
     79 N          -2.4442  -26.5430  -46.4341 N.am      14 UNK        -0.5000 
     80 CA         -1.7148  -27.5267  -47.2369 C.3       14 UNK         0.1400 
     81 CB         -0.2306  -27.1285  -47.2737 C.3       14 UNK        -0.1800 
     82 C          -2.2518  -27.6740  -48.6736 C.2       14 UNK         0.5000 
     83 O          -1.9379  -28.6698  -49.3267 O.2       14 UNK        -0.5000 
     84 N          -3.0065  -26.6708  -49.1480 N.am      15 UNK        -0.5000 
     85 CA         -3.4388  -26.4610  -50.5353 C.3       15 UNK         0.1400 
     86 CB         -4.4206  -27.5596  -50.9917 C.3       15 UNK        -0.1800 
     87 C          -2.2346  -26.2727  -51.4860 C.2       15 UNK         0.5000 
     88 O          -2.2257  -26.7966  -52.6010 O.2       15 UNK        -0.5000 
     89 N          -1.2289  -25.5322  -51.0014 N.am      16 UNK        -0.5000 
     90 CA          0.0345  -25.2532  -51.6874 C.3       16 UNK         0.1400 
     91 CB          1.1648  -25.2217  -50.6466 C.3       16 UNK        -0.1800 
     92 C          -0.0024  -23.9368  -52.4871 C.2       16 UNK         0.5000 
     93 O           0.9357  -23.6609  -53.2365 O.2       16 UNK        -0.5000 
     94 N          -1.0715  -23.1459  -52.3187 N.am      17 UNK        -0.5000 
     95 CA         -1.3525  -21.9428  -53.1023 C.3       17 UNK         0.1400 
     96 CB         -2.4686  -21.1538  -52.4009 C.3       17 UNK        -0.1800 
     97 C          -1.7570  -22.2833  -54.5527 C.2       17 UNK         0.5000 
     98 O          -2.0369  -23.4433  -54.8684 O.2       17 UNK        -0.5000 
     99 N          -1.8084  -21.2550  -55.4081 N.am      18 UNK        -0.5000 
    100 CA        -2.1513  -21.3395  -56.8304 C.3       18 UNK         0.1400 
    101 CB        -1.6848  -20.0462  -57.5229 C.3       18 UNK        -0.1800 
    102 C         -3.6500  -21.6282  -57.0718 C.2       18 UNK         0.5000 
    103 O         -4.3869  -20.7483  -57.5198 O.2       18 UNK        -0.5000 
    104 N         -4.0751  -22.8541  -56.7379 N.am      19 UNK        -0.5000 
    105 CA        -5.3924  -23.4840  -56.9234 C.3       19 UNK         0.1400 
    106 CB        -5.7690  -23.5438  -58.4159 C.3       19 UNK        -0.1800 
    107 C         -6.5470  -22.8874  -56.0916 C.2       19 UNK         0.5000 
    108 O         -7.4543  -23.6264  -55.7088 O.2       19 UNK        -0.5000 
    109 N         -6.4992  -21.5801  -55.8138 N.am      20 UNK        -0.5000 
    110 CA        -7.5135  -20.8243  -55.0757 C.3       20 UNK         0.1400 
    111 CB        -7.2748  -19.3262  -55.3243 C.3       20 UNK        -0.1800 
    112 C         -7.5449  -21.1143  -53.5611 C.2       20 UNK         0.5000 
    113 O         -8.5206  -20.7470  -52.9068 O.2       20 UNK        -0.5000 
    114 N         -6.4776  -21.7371  -53.0344 N.am      21 UNK        -0.5000 
    115 CA        -6.2276  -22.0220  -51.6136 C.3       21 UNK         0.1400 
    116 CB        -7.2921  -22.9737  -51.0278 C.3       21 UNK        -0.1800 
    117 C         -6.0247  -20.7419  -50.7712 C.2       21 UNK         0.5000 
    118 O         -6.3306  -20.7373  -49.5799 O.2       21 UNK        -0.5000 
    119 N         -5.4920  -19.6879  -51.4071 N.am      22 UNK        -0.5000 
    120 CA        -5.2344  -18.3605  -50.8267 C.3       22 UNK         0.1400 
    121 C         -6.5230  -17.6463  -50.2991 C.2       22 UNK         0.5000 
    122 N         -6.4164  -16.7297  -49.3467 N.am      22 UNK        -0.7600 
    123 O         -7.6254  -17.8716  -50.7933 O.2       22 UNK        -0.5000 
    124 C124       -4.0321  -18.3856  -49.8332 C.3       23 UNK        -0.0398 
    125 S125       -3.1859  -16.7703  -49.7293 S.3       23 UNK        -0.2404 
    126 C126       -1.8923  -16.9166  -51.0021 C.3       23 UNK        -0.0205 
    127 H127       -1.7668  -12.0922  -45.5567 H         1 UNK         0.0600 
    128 H128       -0.9798  -13.6580  -45.7662 H         1 UNK         0.0600 
    129 H129       -2.1245  -13.0836  -46.9783 H         1 UNK         0.0600 
    130 H130        1.1732  -13.3736  -46.2723 H         1 UNK         0.3000 
    131 H131        1.9651  -11.5854  -48.4884 H         1 UNK         0.0600 
    132 H132        3.4952  -13.7418  -46.9505 H         1 UNK         0.0800 
    133 H133        4.2148  -12.7088  -48.1602 H         1 UNK         0.0800 
    134 H134        2.9929  -16.1590  -47.7292 H         1 UNK         0.0800 
    135 H135        1.4700  -15.3596  -47.4145 H         1 UNK         0.0800 
    136 H136       -0.2808  -15.4045  -49.4255 H         1 UNK         0.1150 
    137 H137       -0.5118  -19.2677  -51.2658 H         1 UNK         0.1150 
    138 H138        2.9223  -18.2103  -48.9300 H         1 UNK         0.1150 
    139 H139        1.4221  -20.7211  -51.2637 H         1 UNK         0.0800 
    140 H140        2.9421  -20.1318  -50.6405 H         1 UNK         0.0800 
    141 H141       -0.4769  -20.5028  -48.4858 H         1 UNK         0.0800 
    142 H142       -0.4630  -21.6234  -49.8308 H         1 UNK         0.0800 
    143 H143        0.0392  -23.4920  -48.1284 H         1 UNK         0.0600 
    144 H144        0.0815  -21.3741  -46.2494 H         1 UNK         0.3000 
    145 H145       -0.5822  -23.4499  -43.3628 H         1 UNK         0.0600 
    146 H146        1.4995  -22.3042  -42.6918 H         1 UNK         0.0600 
    147 H147        1.8538  -23.5129  -43.9167 H         1 UNK         0.0600 
    148 H148        1.8086  -21.8099  -44.3544 H         1 UNK         0.0600 
    149 H149       -0.2560  -20.6416  -43.5549 H         1 UNK         0.3000 
    150 H150       -3.7300  -19.8133  -44.0245 H         1 UNK         0.0600 
    151 H151       -3.3733  -20.1302  -41.5868 H         1 UNK         0.0600 
    152 H152       -3.1655  -18.4408  -42.0262 H         1 UNK         0.0600 
    153 H153       -1.7565  -19.4504  -41.7088 H         1 UNK         0.0600 
    154 H154       -1.4644  -18.1271  -43.8525 H         1 UNK         0.3000 
    155 H155       -0.6222  -18.0993  -47.3394 H         1 UNK         0.0600 
    156 H156       -1.7024  -15.9868  -45.3991 H         1 UNK         0.0600 
    157 H157       -2.5021  -16.4700  -46.8828 H         1 UNK         0.0600 
    158 H158       -0.9256  -15.7048  -46.9583 H         1 UNK         0.0600 
    159 H159        0.5551  -16.8349  -45.0552 H         1 UNK         0.3000 
    160 H160        2.9161  -19.4187  -44.2933 H         1 UNK         0.0600 
    161 H161        3.1972  -16.5785  -45.4059 H         1 UNK         0.0600 
    162 H162        3.8567  -18.0268  -46.1593 H         1 UNK         0.0600 
    163 H163        4.4459  -17.5128  -44.5862 H         1 UNK         0.0600 
    164 H164        2.3392  -16.8544  -43.1330 H         1 UNK         0.3000 
    165 H165       -0.0525  -17.9564  -40.7504 H         1 UNK         0.0600 
    166 H166        2.8997  -17.2397  -40.3278 H         1 UNK         0.0600 
    167 H167        1.6173  -17.1153  -39.1227 H         1 UNK         0.0600 
    168 H168        2.1064  -18.6903  -39.7257 H         1 UNK         0.0600 
    169 H169        1.2929  -15.4790  -41.0411 H         1 UNK         0.3000 
    170 H170       -0.6761  -14.0284  -43.5867 H         1 UNK         0.0600 
    171 H171       -2.1946  -13.8346  -41.6217 H         1 UNK         0.0600 
    172 H172       -0.8170  -13.5471  -40.5643 H         1 UNK         0.0600 
    173 H173       -1.2303  -12.3793  -41.8197 H         1 UNK         0.0600 
    174 H174        1.3137  -13.0676  -41.7094 H         1 UNK         0.3000 
    175 H175        3.6456  -13.7034  -42.0508 H         1 UNK         0.0600 
    176 H176        4.5365  -14.9284  -44.0224 H         1 UNK         0.0600 
    177 H177        4.4701  -13.4531  -44.9759 H         1 UNK         0.0600 
    178 H178        5.5340  -13.5533  -43.5829 H         1 UNK         0.0600 
    179 H179        3.7661  -11.3928  -43.8655 H         1 UNK         0.3000 
    180 H180        2.3673   -9.1350  -41.5485 H         1 UNK         0.0600 
    181 H181        4.5763   -8.0055  -41.4468 H         1 UNK         0.0600 
    182 H182        4.5598   -9.4073  -40.3891 H         1 UNK         0.0600 
    183 H183        5.3876   -9.4928  -41.9395 H         1 UNK         0.0600 
    184 H184        4.0459   -8.8239  -43.8832 H         1 UNK         0.3000 
    185 H185        1.4253   -7.9659  -45.9208 H         1 UNK         0.0600 
    186 H186        3.5876   -7.5814  -47.0489 H         1 UNK         0.0600 
    187 H187        3.6827   -7.0479  -45.3817 H         1 UNK         0.0600 
    188 H188        4.4419   -8.5615  -45.8670 H         1 UNK         0.0600 
    189 H189        1.2022   -9.7966  -47.1507 H         1 UNK         0.3000 
    190 H190       -2.6451  -21.5085  -46.8357 H         1 UNK         0.3000 
    191 H191       -4.6759  -22.5544  -48.5232 H         1 UNK         0.0600 
    192 H192       -6.2178  -21.6525  -46.7928 H         1 UNK         0.0600 
    193 H193       -4.9484  -20.4940  -47.1485 H         1 UNK         0.0600 
    194 H194       -4.8826  -21.4445  -45.6678 H         1 UNK         0.0600 
    195 H195       -3.5239  -23.6049  -45.2880 H         1 UNK         0.3000 
    196 H196       -5.3241  -25.7814  -44.9767 H         1 UNK         0.0600 
    197 H197       -3.7557  -26.4474  -43.1447 H         1 UNK         0.0600 
    198 H198       -4.1302  -24.7314  -43.0818 H         1 UNK         0.0600 
    199 H199       -2.5775  -25.2707  -43.7154 H         1 UNK         0.0600 
    200 H200       -1.9649  -25.6645  -46.2481 H         1 UNK         0.3000 
    201 H201       -1.7946  -28.5020  -46.7524 H         1 UNK         0.0600 
    202 H202       -0.0885  -26.1562  -47.7472 H         1 UNK         0.0600 
    203 H203        0.3588  -27.8557  -47.8336 H         1 UNK         0.0600 
    204 H204        0.1887  -27.0752  -46.2688 H         1 UNK         0.0600 
    205 H205       -3.1757  -25.8891  -48.5283 H         1 UNK         0.3000 
    206 H206       -3.9823  -25.5149  -50.5419 H         1 UNK         0.0600 
    207 H207       -5.2507  -27.6595  -50.2923 H         1 UNK         0.0600 
    208 H208       -4.8453  -27.3201  -51.9672 H         1 UNK         0.0600 
    209 H209       -3.9350  -28.5317  -51.0782 H         1 UNK         0.0600 
    210 H210       -1.3713  -25.0873  -50.0997 H         1 UNK         0.3000 
    211 H211        0.2487  -26.0581  -52.3934 H         1 UNK         0.0600 
    212 H212        1.0559  -24.3854  -49.9578 H         1 UNK         0.0600 
    213 H213        2.1366  -25.1173  -51.1306 H         1 UNK         0.0600 
    214 H214        1.1915  -26.1415  -50.0621 H         1 UNK         0.0600 
    215 H215       -1.8049  -23.4746  -51.7091 H         1 UNK         0.3000 
    216 H216       -0.4489  -21.3302  -53.1285 H         1 UNK         0.0600 
    217 H217       -2.5998  -20.1686  -52.8495 H         1 UNK         0.0600 
    218 H218       -2.2526  -21.0027  -51.3438 H         1 UNK         0.0600 
    219 H219       -3.4197  -21.6760  -52.4753 H         1 UNK         0.0600 
    220 H220       -1.5940  -20.3297  -55.0660 H         1 UNK         0.3000 
    221 H221       -1.5899  -22.1665  -57.2704 H         1 UNK         0.0600 
    222 H222       -2.1767  -19.1653  -57.1085 H         1 UNK         0.0600 
    223 H223       -0.6083  -19.9093  -57.4188 H         1 UNK         0.0600 
    224 H224       -1.9045  -20.0734  -58.5911 H         1 UNK         0.0600 
    225 H225       -3.3914  -23.4357  -56.2601 H         1 UNK         0.3000 
    226 H226       -5.2708  -24.5118  -56.5778 H         1 UNK         0.0600 
    227 H227       -4.9920  -24.0376  -58.9993 H         1 UNK         0.0600 
    228 H228       -6.6917  -24.1068  -58.5623 H         1 UNK         0.0600 
    229 H229       -5.9252  -22.5501  -58.8368 H         1 UNK         0.0600 
    230 H230       -5.7446  -21.0486  -56.2388 H         1 UNK         0.3000 
    231 H231       -8.4944  -21.0866  -55.4774 H         1 UNK         0.0600 
    232 H232       -8.0259  -18.7184  -54.8176 H         1 UNK         0.0600 
    233 H233       -7.3307  -19.0894  -56.3871 H         1 UNK         0.0600 
    234 H234       -6.2962  -19.0092  -54.9617 H         1 UNK         0.0600 
    235 H235       -5.7473  -22.0097  -53.6760 H         1 UNK         0.3000 
    236 H236       -5.2815  -22.5610  -51.5712 H         1 UNK         0.0600 
    237 H237       -8.2633  -22.4886  -50.9292 H         1 UNK         0.0600 
    238 H238       -7.4185  -23.8573  -51.6533 H         1 UNK         0.0600 
    239 H239       -7.0004  -23.3196  -50.0350 H         1 UNK         0.0600 
    240 H240       -5.3231  -19.7718  -52.3974 H         1 UNK         0.3000 
    241 H241       -4.9321  -17.7609  -51.6860 H         1 UNK         0.0600 
    242 H242       -5.5133  -16.4852  -48.9679 H         1 UNK         0.3800 
    243 H243       -7.2435  -16.2536  -49.0227 H         1 UNK         0.3800 
    244 H244       -3.2963  -19.1307  -50.1366 H         1 UNK         0.0800 
    245 H245       -4.3570  -18.6888  -48.8365 H         1 UNK         0.0800 
    246 H246       -2.1984  -17.6252  -51.7730 H         1 UNK         0.0800 
    247 H247       -1.7903  -15.9530  -51.5032 H         1 UNK         0.0800 
@<TRIPOS>BOND
     1    1    2 1    
     2    1  127 1    
     3    1  128 1    
     4    1  129 1    
     5    2    3 2    
     6    2    4 am   BACKBONE|DICT|INTERRES
     7    4    5 1    
     8    4  130 1    
     9    5    6 1    
    10    5   65 1    
    11    5  131 1    
    12    6    7 1    
    13    6  132 1    
    14    6  133 1    
    15    7    8 1    
    16    8    9 1    
    17    8  134 1    
    18    8  135 1    
    19    9   10 ar   
    20    9   14 ar   
    21   10   11 ar   
    22   10  136 1    
    23   11   12 ar   
    24   11  126 1    
    25   12   13 ar   
    26   12  137 1    
    27   13   14 ar   
    28   13   15 1    
    29   14  138 1    
    30   15   16 1    
    31   15  139 1    
    32   15  140 1    
    33   16   17 1    
    34   17   18 1    
    35   17  141 1    
    36   17  142 1    
    37   18   19 1    
    38   18   67 1    
    39   18  143 1    
    40   19   20 am   BACKBONE|DICT|INTERRES
    41   19  144 1    
    42   20   21 2    
    43   20   22 1    
    44   22   23 1    
    45   22   24 1    
    46   22  145 1    
    47   23  146 1    
    48   23  147 1    
    49   23  148 1    
    50   24   25 am   BACKBONE|DICT|INTERRES
    51   24  149 1    
    52   25   26 2    
    53   25   27 1    
    54   27   28 1    
    55   27   29 1    
    56   27  150 1    
    57   28  151 1    
    58   28  152 1    
    59   28  153 1    
    60   29   30 am   BACKBONE|DICT|INTERRES
    61   29  154 1    
    62   30   31 2    
    63   30   32 1    
    64   32   33 1    
    65   32   34 1    
    66   32  155 1    
    67   33  156 1    
    68   33  157 1    
    69   33  158 1    
    70   34   35 am   BACKBONE|DICT|INTERRES
    71   34  159 1    
    72   35   36 2    
    73   35   37 1    
    74   37   38 1    
    75   37   39 1    
    76   37  160 1    
    77   38  161 1    
    78   38  162 1    
    79   38  163 1    
    80   39   40 am   BACKBONE|DICT|INTERRES
    81   39  164 1    
    82   40   41 2    
    83   40   42 1    
    84   42   43 1    
    85   42   44 1    
    86   42  165 1    
    87   43  166 1    
    88   43  167 1    
    89   43  168 1    
    90   44   45 am   BACKBONE|DICT|INTERRES
    91   44  169 1    
    92   45   46 2    
    93   45   47 1    
    94   47   48 1    
    95   47   49 1    
    96   47  170 1    
    97   48  171 1    
    98   48  172 1    
    99   48  173 1    
   100   49   50 am   BACKBONE|DICT|INTERRES
   101   49  174 1    
   102   50   51 2    
   103   50   52 1    
   104   52   53 1    
   105   52   54 1    
   106   52  175 1    
   107   53  176 1    
   108   53  177 1    
   109   53  178 1    
   110   54   55 am   BACKBONE|DICT|INTERRES
   111   54  179 1    
   112   55   56 2    
   113   55   57 1    
   114   57   58 1    
   115   57   59 1    
   116   57  180 1    
   117   58  181 1    
   118   58  182 1    
   119   58  183 1    
   120   59   60 am   BACKBONE|DICT|INTERRES
   121   59  184 1    
   122   60   61 2    
   123   60   62 1    
   124   62   63 1    
   125   62   64 1    
   126   62  185 1    
   127   63  186 1    
   128   63  187 1    
   129   63  188 1    
   130   64   65 am   BACKBONE|DICT|INTERRES
   131   64  189 1    
   132   65   66 2    
   133   67   68 2    
   134   67   69 am   BACKBONE|DICT|INTERRES
   135   69   70 1    
   136   69  190 1    
   137   70   71 1    
   138   70   72 1    
   139   70  191 1    
   140   71  192 1    
   141   71  193 1    
   142   71  194 1    
   143   72   73 2    
   144   72   74 am   BACKBONE|DICT|INTERRES
   145   74   75 1    
   146   74  195 1    
   147   75   76 1    
   148   75   77 1    
   149   75  196 1    
   150   76  197 1    
   151   76  198 1    
   152   76  199 1    
   153   77   78 2    
   154   77   79 am   BACKBONE|DICT|INTERRES
   155   79   80 1    
   156   79  200 1    
   157   80   81 1    
   158   80   82 1    
   159   80  201 1    
   160   81  202 1    
   161   81  203 1    
   162   81  204 1    
   163   82   83 2    
   164   82   84 am   BACKBONE|DICT|INTERRES
   165   84   85 1    
   166   84  205 1    
   167   85   86 1    
   168   85   87 1    
   169   85  206 1    
   170   86  207 1    
   171   86  208 1    
   172   86  209 1    
   173   87   88 2    
   174   87   89 am   BACKBONE|DICT|INTERRES
   175   89   90 1    
   176   89  210 1    
   177   90   91 1    
   178   90   92 1    
   179   90  211 1    
   180   91  212 1    
   181   91  213 1    
   182   91  214 1    
   183   92   93 2    
   184   92   94 am   BACKBONE|DICT|INTERRES
   185   94   95 1    
   186   94  215 1    
   187   95   96 1    
   188   95   97 1    
   189   95  216 1    
   190   96  217 1    
   191   96  218 1    
   192   96  219 1    
   193   97   98 2    
   194   97   99 am   BACKBONE|DICT|INTERRES
   195   99  100 1    
   196   99  220 1    
   197  100  101 1    
   198  100  102 1    
   199  100  221 1    
   200  101  222 1    
   201  101  223 1    
   202  101  224 1    
   203  102  103 2    
   204  102  104 am   BACKBONE|DICT|INTERRES
   205  104  105 1    
   206  104  225 1    
   207  105  106 1    
   208  105  107 1    
   209  105  226 1    
   210  106  227 1    
   211  106  228 1    
   212  106  229 1    
   213  107  108 2    
   214  107  109 am   BACKBONE|DICT|INTERRES
   215  109  110 1    
   216  109  230 1    
   217  110  111 1    
   218  110  112 1    
   219  110  231 1    
   220  111  232 1    
   221  111  233 1    
   222  111  234 1    
   223  112  113 2    
   224  112  114 am   BACKBONE|DICT|INTERRES
   225  114  115 1    
   226  114  235 1    
   227  115  116 1    
   228  115  117 1    
   229  115  236 1    
   230  116  237 1    
   231  116  238 1    
   232  116  239 1    
   233  117  118 2    
   234  117  119 am   BACKBONE|DICT|INTERRES
   235  119  120 1    
   236  119  240 1    
   237  120  121 1    
   238  120  124 1    
   239  120  241 1    
   240  121  122 am   BACKBONE|DICT|INTERRES
   241  121  123 2    
   242  122  242 1    
   243  122  243 1    
   244  124  125 1    
   245  124  244 1    
   246  124  245 1    
   247  125  126 1    
   248  126  246 1    
   249  126  247 1    
@<TRIPOS>SUBSTRUCTURE
     1 UNK         1 GROUP             0       ****    0 ROOT    
