@<TRIPOS>MOLECULE
3R540
247   249    1
SMALL
USER_CHARGES


@<TRIPOS>ATOM
      1 CA          3.2571  -10.3031  -48.2348 C.3       0 UNK        -0.1800 
      2 C           3.0117  -11.8045  -48.2900 C.2       0 UNK         0.5000 
      3 O           3.8488  -12.5450  -48.8061 O.2       0 UNK        -0.5000 
      4 N           1.8695  -12.2532  -47.7615 N.am      1 UNK        -0.5000 
      5 CA          1.4839  -13.6588  -47.6640 C.3       1 UNK         0.1400 
      6 C6          0.9361  -14.2283  -49.0019 C.3       23 UNK        -0.0398 
      7 S7          0.9493  -16.0546  -49.0503 S.3       23 UNK        -0.2404 
      8 C8          2.5982  -16.3505  -49.7582 C.3       23 UNK        -0.0205 
      9 C9          2.8530  -17.8302  -49.9982 C.ar      23 UNK        -0.0193 
     10 C10         2.3299  -18.4491  -51.1365 C.ar      23 UNK        -0.1150 
     11 C11         2.5829  -19.7995  -51.3928 C.ar      23 UNK        -0.0193 
     12 C12         3.3841  -20.5259  -50.5076 C.ar      23 UNK        -0.1150 
     13 C13         3.9233  -19.9179  -49.3698 C.ar      23 UNK        -0.0193 
     14 C14         3.6424  -18.5713  -49.1128 C.ar      23 UNK        -0.1150 
     15 C15         4.8555  -20.7002  -48.4524 C.3       23 UNK        -0.0205 
     16 S16         4.0832  -22.1920  -47.7481 S.3       23 UNK        -0.2404 
     17 C17         2.8861  -21.4499  -46.5947 C.3       23 UNK        -0.0398 
     18 CA          1.6054  -22.2992  -46.4212 C.3       11 UNK         0.1400 
     19 N           0.9091  -21.9627  -45.1769 N.am      11 UNK        -0.5000 
     20 C          -0.1423  -22.6234  -44.6726 C.2       10 UNK         0.5000 
     21 O          -0.6176  -23.6416  -45.1750 O.2       10 UNK        -0.5000 
     22 CA         -0.8007  -22.0139  -43.4196 C.3       10 UNK         0.1400 
     23 CB         -0.0483  -22.4265  -42.1459 C.3       10 UNK        -0.1800 
     24 N          -0.8890  -20.5540  -43.4859 N.am      10 UNK        -0.5000 
     25 C          -1.6086  -19.8782  -44.3929 C.2       9 UNK         0.5000 
     26 O          -2.3264  -20.4150  -45.2344 O.2       9 UNK        -0.5000 
     27 CA         -1.4536  -18.3483  -44.4036 C.3       9 UNK         0.1400 
     28 CB         -2.2952  -17.7054  -43.2890 C.3       9 UNK        -0.1800 
     29 N          -0.0518  -17.9337  -44.2992 N.am      9 UNK        -0.5000 
     30 C           0.8861  -18.2232  -45.2149 C.2       8 UNK         0.5000 
     31 O           0.6452  -18.7992  -46.2737 O.2       8 UNK        -0.5000 
     32 CA          2.3458  -17.8802  -44.8680 C.3       8 UNK         0.1400 
     33 CB          2.7130  -16.4633  -45.3194 C.3       8 UNK        -0.1800 
     34 N           2.6220  -18.0312  -43.4414 N.am      8 UNK        -0.5000 
     35 C           2.7043  -19.2138  -42.8164 C.2       7 UNK         0.5000 
     36 O           2.6059  -20.2972  -43.3911 O.2       7 UNK        -0.5000 
     37 CA          2.8635  -19.1716  -41.2862 C.3       7 UNK         0.1400 
     38 CB          4.3316  -18.9424  -40.8976 C.3       7 UNK        -0.1800 
     39 N           2.0296  -18.1338  -40.6774 N.am      7 UNK        -0.5000 
     40 C           0.6887  -18.1409  -40.6875 C.2       6 UNK         0.5000 
     41 O           0.0196  -19.0672  -41.1437 O.2       6 UNK        -0.5000 
     42 CA         -0.0207  -16.8867  -40.1424 C.3       6 UNK         0.1400 
     43 CB         -0.3540  -17.0620  -38.6537 C.3       6 UNK        -0.1800 
     44 N           0.7654  -15.6632  -40.3228 N.am      6 UNK        -0.5000 
     45 C           1.0343  -15.0950  -41.5059 C.2       5 UNK         0.5000 
     46 O           0.6327  -15.5321  -42.5864 O.2       5 UNK        -0.5000 
     47 CA          1.9817  -13.8909  -41.4702 C.3       5 UNK         0.1400 
     48 CB          3.4200  -14.3314  -41.7962 C.3       5 UNK        -0.1800 
     49 N           1.5570  -12.8622  -42.4161 N.am      5 UNK        -0.5000 
     50 C           1.7817  -11.5521  -42.2417 C.2       4 UNK         0.5000 
     51 O           2.3399  -11.0854  -41.2473 O.2       4 UNK        -0.5000 
     52 CA          1.3186  -10.5888  -43.3464 C.3       4 UNK         0.1400 
     53 CB          2.4108  -10.4360  -44.4182 C.3       4 UNK        -0.1800 
     54 N           0.0779  -11.0297  -43.9804 N.am      4 UNK        -0.5000 
     55 C          -1.1444  -10.5833  -43.6597 C.2       3 UNK         0.5000 
     56 O          -1.3571   -9.7679  -42.7611 O.2       3 UNK        -0.5000 
     57 CA         -2.3351  -11.1039  -44.4916 C.3       3 UNK         0.1400 
     58 CB         -2.7778  -10.0422  -45.5108 C.3       3 UNK        -0.1800 
     59 N          -2.0425  -12.3454  -45.2082 N.am      3 UNK        -0.5000 
     60 C          -2.0143  -13.5575  -44.6404 C.2       2 UNK         0.5000 
     61 O          -2.3005  -13.7652  -43.4615 O.2       2 UNK        -0.5000 
     62 CA         -1.5760  -14.7327  -45.5372 C.3       2 UNK         0.1400 
     63 CB         -2.8048  -15.4053  -46.1686 C.3       2 UNK        -0.1800 
     64 N          -0.6288  -14.3932  -46.6046 N.am      2 UNK        -0.5000 
     65 C           0.5632  -13.8051  -46.4377 C.2       1 UNK         0.5000 
     66 O           0.9506  -13.3678  -45.3534 O.2       1 UNK        -0.5000 
     67 C           0.6749  -22.2078  -47.6515 C.2       11 UNK         0.5000 
     68 O           0.6738  -23.1201  -48.4780 O.2       11 UNK        -0.5000 
     69 N          -0.1346  -21.1414  -47.7236 N.am      12 UNK        -0.5000 
     70 CA         -1.1604  -20.9581  -48.7480 C.3       12 UNK         0.1400 
     71 CB         -1.6951  -19.5185  -48.7057 C.3       12 UNK        -0.1800 
     72 C          -2.2985  -21.9869  -48.6245 C.2       12 UNK         0.5000 
     73 O          -2.6671  -22.5998  -49.6245 O.2       12 UNK        -0.5000 
     74 N          -2.8029  -22.1995  -47.3991 N.am      13 UNK        -0.5000 
     75 CA         -3.8686  -23.1554  -47.0763 C.3       13 UNK         0.1400 
     76 CB         -4.2223  -23.0552  -45.5858 C.3       13 UNK        -0.1800 
     77 C          -3.5427  -24.6124  -47.4540 C.2       13 UNK         0.5000 
     78 O          -4.4491  -25.3568  -47.8301 O.2       13 UNK        -0.5000 
     79 N          -2.2554  -24.9819  -47.4015 N.am      14 UNK        -0.5000 
     80 CA         -1.7340  -26.2872  -47.8133 C.3       14 UNK         0.1400 
     81 CB         -0.2512  -26.3861  -47.4247 C.3       14 UNK        -0.1800 
     82 C          -1.9306  -26.6092  -49.3113 C.2       14 UNK         0.5000 
     83 O          -1.8707  -27.7833  -49.6784 O.2       14 UNK        -0.5000 
     84 N          -2.1935  -25.5909  -50.1461 N.am      15 UNK        -0.5000 
     85 CA         -2.5559  -25.7497  -51.5573 C.3       15 UNK         0.1400 
     86 CB         -2.2186  -24.4572  -52.3155 C.3       15 UNK        -0.1800 
     87 C          -4.0318  -26.1613  -51.7672 C.2       15 UNK         0.5000 
     88 O          -4.4167  -26.4323  -52.9061 O.2       15 UNK        -0.5000 
     89 N          -4.8251  -26.2214  -50.6839 N.am      16 UNK        -0.5000 
     90 CA         -6.1998  -26.7238  -50.6028 C.3       16 UNK         0.1400 
     91 CB         -6.2142  -28.2590  -50.7736 C.3       16 UNK        -0.1800 
     92 C          -7.1557  -25.9819  -51.5568 C.2       16 UNK         0.5000 
     93 O          -7.4947  -24.8291  -51.2928 O.2       16 UNK        -0.5000 
     94 N          -7.5559  -26.6283  -52.6597 N.am      17 UNK        -0.5000 
     95 CA         -8.4100  -26.0555  -53.7039 C.3       17 UNK         0.1400 
     96 CB         -8.7802  -27.1601  -54.7052 C.3       17 UNK        -0.1800 
     97 C          -7.7766  -24.8541  -54.4364 C.2       17 UNK         0.5000 
     98 O          -8.5082  -24.0177  -54.9668 O.2       17 UNK        -0.5000 
     99 N          -6.4392  -24.7798  -54.4373 N.am      18 UNK        -0.5000 
    100 CA        -5.6549  -23.7036  -55.0394 C.3       18 UNK         0.1400 
    101 CB        -4.4849  -24.3314  -55.8170 C.3       18 UNK        -0.1800 
    102 C         -5.1635  -22.6765  -53.9980 C.2       18 UNK         0.5000 
    103 O         -4.3044  -21.8617  -54.3286 O.2       18 UNK        -0.5000 
    104 N         -5.6903  -22.7134  -52.7629 N.am      19 UNK        -0.5000 
    105 CA        -5.2795  -21.8297  -51.6651 C.3       19 UNK         0.1400 
    106 CB        -5.8544  -22.3443  -50.3390 C.3       19 UNK        -0.1800 
    107 C         -5.6414  -20.3462  -51.8532 C.2       19 UNK         0.5000 
    108 O         -5.0109  -19.5014  -51.2174 O.2       19 UNK        -0.5000 
    109 N         -6.6289  -20.0479  -52.7097 N.am      20 UNK        -0.5000 
    110 CA        -7.0958  -18.7021  -53.0538 C.3       20 UNK         0.1400 
    111 CB        -8.3301  -18.8256  -53.9634 C.3       20 UNK        -0.1800 
    112 C         -5.9824  -17.8546  -53.7056 C.2       20 UNK         0.5000 
    113 O         -5.7812  -17.9351  -54.9179 O.2       20 UNK        -0.5000 
    114 N         -5.2547  -17.1058  -52.8629 N.am      21 UNK        -0.5000 
    115 CA        -4.0302  -16.3461  -53.1527 C.3       21 UNK         0.1400 
    116 CB        -4.2920  -15.2347  -54.1910 C.3       21 UNK        -0.1800 
    117 C         -2.8174  -17.2343  -53.5197 C.2       21 UNK         0.5000 
    118 O         -1.8377  -16.7271  -54.0691 O.2       21 UNK        -0.5000 
    119 N         -2.8917  -18.5304  -53.1845 N.am      22 UNK        -0.5000 
    120 CA        -1.9194  -19.5847  -53.5144 C.3       22 UNK         0.1400 
    121 C         -1.7260  -19.8231  -55.0501 C.2       22 UNK         0.5000 
    122 N         -0.7565  -20.6355  -55.4490 N.am      22 UNK        -0.7600 
    123 O         -2.4569  -19.3080  -55.8936 O.2       22 UNK        -0.5000 
    124 C124       -0.5894  -19.3954  -52.7309 C.3       23 UNK        -0.0398 
    125 S125        0.2843  -20.9681  -52.4079 S.3       23 UNK        -0.2404 
    126 C126        2.0194  -20.4697  -52.6372 C.3       23 UNK        -0.0205 
    127 H127        4.1280  -10.0885  -47.6154 H         1 UNK         0.0600 
    128 H128        2.4036   -9.7672  -47.8190 H         1 UNK         0.0600 
    129 H129        3.4451   -9.9159  -49.2362 H         1 UNK         0.0600 
    130 H130        1.2372  -11.6031  -47.3167 H         1 UNK         0.3000 
    131 H131        2.3866  -14.2165  -47.4081 H         1 UNK         0.0600 
    132 H132       -0.0710  -13.8634  -49.2087 H         1 UNK         0.0800 
    133 H133        1.5414  -13.8681  -49.8347 H         1 UNK         0.0800 
    134 H134        3.3571  -15.9360  -49.0927 H         1 UNK         0.0800 
    135 H135        2.6913  -15.8123  -50.7028 H         1 UNK         0.0800 
    136 H136        1.7282  -17.8726  -51.8237 H         1 UNK         0.1150 
    137 H137        3.5988  -21.5663  -50.7079 H         1 UNK         0.1150 
    138 H138        4.0595  -18.0911  -48.2389 H         1 UNK         0.1150 
    139 H139        5.7335  -21.0007  -49.0257 H         1 UNK         0.0800 
    140 H140        5.2230  -20.0721  -47.6393 H         1 UNK         0.0800 
    141 H141        2.6381  -20.4369  -46.9119 H         1 UNK         0.0800 
    142 H142        3.4031  -21.3507  -45.6402 H         1 UNK         0.0800 
    143 H143        1.9066  -23.3446  -46.3232 H         1 UNK         0.0600 
    144 H144        1.2701  -21.1697  -44.6580 H         1 UNK         0.3000 
    145 H145       -1.8171  -22.4056  -43.3523 H         1 UNK         0.0600 
    146 H146       -0.5485  -22.0487  -41.2539 H         1 UNK         0.0600 
    147 H147        0.9742  -22.0489  -42.1390 H         1 UNK         0.0600 
    148 H148        0.0015  -23.5124  -42.0570 H         1 UNK         0.0600 
    149 H149       -0.3695  -20.0304  -42.7870 H         1 UNK         0.3000 
    150 H150       -1.8270  -17.9892  -45.3630 H         1 UNK         0.0600 
    151 H151       -3.3588  -17.8285  -43.4955 H         1 UNK         0.0600 
    152 H152       -2.1042  -16.6372  -43.1955 H         1 UNK         0.0600 
    153 H153       -2.1052  -18.1610  -42.3186 H         1 UNK         0.0600 
    154 H154        0.2154  -17.4010  -43.4800 H         1 UNK         0.3000 
    155 H155        2.9871  -18.5746  -45.4140 H         1 UNK         0.0600 
    156 H156        2.5295  -16.3440  -46.3868 H         1 UNK         0.0600 
    157 H157        3.7682  -16.2532  -45.1454 H         1 UNK         0.0600 
    158 H158        2.1299  -15.7107  -44.7908 H         1 UNK         0.0600 
    159 H159        2.6666  -17.1849  -42.8946 H         1 UNK         0.3000 
    160 H160        2.5493  -20.1396  -40.8898 H         1 UNK         0.0600 
    161 H161        4.6970  -17.9756  -41.2461 H         1 UNK         0.0600 
    162 H162        4.9733  -19.7114  -41.3298 H         1 UNK         0.0600 
    163 H163        4.4633  -18.9812  -39.8162 H         1 UNK         0.0600 
    164 H164        2.5052  -17.3448  -40.2663 H         1 UNK         0.3000 
    165 H165       -0.9577  -16.7694  -40.6899 H         1 UNK         0.0600 
    166 H166       -0.9208  -16.2119  -38.2737 H         1 UNK         0.0600 
    167 H167       -0.9614  -17.9538  -38.4927 H         1 UNK         0.0600 
    168 H168        0.5468  -17.1645  -38.0473 H         1 UNK         0.0600 
    169 H169        1.1408  -15.2466  -39.4827 H         1 UNK         0.3000 
    170 H170        1.9608  -13.4818  -40.4576 H         1 UNK         0.0600 
    171 H171        3.5012  -14.7119  -42.8150 H         1 UNK         0.0600 
    172 H172        4.1188  -13.5008  -41.6955 H         1 UNK         0.0600 
    173 H173        3.7556  -15.1190  -41.1205 H         1 UNK         0.0600 
    174 H174        1.1047  -13.1953  -43.2619 H         1 UNK         0.3000 
    175 H175        1.1706   -9.6082  -42.8890 H         1 UNK         0.0600 
    176 H176        2.6517  -11.3865  -44.8947 H         1 UNK         0.0600 
    177 H177        2.1042   -9.7371  -45.1963 H         1 UNK         0.0600 
    178 H178        3.3322  -10.0500  -43.9807 H         1 UNK         0.0600 
    179 H179        0.1716  -11.7717  -44.6657 H         1 UNK         0.3000 
    180 H180       -3.1648  -11.2810  -43.8039 H         1 UNK         0.0600 
    181 H181       -3.6580  -10.3695  -46.0645 H         1 UNK         0.0600 
    182 H182       -1.9892   -9.8217  -46.2313 H         1 UNK         0.0600 
    183 H183       -3.0385   -9.1070  -45.0134 H         1 UNK         0.0600 
    184 H184       -1.8097  -12.2657  -46.1868 H         1 UNK         0.3000 
    185 H185       -1.0701  -15.4513  -44.8935 H         1 UNK         0.0600 
    186 H186       -3.3549  -14.7134  -46.8076 H         1 UNK         0.0600 
    187 H187       -2.5217  -16.2637  -46.7779 H         1 UNK         0.0600 
    188 H188       -3.4939  -15.7612  -45.4017 H         1 UNK         0.0600 
    189 H189       -0.8627  -14.7399  -47.5238 H         1 UNK         0.3000 
    190 H190       -0.0309  -20.3945  -47.0416 H         1 UNK         0.3000 
    191 H191       -0.6869  -21.1089  -49.7180 H         1 UNK         0.0600 
    192 H192       -2.4495  -19.3604  -49.4779 H         1 UNK         0.0600 
    193 H193       -0.8944  -18.7987  -48.8794 H         1 UNK         0.0600 
    194 H194       -2.1518  -19.2837  -47.7441 H         1 UNK         0.0600 
    195 H195       -2.4670  -21.6260  -46.6282 H         1 UNK         0.3000 
    196 H196       -4.7507  -22.8644  -47.6468 H         1 UNK         0.0600 
    197 H197       -4.5449  -22.0480  -45.3224 H         1 UNK         0.0600 
    198 H198       -3.3723  -23.3131  -44.9547 H         1 UNK         0.0600 
    199 H199       -5.0376  -23.7334  -45.3309 H         1 UNK         0.0600 
    200 H200       -1.5812  -24.3178  -47.0386 H         1 UNK         0.3000 
    201 H201       -2.2803  -27.0458  -47.2493 H         1 UNK         0.0600 
    202 H202       -0.1065  -26.2003  -46.3602 H         1 UNK         0.0600 
    203 H203        0.3575  -25.6706  -47.9767 H         1 UNK         0.0600 
    204 H204        0.1422  -27.3809  -47.6372 H         1 UNK         0.0600 
    205 H205       -2.2329  -24.6457  -49.7780 H         1 UNK         0.3000 
    206 H206       -1.9413  -26.5460  -51.9820 H         1 UNK         0.0600 
    207 H207       -2.8727  -23.6393  -52.0236 H         1 UNK         0.0600 
    208 H208       -1.1905  -24.1439  -52.1321 H         1 UNK         0.0600 
    209 H209       -2.3274  -24.5934  -53.3909 H         1 UNK         0.0600 
    210 H210       -4.4367  -25.9240  -49.7953 H         1 UNK         0.3000 
    211 H211       -6.5478  -26.5028  -49.5927 H         1 UNK         0.0600 
    212 H212       -5.8113  -28.5744  -51.7366 H         1 UNK         0.0600 
    213 H213       -7.2268  -28.6556  -50.6881 H         1 UNK         0.0600 
    214 H214       -5.6168  -28.7383  -49.9978 H         1 UNK         0.0600 
    215 H215       -7.2069  -27.5619  -52.8211 H         1 UNK         0.3000 
    216 H216       -9.3272  -25.7015  -53.2287 H         1 UNK         0.0600 
    217 H217       -9.4409  -26.7767  -55.4840 H         1 UNK         0.0600 
    218 H218       -9.3026  -27.9807  -54.2131 H         1 UNK         0.0600 
    219 H219       -7.8965  -27.5694  -55.1966 H         1 UNK         0.0600 
    220 H220       -5.9079  -25.4963  -53.9511 H         1 UNK         0.3000 
    221 H221       -6.2648  -23.1499  -55.7558 H         1 UNK         0.0600 
    222 H222       -3.8297  -24.9072  -55.1642 H         1 UNK         0.0600 
    223 H223       -4.8486  -25.0016  -56.5960 H         1 UNK         0.0600 
    224 H224       -3.8772  -23.5694  -56.3068 H         1 UNK         0.0600 
    225 H225       -6.3894  -23.4128  -52.5419 H         1 UNK         0.3000 
    226 H226       -4.1923  -21.8653  -51.5984 H         1 UNK         0.0600 
    227 H227       -5.4865  -23.3450  -50.1122 H         1 UNK         0.0600 
    228 H228       -5.5602  -21.6968  -49.5125 H         1 UNK         0.0600 
    229 H229       -6.9441  -22.3751  -50.3567 H         1 UNK         0.0600 
    230 H230       -7.0697  -20.8121  -53.1996 H         1 UNK         0.3000 
    231 H231       -7.4102  -18.2075  -52.1325 H         1 UNK         0.0600 
    232 H232       -8.7021  -17.8415  -54.2513 H         1 UNK         0.0600 
    233 H233       -9.1438  -19.3438  -53.4556 H         1 UNK         0.0600 
    234 H234       -8.1050  -19.3729  -54.8798 H         1 UNK         0.0600 
    235 H235       -5.4808  -17.1760  -51.8792 H         1 UNK         0.3000 
    236 H236       -3.7604  -15.8557  -52.2164 H         1 UNK         0.0600 
    237 H237       -4.4728  -15.6423  -55.1857 H         1 UNK         0.0600 
    238 H238       -5.1543  -14.6288  -53.9130 H         1 UNK         0.0600 
    239 H239       -3.4365  -14.5627  -54.2674 H         1 UNK         0.0600 
    240 H240       -3.7281  -18.8418  -52.7059 H         1 UNK         0.3000 
    241 H241       -2.3918  -20.4944  -53.1441 H         1 UNK         0.0600 
    242 H242       -0.6301  -20.8093  -56.4335 H         1 UNK         0.3800 
    243 H243       -0.1591  -21.0906  -54.7747 H         1 UNK         0.3800 
    244 H244       -0.7859  -18.9458  -51.7563 H         1 UNK         0.0800 
    245 H245        0.0576  -18.6931  -53.2580 H         1 UNK         0.0800 
    246 H246        2.6037  -21.3596  -52.8763 H         1 UNK         0.0800 
    247 H247        2.1160  -19.8090  -53.4999 H         1 UNK         0.0800 
@<TRIPOS>BOND
     1    1    2 1    
     2    1  127 1    
     3    1  128 1    
     4    1  129 1    
     5    2    3 2    
     6    2    4 am   BACKBONE|DICT|INTERRES
     7    4    5 1    
     8    4  130 1    
     9    5    6 1    
    10    5   65 1    
    11    5  131 1    
    12    6    7 1    
    13    6  132 1    
    14    6  133 1    
    15    7    8 1    
    16    8    9 1    
    17    8  134 1    
    18    8  135 1    
    19    9   10 ar   
    20    9   14 ar   
    21   10   11 ar   
    22   10  136 1    
    23   11   12 ar   
    24   11  126 1    
    25   12   13 ar   
    26   12  137 1    
    27   13   14 ar   
    28   13   15 1    
    29   14  138 1    
    30   15   16 1    
    31   15  139 1    
    32   15  140 1    
    33   16   17 1    
    34   17   18 1    
    35   17  141 1    
    36   17  142 1    
    37   18   19 1    
    38   18   67 1    
    39   18  143 1    
    40   19   20 am   BACKBONE|DICT|INTERRES
    41   19  144 1    
    42   20   21 2    
    43   20   22 1    
    44   22   23 1    
    45   22   24 1    
    46   22  145 1    
    47   23  146 1    
    48   23  147 1    
    49   23  148 1    
    50   24   25 am   BACKBONE|DICT|INTERRES
    51   24  149 1    
    52   25   26 2    
    53   25   27 1    
    54   27   28 1    
    55   27   29 1    
    56   27  150 1    
    57   28  151 1    
    58   28  152 1    
    59   28  153 1    
    60   29   30 am   BACKBONE|DICT|INTERRES
    61   29  154 1    
    62   30   31 2    
    63   30   32 1    
    64   32   33 1    
    65   32   34 1    
    66   32  155 1    
    67   33  156 1    
    68   33  157 1    
    69   33  158 1    
    70   34   35 am   BACKBONE|DICT|INTERRES
    71   34  159 1    
    72   35   36 2    
    73   35   37 1    
    74   37   38 1    
    75   37   39 1    
    76   37  160 1    
    77   38  161 1    
    78   38  162 1    
    79   38  163 1    
    80   39   40 am   BACKBONE|DICT|INTERRES
    81   39  164 1    
    82   40   41 2    
    83   40   42 1    
    84   42   43 1    
    85   42   44 1    
    86   42  165 1    
    87   43  166 1    
    88   43  167 1    
    89   43  168 1    
    90   44   45 am   BACKBONE|DICT|INTERRES
    91   44  169 1    
    92   45   46 2    
    93   45   47 1    
    94   47   48 1    
    95   47   49 1    
    96   47  170 1    
    97   48  171 1    
    98   48  172 1    
    99   48  173 1    
   100   49   50 am   BACKBONE|DICT|INTERRES
   101   49  174 1    
   102   50   51 2    
   103   50   52 1    
   104   52   53 1    
   105   52   54 1    
   106   52  175 1    
   107   53  176 1    
   108   53  177 1    
   109   53  178 1    
   110   54   55 am   BACKBONE|DICT|INTERRES
   111   54  179 1    
   112   55   56 2    
   113   55   57 1    
   114   57   58 1    
   115   57   59 1    
   116   57  180 1    
   117   58  181 1    
   118   58  182 1    
   119   58  183 1    
   120   59   60 am   BACKBONE|DICT|INTERRES
   121   59  184 1    
   122   60   61 2    
   123   60   62 1    
   124   62   63 1    
   125   62   64 1    
   126   62  185 1    
   127   63  186 1    
   128   63  187 1    
   129   63  188 1    
   130   64   65 am   BACKBONE|DICT|INTERRES
   131   64  189 1    
   132   65   66 2    
   133   67   68 2    
   134   67   69 am   BACKBONE|DICT|INTERRES
   135   69   70 1    
   136   69  190 1    
   137   70   71 1    
   138   70   72 1    
   139   70  191 1    
   140   71  192 1    
   141   71  193 1    
   142   71  194 1    
   143   72   73 2    
   144   72   74 am   BACKBONE|DICT|INTERRES
   145   74   75 1    
   146   74  195 1    
   147   75   76 1    
   148   75   77 1    
   149   75  196 1    
   150   76  197 1    
   151   76  198 1    
   152   76  199 1    
   153   77   78 2    
   154   77   79 am   BACKBONE|DICT|INTERRES
   155   79   80 1    
   156   79  200 1    
   157   80   81 1    
   158   80   82 1    
   159   80  201 1    
   160   81  202 1    
   161   81  203 1    
   162   81  204 1    
   163   82   83 2    
   164   82   84 am   BACKBONE|DICT|INTERRES
   165   84   85 1    
   166   84  205 1    
   167   85   86 1    
   168   85   87 1    
   169   85  206 1    
   170   86  207 1    
   171   86  208 1    
   172   86  209 1    
   173   87   88 2    
   174   87   89 am   BACKBONE|DICT|INTERRES
   175   89   90 1    
   176   89  210 1    
   177   90   91 1    
   178   90   92 1    
   179   90  211 1    
   180   91  212 1    
   181   91  213 1    
   182   91  214 1    
   183   92   93 2    
   184   92   94 am   BACKBONE|DICT|INTERRES
   185   94   95 1    
   186   94  215 1    
   187   95   96 1    
   188   95   97 1    
   189   95  216 1    
   190   96  217 1    
   191   96  218 1    
   192   96  219 1    
   193   97   98 2    
   194   97   99 am   BACKBONE|DICT|INTERRES
   195   99  100 1    
   196   99  220 1    
   197  100  101 1    
   198  100  102 1    
   199  100  221 1    
   200  101  222 1    
   201  101  223 1    
   202  101  224 1    
   203  102  103 2    
   204  102  104 am   BACKBONE|DICT|INTERRES
   205  104  105 1    
   206  104  225 1    
   207  105  106 1    
   208  105  107 1    
   209  105  226 1    
   210  106  227 1    
   211  106  228 1    
   212  106  229 1    
   213  107  108 2    
   214  107  109 am   BACKBONE|DICT|INTERRES
   215  109  110 1    
   216  109  230 1    
   217  110  111 1    
   218  110  112 1    
   219  110  231 1    
   220  111  232 1    
   221  111  233 1    
   222  111  234 1    
   223  112  113 2    
   224  112  114 am   BACKBONE|DICT|INTERRES
   225  114  115 1    
   226  114  235 1    
   227  115  116 1    
   228  115  117 1    
   229  115  236 1    
   230  116  237 1    
   231  116  238 1    
   232  116  239 1    
   233  117  118 2    
   234  117  119 am   BACKBONE|DICT|INTERRES
   235  119  120 1    
   236  119  240 1    
   237  120  121 1    
   238  120  124 1    
   239  120  241 1    
   240  121  122 am   BACKBONE|DICT|INTERRES
   241  121  123 2    
   242  122  242 1    
   243  122  243 1    
   244  124  125 1    
   245  124  244 1    
   246  124  245 1    
   247  125  126 1    
   248  126  246 1    
   249  126  247 1    
@<TRIPOS>SUBSTRUCTURE
     1 UNK         1 GROUP             0       ****    0 ROOT    
