@<TRIPOS>MOLECULE
3R540
247   249    1
SMALL
USER_CHARGES


@<TRIPOS>ATOM
      1 CA         -5.4466  -14.9519  -44.3217 C.3       0 UNK        -0.1800 
      2 C          -4.3831  -16.0432  -44.2020 C.2       0 UNK         0.5000 
      3 O          -4.5516  -16.9542  -43.3946 O.2       0 UNK        -0.5000 
      4 N          -3.2926  -16.0125  -44.9822 N.am      1 UNK        -0.5000 
      5 CA         -2.8948  -14.9502  -45.9183 C.3       1 UNK         0.1400 
      6 C6         -1.7445  -15.4237  -46.8447 C.3       23 UNK        -0.0398 
      7 S7         -1.7877  -14.6300  -48.4893 S.3       23 UNK        -0.2404 
      8 C8         -2.4787  -15.9620  -49.5215 C.3       23 UNK        -0.0205 
      9 C9         -1.4125  -16.7974  -50.2246 C.ar      23 UNK        -0.0193 
     10 C10        -1.4409  -16.9282  -51.6165 C.ar      23 UNK        -0.1150 
     11 C11        -0.5071  -17.7307  -52.2792 C.ar      23 UNK        -0.0193 
     12 C12         0.4647  -18.4090  -51.5372 C.ar      23 UNK        -0.1150 
     13 C13         0.5167  -18.2764  -50.1481 C.ar      23 UNK        -0.0193 
     14 C14        -0.4244  -17.4716  -49.4992 C.ar      23 UNK        -0.1150 
     15 C15         1.5818  -19.0111  -49.3446 C.3       23 UNK        -0.0205 
     16 S16         1.1813  -20.7747  -49.1221 S.3       23 UNK        -0.2404 
     17 C17        -0.4799  -20.6537  -48.3868 C.3       23 UNK        -0.0398 
     18 CA         -0.8567  -21.8809  -47.5325 C.3       11 UNK         0.1400 
     19 N          -0.0907  -21.9578  -46.2845 N.am      11 UNK        -0.5000 
     20 C          -0.0835  -23.0238  -45.4718 C.2       10 UNK         0.5000 
     21 O          -0.7173  -24.0538  -45.6951 O.2       10 UNK        -0.5000 
     22 CA          0.7125  -22.9022  -44.1613 C.3       10 UNK         0.1400 
     23 CB          2.2164  -23.0635  -44.4213 C.3       10 UNK        -0.1800 
     24 N           0.4556  -21.6451  -43.4560 N.am      10 UNK        -0.5000 
     25 C          -0.7455  -21.2704  -42.9899 C.2       9 UNK         0.5000 
     26 O          -1.7678  -21.9428  -43.1191 O.2       9 UNK        -0.5000 
     27 CA         -0.8283  -19.9059  -42.2899 C.3       9 UNK         0.1400 
     28 CB         -0.3787  -20.0152  -40.8253 C.3       9 UNK        -0.1800 
     29 N          -0.0133  -18.9092  -42.9757 N.am      9 UNK        -0.5000 
     30 C          -0.3798  -18.2690  -44.0936 C.2       8 UNK         0.5000 
     31 O          -1.4767  -18.3891  -44.6402 O.2       8 UNK        -0.5000 
     32 CA          0.6758  -17.3447  -44.7190 C.3       8 UNK         0.1400 
     33 CB          0.6401  -15.9751  -44.0291 C.3       8 UNK        -0.1800 
     34 N           2.0304  -17.8896  -44.6415 N.am      8 UNK        -0.5000 
     35 C           2.4306  -19.0206  -45.2427 C.2       7 UNK         0.5000 
     36 O           1.6900  -19.7260  -45.9255 O.2       7 UNK        -0.5000 
     37 CA          3.8867  -19.4662  -45.0080 C.3       7 UNK         0.1400 
     38 CB          4.8017  -18.8787  -46.0923 C.3       7 UNK        -0.1800 
     39 N           4.4048  -19.0982  -43.6906 N.am      7 UNK        -0.5000 
     40 C           3.8665  -19.4457  -42.5123 C.2       6 UNK         0.5000 
     41 O           2.8940  -20.1941  -42.3981 O.2       6 UNK        -0.5000 
     42 CA          4.4813  -18.7921  -41.2574 C.3       6 UNK         0.1400 
     43 CB          5.5001  -19.7384  -40.6057 C.3       6 UNK        -0.1800 
     44 N           5.1219  -17.4933  -41.5127 N.am      6 UNK        -0.5000 
     45 C           4.4960  -16.4106  -41.9963 C.2       5 UNK         0.5000 
     46 O           3.3071  -16.4006  -42.3177 O.2       5 UNK        -0.5000 
     47 CA          5.3602  -15.1597  -42.2357 C.3       5 UNK         0.1400 
     48 CB          5.9688  -15.2037  -43.6464 C.3       5 UNK        -0.1800 
     49 N           4.5922  -13.9215  -42.0963 N.am      5 UNK        -0.5000 
     50 C           4.0940  -13.4528  -40.9441 C.2       4 UNK         0.5000 
     51 O           4.2619  -14.0060  -39.8559 O.2       4 UNK        -0.5000 
     52 CA          3.3043  -12.1296  -40.9991 C.3       4 UNK         0.1400 
     53 CB          4.1491  -10.9815  -40.4231 C.3       4 UNK        -0.1800 
     54 N           2.8707  -11.7567  -42.3495 N.am      4 UNK        -0.5000 
     55 C           1.7491  -12.1970  -42.9323 C.2       3 UNK         0.5000 
     56 O           0.9758  -13.0048  -42.4131 O.2       3 UNK        -0.5000 
     57 CA          1.4378  -11.6249  -44.3234 C.3       3 UNK         0.1400 
     58 CB          2.2259  -12.3497  -45.4296 C.3       3 UNK        -0.1800 
     59 N           0.0037  -11.7288  -44.5760 N.am      3 UNK        -0.5000 
     60 C          -0.7034  -10.9367  -45.3877 C.2       2 UNK         0.5000 
     61 O          -0.1953  -10.0554  -46.0839 O.2       2 UNK        -0.5000 
     62 CA         -2.2282  -11.1789  -45.4315 C.3       2 UNK         0.1400 
     63 CB         -2.9696  -10.1487  -46.3030 C.3       2 UNK        -0.1800 
     64 N          -2.5537  -12.5194  -45.9204 N.am      2 UNK        -0.5000 
     65 C          -2.5248  -13.6375  -45.1875 C.2       1 UNK         0.5000 
     66 O          -2.2115  -13.6531  -43.9951 O.2       1 UNK        -0.5000 
     67 C          -2.3791  -21.8898  -47.2971 C.2       11 UNK         0.5000 
     68 O          -3.1091  -22.3879  -48.1545 O.2       11 UNK        -0.5000 
     69 N          -2.8378  -21.3484  -46.1609 N.am      12 UNK        -0.5000 
     70 CA         -4.2419  -21.3887  -45.7575 C.3       12 UNK         0.1400 
     71 CB         -4.5002  -20.3448  -44.6613 C.3       12 UNK        -0.1800 
     72 C          -4.6555  -22.8005  -45.3054 C.2       12 UNK         0.5000 
     73 O          -5.7004  -23.2903  -45.7330 O.2       12 UNK        -0.5000 
     74 N          -3.8086  -23.4435  -44.4886 N.am      13 UNK        -0.5000 
     75 CA         -3.9950  -24.8054  -43.9839 C.3       13 UNK         0.1400 
     76 CB         -2.9432  -25.0950  -42.9021 C.3       13 UNK        -0.1800 
     77 C          -3.9448  -25.8737  -45.0921 C.2       13 UNK         0.5000 
     78 O          -4.7704  -26.7874  -45.0939 O.2       13 UNK        -0.5000 
     79 N          -2.9962  -25.7269  -46.0271 N.am      14 UNK        -0.5000 
     80 CA         -2.8323  -26.5956  -47.1960 C.3       14 UNK         0.1400 
     81 CB         -1.4101  -26.4151  -47.7513 C.3       14 UNK        -0.1800 
     82 C          -3.8679  -26.3316  -48.3072 C.2       14 UNK         0.5000 
     83 O          -3.9720  -27.1379  -49.2317 O.2       14 UNK        -0.5000 
     84 N          -4.5807  -25.1987  -48.2162 N.am      15 UNK        -0.5000 
     85 CA         -5.5479  -24.6593  -49.1783 C.3       15 UNK         0.1400 
     86 CB         -6.7403  -25.6161  -49.3811 C.3       15 UNK        -0.1800 
     87 C          -4.9133  -24.2082  -50.5113 C.2       15 UNK         0.5000 
     88 O          -5.6335  -23.9810  -51.4826 O.2       15 UNK        -0.5000 
     89 N          -3.5870  -24.0188  -50.5254 N.am      16 UNK        -0.5000 
     90 CA         -2.8143  -23.4692  -51.6405 C.3       16 UNK         0.1400 
     91 CB         -1.3177  -23.6029  -51.3235 C.3       16 UNK        -0.1800 
     92 C          -3.1749  -22.0019  -51.9366 C.2       16 UNK         0.5000 
     93 O          -3.1532  -21.5897  -53.0976 O.2       16 UNK        -0.5000 
     94 N          -3.5419  -21.2574  -50.8834 N.am      17 UNK        -0.5000 
     95 CA         -4.0680  -19.8966  -50.9695 C.3       17 UNK         0.1400 
     96 CB         -4.1534  -19.2970  -49.5573 C.3       17 UNK        -0.1800 
     97 C          -5.4449  -19.8494  -51.6577 C.2       17 UNK         0.5000 
     98 O          -5.6765  -18.9812  -52.4984 O.2       17 UNK        -0.5000 
     99 N          -6.3210  -20.8006  -51.3028 N.am      18 UNK        -0.5000 
    100 CA        -7.6705  -20.9422  -51.8537 C.3       18 UNK         0.1400 
    101 CB        -8.4992  -21.8611  -50.9428 C.3       18 UNK        -0.1800 
    102 C         -7.6609  -21.4677  -53.3000 C.2       18 UNK         0.5000 
    103 O         -8.4418  -20.9946  -54.1260 O.2       18 UNK        -0.5000 
    104 N         -6.7552  -22.4133  -53.5852 N.am      19 UNK        -0.5000 
    105 CA        -6.5082  -22.9722  -54.9160 C.3       19 UNK         0.1400 
    106 CB        -5.6676  -24.2498  -54.7665 C.3       19 UNK        -0.1800 
    107 C         -5.8108  -21.9889  -55.8775 C.2       19 UNK         0.5000 
    108 O         -5.8229  -22.2269  -57.0858 O.2       19 UNK        -0.5000 
    109 N         -5.2141  -20.9214  -55.3254 N.am      20 UNK        -0.5000 
    110 CA        -4.4304  -19.8844  -55.9981 C.3       20 UNK         0.1400 
    111 CB        -5.3075  -19.0573  -56.9606 C.3       20 UNK        -0.1800 
    112 C         -3.1700  -20.4687  -56.6639 C.2       20 UNK         0.5000 
    113 O         -2.9195  -20.2379  -57.8492 O.2       20 UNK        -0.5000 
    114 N         -2.3857  -21.2113  -55.8679 N.am      21 UNK        -0.5000 
    115 CA        -1.1536  -21.9052  -56.2682 C.3       21 UNK         0.1400 
    116 CB        -0.6242  -22.6950  -55.0623 C.3       21 UNK        -0.1800 
    117 C         -0.0470  -20.9901  -56.8373 C.2       21 UNK         0.5000 
    118 O          0.8537  -21.4761  -57.5223 O.2       21 UNK        -0.5000 
    119 N         -0.1504  -19.6862  -56.5590 N.am      22 UNK        -0.5000 
    120 CA         0.6603  -18.6086  -57.1409 C.3       22 UNK         0.1400 
    121 C          0.3995  -18.3644  -58.6584 C.2       22 UNK         0.5000 
    122 N         -0.6962  -18.8432  -59.2385 N.am      22 UNK        -0.7600 
    123 O          1.2119  -17.7271  -59.3230 O.2       22 UNK        -0.5000 
    124 C124        0.4781  -17.2858  -56.3526 C.3       23 UNK        -0.0398 
    125 S125        0.9856  -17.3965  -54.6020 S.3       23 UNK        -0.2404 
    126 C126       -0.5725  -17.8878  -53.7910 C.3       23 UNK        -0.0205 
    127 H127       -5.1069  -14.0289  -43.8524 H         1 UNK         0.0600 
    128 H128       -5.7018  -14.7487  -45.3611 H         1 UNK         0.0600 
    129 H129       -6.3627  -15.2609  -43.8179 H         1 UNK         0.0600 
    130 H130       -2.6284  -16.7719  -44.8735 H         1 UNK         0.3000 
    131 H131       -3.7653  -14.7469  -46.5442 H         1 UNK         0.0600 
    132 H132       -0.7652  -15.2308  -46.4068 H         1 UNK         0.0800 
    133 H133       -1.8005  -16.5042  -46.9758 H         1 UNK         0.0800 
    134 H134       -3.1404  -15.5014  -50.2566 H         1 UNK         0.0800 
    135 H135       -3.1122  -16.6097  -48.9163 H         1 UNK         0.0800 
    136 H136       -2.2031  -16.4152  -52.1860 H         1 UNK         0.1150 
    137 H137        1.1826  -19.0402  -52.0420 H         1 UNK         0.1150 
    138 H138       -0.3848  -17.3807  -48.4253 H         1 UNK         0.1150 
    139 H139        1.7115  -18.5453  -48.3669 H         1 UNK         0.0800 
    140 H140        2.5444  -18.9273  -49.8507 H         1 UNK         0.0800 
    141 H141       -1.1731  -20.5260  -49.2204 H         1 UNK         0.0800 
    142 H142       -0.5486  -19.7484  -47.7813 H         1 UNK         0.0800 
    143 H143       -0.6279  -22.7800  -48.1078 H         1 UNK         0.0600 
    144 H144        0.4898  -21.1524  -46.0584 H         1 UNK         0.3000 
    145 H145        0.3959  -23.7133  -43.5024 H         1 UNK         0.0600 
    146 H146        2.7974  -22.9274  -43.5089 H         1 UNK         0.0600 
    147 H147        2.4365  -24.0609  -44.8036 H         1 UNK         0.0600 
    148 H148        2.5730  -22.3491  -45.1615 H         1 UNK         0.0600 
    149 H149        1.2567  -21.0503  -43.2739 H         1 UNK         0.3000 
    150 H150       -1.8712  -19.5811  -42.3029 H         1 UNK         0.0600 
    151 H151        0.6617  -20.3317  -40.7424 H         1 UNK         0.0600 
    152 H152       -0.9869  -20.7419  -40.2852 H         1 UNK         0.0600 
    153 H153       -0.4802  -19.0598  -40.3104 H         1 UNK         0.0600 
    154 H154        0.9245  -18.7701  -42.6261 H         1 UNK         0.3000 
    155 H155        0.4323  -17.2174  -45.7750 H         1 UNK         0.0600 
    156 H156        0.8331  -16.0550  -42.9593 H         1 UNK         0.0600 
    157 H157       -0.3359  -15.5056  -44.1323 H         1 UNK         0.0600 
    158 H158        1.3818  -15.2990  -44.4495 H         1 UNK         0.0600 
    159 H159        2.6766  -17.3943  -44.0368 H         1 UNK         0.3000 
    160 H160        3.9247  -20.5526  -45.0841 H         1 UNK         0.0600 
    161 H161        4.8355  -17.7894  -46.0443 H         1 UNK         0.0600 
    162 H162        4.4513  -19.1532  -47.0886 H         1 UNK         0.0600 
    163 H163        5.8213  -19.2518  -45.9940 H         1 UNK         0.0600 
    164 H164        5.2023  -18.4805  -43.6779 H         1 UNK         0.3000 
    165 H165        3.6667  -18.6254  -40.5495 H         1 UNK         0.0600 
    166 H166        5.8730  -19.3309  -39.6659 H         1 UNK         0.0600 
    167 H167        6.3556  -19.9197  -41.2576 H         1 UNK         0.0600 
    168 H168        5.0474  -20.7054  -40.3815 H         1 UNK         0.0600 
    169 H169        6.1049  -17.4297  -41.2894 H         1 UNK         0.3000 
    170 H170        6.1693  -15.1455  -41.5024 H         1 UNK         0.0600 
    171 H171        6.5816  -16.0956  -43.7831 H         1 UNK         0.0600 
    172 H172        5.1971  -15.2145  -44.4177 H         1 UNK         0.0600 
    173 H173        6.6108  -14.3412  -43.8264 H         1 UNK         0.0600 
    174 H174        4.3779  -13.4220  -42.9454 H         1 UNK         0.3000 
    175 H175        2.4249  -12.2507  -40.3627 H         1 UNK         0.0600 
    176 H176        5.0491  -10.8074  -41.0142 H         1 UNK         0.0600 
    177 H177        3.5816  -10.0512  -40.3920 H         1 UNK         0.0600 
    178 H178        4.4647  -11.2008  -39.4021 H         1 UNK         0.0600 
    179 H179        3.4523  -11.0913  -42.8388 H         1 UNK         0.3000 
    180 H180        1.7209  -10.5701  -44.3160 H         1 UNK         0.0600 
    181 H181        1.9120  -13.3867  -45.5369 H         1 UNK         0.0600 
    182 H182        3.2964  -12.3470  -45.2217 H         1 UNK         0.0600 
    183 H183        2.0844  -11.8623  -46.3944 H         1 UNK         0.0600 
    184 H184       -0.4797  -12.4271  -44.0170 H         1 UNK         0.3000 
    185 H185       -2.6006  -11.0715  -44.4104 H         1 UNK         0.0600 
    186 H186       -4.0478  -10.3056  -46.2669 H         1 UNK         0.0600 
    187 H187       -2.7800   -9.1324  -45.9549 H         1 UNK         0.0600 
    188 H188       -2.6578  -10.2033  -47.3468 H         1 UNK         0.0600 
    189 H189       -2.7626  -12.5900  -46.9067 H         1 UNK         0.3000 
    190 H190       -2.1820  -20.9575  -45.4993 H         1 UNK         0.3000 
    191 H191       -4.8564  -21.1213  -46.6199 H         1 UNK         0.0600 
    192 H192       -5.5533  -20.3289  -44.3787 H         1 UNK         0.0600 
    193 H193       -4.2409  -19.3431  -45.0050 H         1 UNK         0.0600 
    194 H194       -3.9228  -20.5450  -43.7593 H         1 UNK         0.0600 
    195 H195       -2.9860  -22.9484  -44.1527 H         1 UNK         0.3000 
    196 H196       -4.9819  -24.8559  -43.5194 H         1 UNK         0.0600 
    197 H197       -1.9293  -25.0230  -43.2972 H         1 UNK         0.0600 
    198 H198       -3.0279  -24.3923  -42.0730 H         1 UNK         0.0600 
    199 H199       -3.0675  -26.0984  -42.4931 H         1 UNK         0.0600 
    200 H200       -2.3057  -24.9870  -45.9144 H         1 UNK         0.3000 
    201 H201       -2.9468  -27.6340  -46.8783 H         1 UNK         0.0600 
    202 H202       -1.2409  -25.3952  -48.0989 H         1 UNK         0.0600 
    203 H203       -1.2287  -27.0835  -48.5939 H         1 UNK         0.0600 
    204 H204       -0.6594  -26.6388  -46.9930 H         1 UNK         0.0600 
    205 H205       -4.4069  -24.6089  -47.4134 H         1 UNK         0.3000 
    206 H206       -5.9375  -23.7501  -48.7182 H         1 UNK         0.0600 
    207 H207       -7.1703  -25.9172  -48.4258 H         1 UNK         0.0600 
    208 H208       -7.5336  -25.1368  -49.9555 H         1 UNK         0.0600 
    209 H209       -6.4518  -26.5183  -49.9206 H         1 UNK         0.0600 
    210 H210       -3.0954  -24.1458  -49.6524 H         1 UNK         0.3000 
    211 H211       -3.0353  -24.0584  -52.5322 H         1 UNK         0.0600 
    212 H212       -0.7068  -23.2464  -52.1524 H         1 UNK         0.0600 
    213 H213       -1.0433  -24.6422  -51.1420 H         1 UNK         0.0600 
    214 H214       -1.0393  -23.0232  -50.4439 H         1 UNK         0.0600 
    215 H215       -3.5140  -21.6840  -49.9626 H         1 UNK         0.3000 
    216 H216       -3.3741  -19.2949  -51.5604 H         1 UNK         0.0600 
    217 H217       -4.7480  -19.9201  -48.8884 H         1 UNK         0.0600 
    218 H218       -4.6177  -18.3107  -49.5811 H         1 UNK         0.0600 
    219 H219       -3.1646  -19.1813  -49.1151 H         1 UNK         0.0600 
    220 H220       -6.0312  -21.4969  -50.6338 H         1 UNK         0.3000 
    221 H221       -8.1421  -19.9571  -51.8599 H         1 UNK         0.0600 
    222 H222       -8.5542  -21.4662  -49.9282 H         1 UNK         0.0600 
    223 H223       -8.0786  -22.8654  -50.8901 H         1 UNK         0.0600 
    224 H224       -9.5217  -21.9539  -51.3109 H         1 UNK         0.0600 
    225 H225       -6.2119  -22.8123  -52.8233 H         1 UNK         0.3000 
    226 H226       -7.4693  -23.2418  -55.3585 H         1 UNK         0.0600 
    227 H227       -4.6896  -24.0355  -54.3348 H         1 UNK         0.0600 
    228 H228       -6.1651  -24.9780  -54.1255 H         1 UNK         0.0600 
    229 H229       -5.5026  -24.7269  -55.7333 H         1 UNK         0.0600 
    230 H230       -5.2406  -20.8537  -54.3172 H         1 UNK         0.3000 
    231 H231       -4.0807  -19.2108  -55.2140 H         1 UNK         0.0600 
    232 H232       -5.6625  -19.6507  -57.8035 H         1 UNK         0.0600 
    233 H233       -4.7480  -18.2149  -57.3687 H         1 UNK         0.0600 
    234 H234       -6.1783  -18.6505  -56.4464 H         1 UNK         0.0600 
    235 H235       -2.6784  -21.3478  -54.9022 H         1 UNK         0.3000 
    236 H236       -1.4198  -22.6144  -57.0542 H         1 UNK         0.0600 
    237 H237       -1.3658  -23.4075  -54.7007 H         1 UNK         0.0600 
    238 H238        0.2701  -23.2620  -55.3241 H         1 UNK         0.0600 
    239 H239       -0.3637  -22.0307  -54.2374 H         1 UNK         0.0600 
    240 H240       -0.9327  -19.3950  -55.9960 H         1 UNK         0.3000 
    241 H241        1.7065  -18.9084  -57.0559 H         1 UNK         0.0600 
    242 H242       -0.8454  -18.6776  -60.2212 H         1 UNK         0.3800 
    243 H243       -1.3911  -19.3630  -58.7106 H         1 UNK         0.3800 
    244 H244       -0.5547  -16.9386  -56.4136 H         1 UNK         0.0800 
    245 H245        1.0826  -16.4960  -56.8025 H         1 UNK         0.0800 
    246 H246       -1.3940  -17.2968  -54.1986 H         1 UNK         0.0800 
    247 H247       -0.7931  -18.9314  -54.0153 H         1 UNK         0.0800 
@<TRIPOS>BOND
     1    1    2 1    
     2    1  127 1    
     3    1  128 1    
     4    1  129 1    
     5    2    3 2    
     6    2    4 am   BACKBONE|DICT|INTERRES
     7    4    5 1    
     8    4  130 1    
     9    5    6 1    
    10    5   65 1    
    11    5  131 1    
    12    6    7 1    
    13    6  132 1    
    14    6  133 1    
    15    7    8 1    
    16    8    9 1    
    17    8  134 1    
    18    8  135 1    
    19    9   10 ar   
    20    9   14 ar   
    21   10   11 ar   
    22   10  136 1    
    23   11   12 ar   
    24   11  126 1    
    25   12   13 ar   
    26   12  137 1    
    27   13   14 ar   
    28   13   15 1    
    29   14  138 1    
    30   15   16 1    
    31   15  139 1    
    32   15  140 1    
    33   16   17 1    
    34   17   18 1    
    35   17  141 1    
    36   17  142 1    
    37   18   19 1    
    38   18   67 1    
    39   18  143 1    
    40   19   20 am   BACKBONE|DICT|INTERRES
    41   19  144 1    
    42   20   21 2    
    43   20   22 1    
    44   22   23 1    
    45   22   24 1    
    46   22  145 1    
    47   23  146 1    
    48   23  147 1    
    49   23  148 1    
    50   24   25 am   BACKBONE|DICT|INTERRES
    51   24  149 1    
    52   25   26 2    
    53   25   27 1    
    54   27   28 1    
    55   27   29 1    
    56   27  150 1    
    57   28  151 1    
    58   28  152 1    
    59   28  153 1    
    60   29   30 am   BACKBONE|DICT|INTERRES
    61   29  154 1    
    62   30   31 2    
    63   30   32 1    
    64   32   33 1    
    65   32   34 1    
    66   32  155 1    
    67   33  156 1    
    68   33  157 1    
    69   33  158 1    
    70   34   35 am   BACKBONE|DICT|INTERRES
    71   34  159 1    
    72   35   36 2    
    73   35   37 1    
    74   37   38 1    
    75   37   39 1    
    76   37  160 1    
    77   38  161 1    
    78   38  162 1    
    79   38  163 1    
    80   39   40 am   BACKBONE|DICT|INTERRES
    81   39  164 1    
    82   40   41 2    
    83   40   42 1    
    84   42   43 1    
    85   42   44 1    
    86   42  165 1    
    87   43  166 1    
    88   43  167 1    
    89   43  168 1    
    90   44   45 am   BACKBONE|DICT|INTERRES
    91   44  169 1    
    92   45   46 2    
    93   45   47 1    
    94   47   48 1    
    95   47   49 1    
    96   47  170 1    
    97   48  171 1    
    98   48  172 1    
    99   48  173 1    
   100   49   50 am   BACKBONE|DICT|INTERRES
   101   49  174 1    
   102   50   51 2    
   103   50   52 1    
   104   52   53 1    
   105   52   54 1    
   106   52  175 1    
   107   53  176 1    
   108   53  177 1    
   109   53  178 1    
   110   54   55 am   BACKBONE|DICT|INTERRES
   111   54  179 1    
   112   55   56 2    
   113   55   57 1    
   114   57   58 1    
   115   57   59 1    
   116   57  180 1    
   117   58  181 1    
   118   58  182 1    
   119   58  183 1    
   120   59   60 am   BACKBONE|DICT|INTERRES
   121   59  184 1    
   122   60   61 2    
   123   60   62 1    
   124   62   63 1    
   125   62   64 1    
   126   62  185 1    
   127   63  186 1    
   128   63  187 1    
   129   63  188 1    
   130   64   65 am   BACKBONE|DICT|INTERRES
   131   64  189 1    
   132   65   66 2    
   133   67   68 2    
   134   67   69 am   BACKBONE|DICT|INTERRES
   135   69   70 1    
   136   69  190 1    
   137   70   71 1    
   138   70   72 1    
   139   70  191 1    
   140   71  192 1    
   141   71  193 1    
   142   71  194 1    
   143   72   73 2    
   144   72   74 am   BACKBONE|DICT|INTERRES
   145   74   75 1    
   146   74  195 1    
   147   75   76 1    
   148   75   77 1    
   149   75  196 1    
   150   76  197 1    
   151   76  198 1    
   152   76  199 1    
   153   77   78 2    
   154   77   79 am   BACKBONE|DICT|INTERRES
   155   79   80 1    
   156   79  200 1    
   157   80   81 1    
   158   80   82 1    
   159   80  201 1    
   160   81  202 1    
   161   81  203 1    
   162   81  204 1    
   163   82   83 2    
   164   82   84 am   BACKBONE|DICT|INTERRES
   165   84   85 1    
   166   84  205 1    
   167   85   86 1    
   168   85   87 1    
   169   85  206 1    
   170   86  207 1    
   171   86  208 1    
   172   86  209 1    
   173   87   88 2    
   174   87   89 am   BACKBONE|DICT|INTERRES
   175   89   90 1    
   176   89  210 1    
   177   90   91 1    
   178   90   92 1    
   179   90  211 1    
   180   91  212 1    
   181   91  213 1    
   182   91  214 1    
   183   92   93 2    
   184   92   94 am   BACKBONE|DICT|INTERRES
   185   94   95 1    
   186   94  215 1    
   187   95   96 1    
   188   95   97 1    
   189   95  216 1    
   190   96  217 1    
   191   96  218 1    
   192   96  219 1    
   193   97   98 2    
   194   97   99 am   BACKBONE|DICT|INTERRES
   195   99  100 1    
   196   99  220 1    
   197  100  101 1    
   198  100  102 1    
   199  100  221 1    
   200  101  222 1    
   201  101  223 1    
   202  101  224 1    
   203  102  103 2    
   204  102  104 am   BACKBONE|DICT|INTERRES
   205  104  105 1    
   206  104  225 1    
   207  105  106 1    
   208  105  107 1    
   209  105  226 1    
   210  106  227 1    
   211  106  228 1    
   212  106  229 1    
   213  107  108 2    
   214  107  109 am   BACKBONE|DICT|INTERRES
   215  109  110 1    
   216  109  230 1    
   217  110  111 1    
   218  110  112 1    
   219  110  231 1    
   220  111  232 1    
   221  111  233 1    
   222  111  234 1    
   223  112  113 2    
   224  112  114 am   BACKBONE|DICT|INTERRES
   225  114  115 1    
   226  114  235 1    
   227  115  116 1    
   228  115  117 1    
   229  115  236 1    
   230  116  237 1    
   231  116  238 1    
   232  116  239 1    
   233  117  118 2    
   234  117  119 am   BACKBONE|DICT|INTERRES
   235  119  120 1    
   236  119  240 1    
   237  120  121 1    
   238  120  124 1    
   239  120  241 1    
   240  121  122 am   BACKBONE|DICT|INTERRES
   241  121  123 2    
   242  122  242 1    
   243  122  243 1    
   244  124  125 1    
   245  124  244 1    
   246  124  245 1    
   247  125  126 1    
   248  126  246 1    
   249  126  247 1    
@<TRIPOS>SUBSTRUCTURE
     1 UNK         1 GROUP             0       ****    0 ROOT    
