@<TRIPOS>MOLECULE
3R540
247   249    1
SMALL
USER_CHARGES


@<TRIPOS>ATOM
      1 CA          0.7895  -18.0450  -43.4219 C.3       0 UNK        -0.1800 
      2 C          -0.1857  -16.9203  -43.1309 C.2       0 UNK         0.5000 
      3 O          -0.0293  -16.2024  -42.1424 O.2       0 UNK        -0.5000 
      4 N          -1.1954  -16.7700  -43.9934 N.am      1 UNK        -0.5000 
      5 CA         -2.1755  -15.6806  -43.9460 C.3       1 UNK         0.1400 
      6 C6         -3.4288  -15.9837  -44.8044 C.3       23 UNK        -0.0398 
      7 S7         -4.1754  -17.6058  -44.4130 S.3       23 UNK        -0.2404 
      8 C8         -4.7854  -18.1589  -46.0391 C.3       23 UNK        -0.0205 
      9 C9         -3.6993  -18.2048  -47.1060 C.ar      23 UNK        -0.0193 
     10 C10        -3.7923  -17.3853  -48.2355 C.ar      23 UNK        -0.1150 
     11 C11        -2.8231  -17.4493  -49.2396 C.ar      23 UNK        -0.0193 
     12 C12        -1.7457  -18.3265  -49.1000 C.ar      23 UNK        -0.1150 
     13 C13        -1.6388  -19.1512  -47.9778 C.ar      23 UNK        -0.0193 
     14 C14        -2.6207  -19.0855  -46.9836 C.ar      23 UNK        -0.1150 
     15 C15        -0.5233  -20.1827  -47.9090 C.3       23 UNK        -0.0205 
     16 S16         0.3236  -20.2458  -46.2965 S.3       23 UNK        -0.2404 
     17 C17         0.9887  -21.9520  -46.3700 C.3       23 UNK        -0.0398 
     18 CA          0.1768  -23.0549  -45.6273 C.3       11 UNK         0.1400 
     19 N           0.6312  -23.2601  -44.2458 N.am      11 UNK        -0.5000 
     20 C           0.2751  -24.3061  -43.4789 C.2       10 UNK         0.5000 
     21 O          -0.4943  -25.1893  -43.8603 O.2       10 UNK        -0.5000 
     22 CA          0.8383  -24.3869  -42.0452 C.3       10 UNK         0.1400 
     23 CB          1.9946  -25.3962  -41.9832 C.3       10 UNK        -0.1800 
     24 N           1.3016  -23.1083  -41.5090 N.am      10 UNK        -0.5000 
     25 C           0.5325  -22.0363  -41.2774 C.2       9 UNK         0.5000 
     26 O          -0.6873  -22.0206  -41.4453 O.2       9 UNK        -0.5000 
     27 CA          1.2565  -20.7533  -40.8217 C.3       9 UNK         0.1400 
     28 CB          1.2110  -20.6317  -39.2912 C.3       9 UNK        -0.1800 
     29 N           2.6529  -20.6324  -41.2683 N.am      9 UNK        -0.5000 
     30 C           3.0822  -20.6914  -42.5373 C.2       8 UNK         0.5000 
     31 O           2.3565  -20.9655  -43.4950 O.2       8 UNK        -0.5000 
     32 CA          4.5861  -20.4619  -42.7671 C.3       8 UNK         0.1400 
     33 CB          5.3409  -21.7989  -42.7069 C.3       8 UNK        -0.1800 
     34 N           4.8312  -19.8376  -44.0673 N.am      8 UNK        -0.5000 
     35 C           4.5753  -18.5549  -44.3518 C.2       7 UNK         0.5000 
     36 O           4.1907  -17.7316  -43.5178 O.2       7 UNK        -0.5000 
     37 CA          4.7627  -18.1400  -45.8242 C.3       7 UNK         0.1400 
     38 CB          3.5339  -18.5281  -46.6603 C.3       7 UNK        -0.1800 
     39 N           4.9956  -16.7037  -45.9728 N.am      7 UNK        -0.5000 
     40 C           6.1324  -16.0760  -45.6455 C.2       6 UNK         0.5000 
     41 O           7.1310  -16.6552  -45.2144 O.2       6 UNK        -0.5000 
     42 CA          6.1801  -14.5507  -45.8577 C.3       6 UNK         0.1400 
     43 CB          6.9606  -14.2136  -47.1380 C.3       6 UNK        -0.1800 
     44 N           4.8549  -13.9352  -45.9457 N.am      6 UNK        -0.5000 
     45 C           4.0936  -13.5867  -44.9033 C.2       5 UNK         0.5000 
     46 O           4.4206  -13.7747  -43.7313 O.2       5 UNK        -0.5000 
     47 CA          2.7484  -12.8968  -45.2105 C.3       5 UNK         0.1400 
     48 CB          2.9550  -11.4107  -45.5571 C.3       5 UNK        -0.1800 
     49 N           1.9137  -13.5621  -46.2187 N.am      5 UNK        -0.5000 
     50 C           2.1376  -13.7666  -47.5255 C.2       4 UNK         0.5000 
     51 O           3.1685  -13.4371  -48.1130 O.2       4 UNK        -0.5000 
     52 CA          1.0082  -14.4551  -48.3068 C.3       4 UNK         0.1400 
     53 CB          0.9654  -15.9572  -47.9850 C.3       4 UNK        -0.1800 
     54 N          -0.2845  -13.8514  -47.9852 N.am      4 UNK        -0.5000 
     55 C          -0.8977  -12.9183  -48.7266 C.2       3 UNK         0.5000 
     56 O          -0.4679  -12.5108  -49.8064 O.2       3 UNK        -0.5000 
     57 CA         -2.2169  -12.3344  -48.1773 C.3       3 UNK         0.1400 
     58 CB         -3.4190  -13.1120  -48.7348 C.3       3 UNK        -0.1800 
     59 N          -2.2922  -12.3400  -46.7162 N.am      3 UNK        -0.5000 
     60 C          -1.5410  -11.5860  -45.9016 C.2       2 UNK         0.5000 
     61 O          -0.7675  -10.7148  -46.2989 O.2       2 UNK        -0.5000 
     62 CA         -1.6499  -11.8710  -44.3871 C.3       2 UNK         0.1400 
     63 CB         -2.5642  -10.8374  -43.7121 C.3       2 UNK        -0.1800 
     64 N          -2.1221  -13.2209  -44.0443 N.am      2 UNK        -0.5000 
     65 C          -1.5208  -14.3622  -44.4077 C.2       1 UNK         0.5000 
     66 O          -0.5212  -14.3958  -45.1304 O.2       1 UNK        -0.5000 
     67 C          -1.3574  -22.8868  -45.7355 C.2       11 UNK         0.5000 
     68 O          -1.9333  -23.2607  -46.7558 O.2       11 UNK        -0.5000 
     69 N          -1.9918  -22.3759  -44.6687 N.am      12 UNK        -0.5000 
     70 CA         -3.4388  -22.1913  -44.5481 C.3       12 UNK         0.1400 
     71 CB         -3.7305  -21.4108  -43.2584 C.3       12 UNK        -0.1800 
     72 C          -4.2425  -23.5075  -44.5852 C.2       12 UNK         0.5000 
     73 O          -5.4261  -23.4796  -44.9230 O.2       12 UNK        -0.5000 
     74 N          -3.5919  -24.6294  -44.2482 N.am      13 UNK        -0.5000 
     75 CA         -4.1604  -25.9758  -44.3022 C.3       13 UNK         0.1400 
     76 CB         -3.6391  -26.7679  -43.0915 C.3       13 UNK        -0.1800 
     77 C          -3.8215  -26.7093  -45.6167 C.2       13 UNK         0.5000 
     78 O          -4.3124  -27.8210  -45.8211 O.2       13 UNK        -0.5000 
     79 N          -2.9839  -26.1071  -46.4707 N.am      14 UNK        -0.5000 
     80 CA         -2.5143  -26.6759  -47.7310 C.3       14 UNK         0.1400 
     81 CB         -1.0022  -26.4098  -47.8445 C.3       14 UNK        -0.1800 
     82 C          -3.2594  -26.0583  -48.9264 C.2       14 UNK         0.5000 
     83 O          -3.9686  -25.0592  -48.7828 O.2       14 UNK        -0.5000 
     84 N          -3.0331  -26.6386  -50.1134 N.am      15 UNK        -0.5000 
     85 CA         -3.5507  -26.1620  -51.4024 C.3       15 UNK         0.1400 
     86 CB         -3.2320  -27.2045  -52.4847 C.3       15 UNK        -0.1800 
     87 C          -3.0170  -24.7742  -51.8165 C.2       15 UNK         0.5000 
     88 O          -3.6266  -24.1165  -52.6583 O.2       15 UNK        -0.5000 
     89 N          -1.9169  -24.3331  -51.1898 N.am      16 UNK        -0.5000 
     90 CA         -1.3223  -23.0021  -51.3241 C.3       16 UNK         0.1400 
     91 CB         -0.0374  -22.9556  -50.4817 C.3       16 UNK        -0.1800 
     92 C          -2.2631  -21.8440  -50.9289 C.2       16 UNK         0.5000 
     93 O          -2.0420  -20.7216  -51.3777 O.2       16 UNK        -0.5000 
     94 N          -3.2846  -22.1343  -50.1111 N.am      17 UNK        -0.5000 
     95 CA         -4.3080  -21.1845  -49.6781 C.3       17 UNK         0.1400 
     96 CB         -4.8729  -21.6665  -48.3343 C.3       17 UNK        -0.1800 
     97 C          -5.4420  -20.9728  -50.7021 C.2       17 UNK         0.5000 
     98 O          -6.3034  -20.1241  -50.4647 O.2       17 UNK        -0.5000 
     99 N          -5.4644  -21.7456  -51.7992 N.am      18 UNK        -0.5000 
    100 CA        -6.4318  -21.5891  -52.8867 C.3       18 UNK         0.1400 
    101 CB        -6.3627  -22.8151  -53.8095 C.3       18 UNK        -0.1800 
    102 C         -6.1631  -20.3072  -53.6936 C.2       18 UNK         0.5000 
    103 O         -5.0029  -19.9459  -53.8958 O.2       18 UNK        -0.5000 
    104 N         -7.2301  -19.6731  -54.1981 N.am      19 UNK        -0.5000 
    105 CA        -7.1757  -18.4224  -54.9665 C.3       19 UNK         0.1400 
    106 CB        -8.6036  -17.9864  -55.3266 C.3       19 UNK        -0.1800 
    107 C         -6.2985  -18.4965  -56.2326 C.2       19 UNK         0.5000 
    108 O         -5.6486  -17.5108  -56.5821 O.2       19 UNK        -0.5000 
    109 N         -6.2564  -19.6785  -56.8625 N.am      20 UNK        -0.5000 
    110 CA        -5.4019  -19.9872  -58.0098 C.3       20 UNK         0.1400 
    111 CB        -5.8377  -21.3351  -58.6047 C.3       20 UNK        -0.1800 
    112 C         -3.8969  -20.0097  -57.6712 C.2       20 UNK         0.5000 
    113 O         -3.0808  -19.7588  -58.5589 O.2       20 UNK        -0.5000 
    114 N         -3.5549  -20.3042  -56.4092 N.am      21 UNK        -0.5000 
    115 CA        -2.1878  -20.2686  -55.8946 C.3       21 UNK         0.1400 
    116 CB        -2.0193  -21.3391  -54.8053 C.3       21 UNK        -0.1800 
    117 C         -1.8310  -18.8688  -55.3645 C.2       21 UNK         0.5000 
    118 O         -0.7100  -18.4110  -55.5917 O.2       21 UNK        -0.5000 
    119 N         -2.7839  -18.2079  -54.6912 N.am      22 UNK        -0.5000 
    120 CA        -2.6437  -16.8295  -54.1896 C.3       22 UNK         0.1400 
    121 C         -2.5330  -15.7625  -55.3149 C.2       22 UNK         0.5000 
    122 N         -3.2700  -15.8890  -56.4118 N.am      22 UNK        -0.7600 
    123 O         -1.7692  -14.8092  -55.1906 O.2       22 UNK        -0.5000 
    124 C124       -3.7691  -16.4335  -53.2006 C.3       23 UNK        -0.0398 
    125 S125       -3.8861  -17.5474  -51.7641 S.3       23 UNK        -0.2404 
    126 C126       -2.9652  -16.6179  -50.5028 C.3       23 UNK        -0.0205 
    127 H127        1.2788  -17.8847  -44.3816 H         1 UNK         0.0600 
    128 H128        0.2734  -19.0046  -43.4527 H         1 UNK         0.0600 
    129 H129        1.5615  -18.0910  -42.6545 H         1 UNK         0.0600 
    130 H130       -1.2672  -17.3870  -44.7895 H         1 UNK         0.3000 
    131 H131       -2.4937  -15.5556  -42.9088 H         1 UNK         0.0600 
    132 H132       -4.1935  -15.2213  -44.6478 H         1 UNK         0.0800 
    133 H133       -3.1734  -15.9400  -45.8633 H         1 UNK         0.0800 
    134 H134       -5.2159  -19.1553  -45.9311 H         1 UNK         0.0800 
    135 H135       -5.6029  -17.5051  -46.3469 H         1 UNK         0.0800 
    136 H136       -4.6339  -16.7167  -48.3498 H         1 UNK         0.1150 
    137 H137       -1.0155  -18.4003  -49.8936 H         1 UNK         0.1150 
    138 H138       -2.5554  -19.7335  -46.1222 H         1 UNK         0.1150 
    139 H139       -0.9705  -21.1510  -48.1316 H         1 UNK         0.0800 
    140 H140        0.2228  -20.0011  -48.6840 H         1 UNK         0.0800 
    141 H141        2.0150  -21.9291  -46.0017 H         1 UNK         0.0800 
    142 H142        1.0840  -22.2320  -47.4199 H         1 UNK         0.0800 
    143 H143        0.4025  -23.9920  -46.1411 H         1 UNK         0.0600 
    144 H144        1.2441  -22.5434  -43.8657 H         1 UNK         0.3000 
    145 H145        0.0332  -24.7466  -41.4011 H         1 UNK         0.0600 
    146 H146        2.3466  -25.5317  -40.9604 H         1 UNK         0.0600 
    147 H147        1.6802  -26.3748  -42.3489 H         1 UNK         0.0600 
    148 H148        2.8413  -25.0748  -42.5913 H         1 UNK         0.0600 
    149 H149        2.2943  -23.0184  -41.3523 H         1 UNK         0.3000 
    150 H150        0.7034  -19.9120  -41.2400 H         1 UNK         0.0600 
    151 H151        1.7816  -21.4256  -38.8077 H         1 UNK         0.0600 
    152 H152        0.1857  -20.6935  -38.9236 H         1 UNK         0.0600 
    153 H153        1.6152  -19.6754  -38.9585 H         1 UNK         0.0600 
    154 H154        3.3267  -20.4300  -40.5438 H         1 UNK         0.3000 
    155 H155        4.9704  -19.8048  -41.9841 H         1 UNK         0.0600 
    156 H156        4.9890  -22.4954  -43.4695 H         1 UNK         0.0600 
    157 H157        5.2088  -22.2805  -41.7372 H         1 UNK         0.0600 
    158 H158        6.4116  -21.6544  -42.8527 H         1 UNK         0.0600 
    159 H159        5.1001  -20.4600  -44.8148 H         1 UNK         0.3000 
    160 H160        5.6308  -18.6704  -46.2217 H         1 UNK         0.0600 
    161 H161        2.6367  -18.0091  -46.3231 H         1 UNK         0.0600 
    162 H162        3.3365  -19.5985  -46.5935 H         1 UNK         0.0600 
    163 H163        3.6817  -18.2929  -47.7143 H         1 UNK         0.0600 
    164 H164        4.2146  -16.1431  -46.2760 H         1 UNK         0.3000 
    165 H165        6.7158  -14.1180  -45.0101 H         1 UNK         0.0600 
    166 H166        7.9672  -14.6326  -47.1059 H         1 UNK         0.0600 
    167 H167        6.4665  -14.6107  -48.0258 H         1 UNK         0.0600 
    168 H168        7.0623  -13.1356  -47.2649 H         1 UNK         0.0600 
    169 H169        4.4888  -13.7428  -46.8758 H         1 UNK         0.3000 
    170 H170        2.1651  -12.9349  -44.2889 H         1 UNK         0.0600 
    171 H171        2.0000  -10.9000  -45.6808 H         1 UNK         0.0600 
    172 H172        3.5251  -11.2811  -46.4774 H         1 UNK         0.0600 
    173 H173        3.4977  -10.8973  -44.7625 H         1 UNK         0.0600 
    174 H174        1.0330  -13.9145  -45.8462 H         1 UNK         0.3000 
    175 H175        1.2215  -14.3484  -49.3725 H         1 UNK         0.0600 
    176 H176        0.2055  -16.4574  -48.5822 H         1 UNK         0.0600 
    177 H177        1.9196  -16.4321  -48.2143 H         1 UNK         0.0600 
    178 H178        0.7427  -16.1487  -46.9344 H         1 UNK         0.0600 
    179 H179       -0.6702  -14.0846  -47.0773 H         1 UNK         0.3000 
    180 H180       -2.2883  -11.2997  -48.5190 H         1 UNK         0.0600 
    181 H181       -3.4244  -14.1451  -48.3854 H         1 UNK         0.0600 
    182 H182       -3.4015  -13.1314  -49.8253 H         1 UNK         0.0600 
    183 H183       -4.3603  -12.6514  -48.4346 H         1 UNK         0.0600 
    184 H184       -2.9188  -13.0102  -46.2981 H         1 UNK         0.3000 
    185 H185       -0.6462  -11.7619  -43.9709 H         1 UNK         0.0600 
    186 H186       -2.2269   -9.8210  -43.9198 H         1 UNK         0.0600 
    187 H187       -3.5931  -10.9202  -44.0647 H         1 UNK         0.0600 
    188 H188       -2.5681  -10.9605  -42.6289 H         1 UNK         0.0600 
    189 H189       -2.9444  -13.2649  -43.4592 H         1 UNK         0.3000 
    190 H190       -1.4377  -22.1184  -43.8628 H         1 UNK         0.3000 
    191 H191       -3.7719  -21.5829  -45.3883 H         1 UNK         0.0600 
    192 H192       -3.2153  -20.4499  -43.2540 H         1 UNK         0.0600 
    193 H193       -4.7971  -21.2066  -43.1573 H         1 UNK         0.0600 
    194 H194       -3.4146  -21.9649  -42.3736 H         1 UNK         0.0600 
    195 H195       -2.6087  -24.5730  -44.0099 H         1 UNK         0.3000 
    196 H196       -5.2486  -25.9257  -44.2286 H         1 UNK         0.0600 
    197 H197       -4.0775  -27.7660  -43.0568 H         1 UNK         0.0600 
    198 H198       -3.8936  -26.2705  -42.1554 H         1 UNK         0.0600 
    199 H199       -2.5554  -26.8868  -43.1244 H         1 UNK         0.0600 
    200 H200       -2.7114  -25.1462  -46.2994 H         1 UNK         0.3000 
    201 H201       -2.6776  -27.7554  -47.7451 H         1 UNK         0.0600 
    202 H202       -0.5729  -26.9245  -48.7046 H         1 UNK         0.0600 
    203 H203       -0.7843  -25.3477  -47.9578 H         1 UNK         0.0600 
    204 H204       -0.4722  -26.7653  -46.9604 H         1 UNK         0.0600 
    205 H205       -2.4388  -27.4546  -50.1501 H         1 UNK         0.3000 
    206 H206       -4.6360  -26.0769  -51.3168 H         1 UNK         0.0600 
    207 H207       -3.6760  -28.1710  -52.2456 H         1 UNK         0.0600 
    208 H208       -3.6300  -26.8971  -53.4529 H         1 UNK         0.0600 
    209 H209       -2.1570  -27.3468  -52.6022 H         1 UNK         0.0600 
    210 H210       -1.4868  -24.9479  -50.5161 H         1 UNK         0.3000 
    211 H211       -1.0547  -22.8629  -52.3729 H         1 UNK         0.0600 
    212 H212       -0.2437  -23.1463  -49.4278 H         1 UNK         0.0600 
    213 H213        0.4433  -21.9789  -50.5524 H         1 UNK         0.0600 
    214 H214        0.6854  -23.6972  -50.8221 H         1 UNK         0.0600 
    215 H215       -3.3841  -23.0827  -49.7692 H         1 UNK         0.3000 
    216 H216       -3.8408  -20.2124  -49.5208 H         1 UNK         0.0600 
    217 H217       -5.5684  -20.9393  -47.9142 H         1 UNK         0.0600 
    218 H218       -4.0721  -21.8077  -47.6114 H         1 UNK         0.0600 
    219 H219       -5.4019  -22.6149  -48.4348 H         1 UNK         0.0600 
    220 H220       -4.7117  -22.4056  -51.9546 H         1 UNK         0.3000 
    221 H221       -7.4325  -21.5352  -52.4531 H         1 UNK         0.0600 
    222 H222       -5.3947  -22.8890  -54.3072 H         1 UNK         0.0600 
    223 H223       -6.5247  -23.7388  -53.2536 H         1 UNK         0.0600 
    224 H224       -7.1265  -22.7643  -54.5862 H         1 UNK         0.0600 
    225 H225       -8.1514  -20.0405  -54.0083 H         1 UNK         0.3000 
    226 H226       -6.7425  -17.6609  -54.3156 H         1 UNK         0.0600 
    227 H227       -8.5971  -17.0462  -55.8800 H         1 UNK         0.0600 
    228 H228       -9.1071  -18.7290  -55.9468 H         1 UNK         0.0600 
    229 H229       -9.2065  -17.8301  -54.4319 H         1 UNK         0.0600 
    230 H230       -6.8205  -20.4329  -56.5001 H         1 UNK         0.3000 
    231 H231       -5.5573  -19.2132  -58.7644 H         1 UNK         0.0600 
    232 H232       -5.7245  -22.1474  -57.8854 H         1 UNK         0.0600 
    233 H233       -5.2394  -21.5871  -59.4813 H         1 UNK         0.0600 
    234 H234       -6.8804  -21.3085  -58.9216 H         1 UNK         0.0600 
    235 H235       -4.2838  -20.4259  -55.7156 H         1 UNK         0.3000 
    236 H236       -1.4889  -20.5079  -56.6990 H         1 UNK         0.0600 
    237 H237       -1.0062  -21.3271  -54.4020 H         1 UNK         0.0600 
    238 H238       -2.7041  -21.1818  -53.9726 H         1 UNK         0.0600 
    239 H239       -2.2028  -22.3382  -55.2005 H         1 UNK         0.0600 
    240 H240       -3.6505  -18.6885  -54.4687 H         1 UNK         0.3000 
    241 H241       -1.7037  -16.7927  -53.6352 H         1 UNK         0.0600 
    242 H242       -3.9726  -16.6196  -56.4910 H         1 UNK         0.3800 
    243 H243       -3.1921  -15.1982  -57.1407 H         1 UNK         0.3800 
    244 H244       -4.7341  -16.4409  -53.7088 H         1 UNK         0.0800 
    245 H245       -3.6259  -15.4125  -52.8420 H         1 UNK         0.0800 
    246 H246       -1.9802  -16.3487  -50.8873 H         1 UNK         0.0800 
    247 H247       -3.4863  -15.6849  -50.2882 H         1 UNK         0.0800 
@<TRIPOS>BOND
     1    1    2 1    
     2    1  127 1    
     3    1  128 1    
     4    1  129 1    
     5    2    3 2    
     6    2    4 am   BACKBONE|DICT|INTERRES
     7    4    5 1    
     8    4  130 1    
     9    5    6 1    
    10    5   65 1    
    11    5  131 1    
    12    6    7 1    
    13    6  132 1    
    14    6  133 1    
    15    7    8 1    
    16    8    9 1    
    17    8  134 1    
    18    8  135 1    
    19    9   10 ar   
    20    9   14 ar   
    21   10   11 ar   
    22   10  136 1    
    23   11   12 ar   
    24   11  126 1    
    25   12   13 ar   
    26   12  137 1    
    27   13   14 ar   
    28   13   15 1    
    29   14  138 1    
    30   15   16 1    
    31   15  139 1    
    32   15  140 1    
    33   16   17 1    
    34   17   18 1    
    35   17  141 1    
    36   17  142 1    
    37   18   19 1    
    38   18   67 1    
    39   18  143 1    
    40   19   20 am   BACKBONE|DICT|INTERRES
    41   19  144 1    
    42   20   21 2    
    43   20   22 1    
    44   22   23 1    
    45   22   24 1    
    46   22  145 1    
    47   23  146 1    
    48   23  147 1    
    49   23  148 1    
    50   24   25 am   BACKBONE|DICT|INTERRES
    51   24  149 1    
    52   25   26 2    
    53   25   27 1    
    54   27   28 1    
    55   27   29 1    
    56   27  150 1    
    57   28  151 1    
    58   28  152 1    
    59   28  153 1    
    60   29   30 am   BACKBONE|DICT|INTERRES
    61   29  154 1    
    62   30   31 2    
    63   30   32 1    
    64   32   33 1    
    65   32   34 1    
    66   32  155 1    
    67   33  156 1    
    68   33  157 1    
    69   33  158 1    
    70   34   35 am   BACKBONE|DICT|INTERRES
    71   34  159 1    
    72   35   36 2    
    73   35   37 1    
    74   37   38 1    
    75   37   39 1    
    76   37  160 1    
    77   38  161 1    
    78   38  162 1    
    79   38  163 1    
    80   39   40 am   BACKBONE|DICT|INTERRES
    81   39  164 1    
    82   40   41 2    
    83   40   42 1    
    84   42   43 1    
    85   42   44 1    
    86   42  165 1    
    87   43  166 1    
    88   43  167 1    
    89   43  168 1    
    90   44   45 am   BACKBONE|DICT|INTERRES
    91   44  169 1    
    92   45   46 2    
    93   45   47 1    
    94   47   48 1    
    95   47   49 1    
    96   47  170 1    
    97   48  171 1    
    98   48  172 1    
    99   48  173 1    
   100   49   50 am   BACKBONE|DICT|INTERRES
   101   49  174 1    
   102   50   51 2    
   103   50   52 1    
   104   52   53 1    
   105   52   54 1    
   106   52  175 1    
   107   53  176 1    
   108   53  177 1    
   109   53  178 1    
   110   54   55 am   BACKBONE|DICT|INTERRES
   111   54  179 1    
   112   55   56 2    
   113   55   57 1    
   114   57   58 1    
   115   57   59 1    
   116   57  180 1    
   117   58  181 1    
   118   58  182 1    
   119   58  183 1    
   120   59   60 am   BACKBONE|DICT|INTERRES
   121   59  184 1    
   122   60   61 2    
   123   60   62 1    
   124   62   63 1    
   125   62   64 1    
   126   62  185 1    
   127   63  186 1    
   128   63  187 1    
   129   63  188 1    
   130   64   65 am   BACKBONE|DICT|INTERRES
   131   64  189 1    
   132   65   66 2    
   133   67   68 2    
   134   67   69 am   BACKBONE|DICT|INTERRES
   135   69   70 1    
   136   69  190 1    
   137   70   71 1    
   138   70   72 1    
   139   70  191 1    
   140   71  192 1    
   141   71  193 1    
   142   71  194 1    
   143   72   73 2    
   144   72   74 am   BACKBONE|DICT|INTERRES
   145   74   75 1    
   146   74  195 1    
   147   75   76 1    
   148   75   77 1    
   149   75  196 1    
   150   76  197 1    
   151   76  198 1    
   152   76  199 1    
   153   77   78 2    
   154   77   79 am   BACKBONE|DICT|INTERRES
   155   79   80 1    
   156   79  200 1    
   157   80   81 1    
   158   80   82 1    
   159   80  201 1    
   160   81  202 1    
   161   81  203 1    
   162   81  204 1    
   163   82   83 2    
   164   82   84 am   BACKBONE|DICT|INTERRES
   165   84   85 1    
   166   84  205 1    
   167   85   86 1    
   168   85   87 1    
   169   85  206 1    
   170   86  207 1    
   171   86  208 1    
   172   86  209 1    
   173   87   88 2    
   174   87   89 am   BACKBONE|DICT|INTERRES
   175   89   90 1    
   176   89  210 1    
   177   90   91 1    
   178   90   92 1    
   179   90  211 1    
   180   91  212 1    
   181   91  213 1    
   182   91  214 1    
   183   92   93 2    
   184   92   94 am   BACKBONE|DICT|INTERRES
   185   94   95 1    
   186   94  215 1    
   187   95   96 1    
   188   95   97 1    
   189   95  216 1    
   190   96  217 1    
   191   96  218 1    
   192   96  219 1    
   193   97   98 2    
   194   97   99 am   BACKBONE|DICT|INTERRES
   195   99  100 1    
   196   99  220 1    
   197  100  101 1    
   198  100  102 1    
   199  100  221 1    
   200  101  222 1    
   201  101  223 1    
   202  101  224 1    
   203  102  103 2    
   204  102  104 am   BACKBONE|DICT|INTERRES
   205  104  105 1    
   206  104  225 1    
   207  105  106 1    
   208  105  107 1    
   209  105  226 1    
   210  106  227 1    
   211  106  228 1    
   212  106  229 1    
   213  107  108 2    
   214  107  109 am   BACKBONE|DICT|INTERRES
   215  109  110 1    
   216  109  230 1    
   217  110  111 1    
   218  110  112 1    
   219  110  231 1    
   220  111  232 1    
   221  111  233 1    
   222  111  234 1    
   223  112  113 2    
   224  112  114 am   BACKBONE|DICT|INTERRES
   225  114  115 1    
   226  114  235 1    
   227  115  116 1    
   228  115  117 1    
   229  115  236 1    
   230  116  237 1    
   231  116  238 1    
   232  116  239 1    
   233  117  118 2    
   234  117  119 am   BACKBONE|DICT|INTERRES
   235  119  120 1    
   236  119  240 1    
   237  120  121 1    
   238  120  124 1    
   239  120  241 1    
   240  121  122 am   BACKBONE|DICT|INTERRES
   241  121  123 2    
   242  122  242 1    
   243  122  243 1    
   244  124  125 1    
   245  124  244 1    
   246  124  245 1    
   247  125  126 1    
   248  126  246 1    
   249  126  247 1    
@<TRIPOS>SUBSTRUCTURE
     1 UNK         1 GROUP             0       ****    0 ROOT    
