@<TRIPOS>MOLECULE
3R540
247   249    1
SMALL
USER_CHARGES


@<TRIPOS>ATOM
      1 CA          2.5499  -15.3301  -43.9759 C.3       0 UNK        -0.1800 
      2 C           2.8501  -14.7406  -45.3441 C.2       0 UNK         0.5000 
      3 O           4.0104  -14.4816  -45.6631 O.2       0 UNK        -0.5000 
      4 N           1.8026  -14.4994  -46.1423 N.am      1 UNK        -0.5000 
      5 CA          1.8084  -13.9071  -47.4858 C.3       1 UNK         0.1400 
      6 C6          2.7093  -14.6597  -48.4978 C.3       23 UNK        -0.0398 
      7 S7          2.1883  -14.3876  -50.2234 S.3       23 UNK        -0.2404 
      8 C8          3.2006  -15.6222  -51.0948 C.3       23 UNK        -0.0205 
      9 C9          2.6462  -17.0302  -50.9374 C.ar      23 UNK        -0.0193 
     10 C10         1.5635  -17.4448  -51.7169 C.ar      23 UNK        -0.1150 
     11 C11         1.0663  -18.7466  -51.6124 C.ar      23 UNK        -0.0193 
     12 C12         1.6561  -19.6366  -50.7074 C.ar      23 UNK        -0.1150 
     13 C13         2.7411  -19.2324  -49.9192 C.ar      23 UNK        -0.0193 
     14 C14         3.2305  -17.9285  -50.0404 C.ar      23 UNK        -0.1150 
     15 C15         3.4237  -20.2114  -48.9720 C.3       23 UNK        -0.0205 
     16 S16         3.0393  -19.8945  -47.2163 S.3       23 UNK        -0.2404 
     17 C17         1.3040  -20.4360  -47.1251 C.3       23 UNK        -0.0398 
     18 CA          1.1730  -21.9665  -46.9413 C.3       11 UNK         0.1400 
     19 N           1.6694  -22.4481  -45.6485 N.am      11 UNK        -0.5000 
     20 C           1.8630  -23.7429  -45.3532 C.2       10 UNK         0.5000 
     21 O           1.6673  -24.6636  -46.1450 O.2       10 UNK        -0.5000 
     22 CA          2.2899  -24.0700  -43.9123 C.3       10 UNK         0.1400 
     23 CB          3.7752  -23.7441  -43.6941 C.3       10 UNK        -0.1800 
     24 N           1.4826  -23.3610  -42.9210 N.am      10 UNK        -0.5000 
     25 C           0.1595  -23.5118  -42.7605 C.2       9 UNK         0.5000 
     26 O          -0.5228  -24.3127  -43.3979 O.2       9 UNK        -0.5000 
     27 CA         -0.5233  -22.5718  -41.7506 C.3       9 UNK         0.1400 
     28 CB         -0.5506  -23.2091  -40.3537 C.3       9 UNK        -0.1800 
     29 N           0.1134  -21.2549  -41.6719 N.am      9 UNK        -0.5000 
     30 C           0.1882  -20.3835  -42.6856 C.2       8 UNK         0.5000 
     31 O          -0.2684  -20.5909  -43.8145 O.2       8 UNK        -0.5000 
     32 CA          0.9387  -19.0763  -42.4040 C.3       8 UNK         0.1400 
     33 CB          2.2305  -19.0099  -43.2336 C.3       8 UNK        -0.1800 
     34 N           0.0747  -17.9562  -42.7521 N.am      8 UNK        -0.5000 
     35 C          -0.7882  -17.3701  -41.9115 C.2       7 UNK         0.5000 
     36 O          -0.8406  -17.6073  -40.7041 O.2       7 UNK        -0.5000 
     37 CA         -1.7787  -16.3674  -42.5348 C.3       7 UNK         0.1400 
     38 CB         -1.2159  -14.9400  -42.4627 C.3       7 UNK        -0.1800 
     39 N          -2.1089  -16.7025  -43.9246 N.am      7 UNK        -0.5000 
     40 C          -2.8532  -17.7627  -44.2825 C.2       6 UNK         0.5000 
     41 O          -3.4088  -18.4991  -43.4665 O.2       6 UNK        -0.5000 
     42 CA         -2.9595  -18.0921  -45.7882 C.3       6 UNK         0.1400 
     43 CB         -4.3491  -18.6416  -46.1804 C.3       6 UNK        -0.1800 
     44 N          -2.5426  -16.9983  -46.6775 N.am      6 UNK        -0.5000 
     45 C          -3.1621  -15.8240  -46.8570 C.2       5 UNK         0.5000 
     46 O          -4.2192  -15.5017  -46.3119 O.2       5 UNK        -0.5000 
     47 CA         -2.4554  -14.8243  -47.7907 C.3       5 UNK         0.1400 
     48 CB         -3.1675  -14.7328  -49.1467 C.3       5 UNK        -0.1800 
     49 N          -2.3956  -13.4976  -47.1797 N.am      5 UNK        -0.5000 
     50 C          -1.6828  -13.2179  -46.0838 C.2       4 UNK         0.5000 
     51 O          -0.9349  -14.0340  -45.5317 O.2       4 UNK        -0.5000 
     52 CA         -1.8325  -11.8057  -45.5043 C.3       4 UNK         0.1400 
     53 CB         -3.0929  -11.7105  -44.6229 C.3       4 UNK        -0.1800 
     54 N          -0.6295  -11.5183  -44.7340 N.am      4 UNK        -0.5000 
     55 C          -0.2618  -10.3415  -44.2172 C.2       3 UNK         0.5000 
     56 O          -0.9376   -9.3139  -44.2775 O.2       3 UNK        -0.5000 
     57 CA          1.1295  -10.3108  -43.5613 C.3       3 UNK         0.1400 
     58 CB          1.1941  -11.2343  -42.3323 C.3       3 UNK        -0.1800 
     59 N           2.1561  -10.7062  -44.5252 N.am      3 UNK        -0.5000 
     60 C           2.6066   -9.9261  -45.5190 C.2       2 UNK         0.5000 
     61 O           2.2981   -8.7421  -45.6580 O.2       2 UNK        -0.5000 
     62 CA          3.5439  -10.5918  -46.5445 C.3       2 UNK         0.1400 
     63 CB          5.0033  -10.5283  -46.0697 C.3       2 UNK        -0.1800 
     64 N           3.1822  -11.9858  -46.8046 N.am      2 UNK        -0.5000 
     65 C           2.0772  -12.3880  -47.4463 C.2       1 UNK         0.5000 
     66 O           1.2609  -11.6141  -47.9475 O.2       1 UNK        -0.5000 
     67 C          -0.2797  -22.4040  -47.1770 C.2       11 UNK         0.5000 
     68 O          -0.5925  -22.8683  -48.2722 O.2       11 UNK        -0.5000 
     69 N          -1.1280  -22.2802  -46.1451 N.am      12 UNK        -0.5000 
     70 CA         -2.5276  -22.7045  -46.1783 C.3       12 UNK         0.1400 
     71 CB         -3.2145  -22.3382  -44.8555 C.3       12 UNK        -0.1800 
     72 C          -2.6912  -24.2030  -46.4949 C.2       12 UNK         0.5000 
     73 O          -3.5294  -24.5534  -47.3257 O.2       12 UNK        -0.5000 
     74 N          -1.8606  -25.0461  -45.8684 N.am      13 UNK        -0.5000 
     75 CA         -1.8027  -26.4841  -46.1154 C.3       13 UNK         0.1400 
     76 CB         -0.9754  -27.1614  -45.0118 C.3       13 UNK        -0.1800 
     77 C          -1.2421  -26.8277  -47.5072 C.2       13 UNK         0.5000 
     78 O          -1.8543  -27.6211  -48.2226 O.2       13 UNK        -0.5000 
     79 N          -0.0931  -26.2352  -47.8646 N.am      14 UNK        -0.5000 
     80 CA          0.6374  -26.5301  -49.0997 C.3       14 UNK         0.1400 
     81 CB          2.0337  -25.8918  -49.0422 C.3       14 UNK        -0.1800 
     82 C          -0.0978  -26.0863  -50.3748 C.2       14 UNK         0.5000 
     83 O          -0.1214  -26.8357  -51.3521 O.2       14 UNK        -0.5000 
     84 N          -0.6772  -24.8801  -50.3475 N.am      15 UNK        -0.5000 
     85 CA         -1.3756  -24.2856  -51.4873 C.3       15 UNK         0.1400 
     86 CB         -1.2805  -22.7600  -51.3728 C.3       15 UNK        -0.1800 
     87 C          -2.8486  -24.7212  -51.5922 C.2       15 UNK         0.5000 
     88 O          -3.4632  -24.4750  -52.6297 O.2       15 UNK        -0.5000 
     89 N          -3.3813  -25.3410  -50.5262 N.am      16 UNK        -0.5000 
     90 CA         -4.7883  -25.6946  -50.3128 C.3       16 UNK         0.1400 
     91 CB         -5.2787  -26.7268  -51.3504 C.3       16 UNK        -0.1800 
     92 C          -5.6557  -24.4221  -50.2471 C.2       16 UNK         0.5000 
     93 O          -6.4751  -24.1767  -51.1334 O.2       16 UNK        -0.5000 
     94 N          -5.4065  -23.6364  -49.1894 N.am      17 UNK        -0.5000 
     95 CA         -5.8944  -22.2846  -48.9135 C.3       17 UNK         0.1400 
     96 CB         -7.4349  -22.2037  -48.9024 C.3       17 UNK        -0.1800 
     97 C          -5.2471  -21.2696  -49.8712 C.2       17 UNK         0.5000 
     98 O          -5.7984  -20.9770  -50.9322 O.2       17 UNK        -0.5000 
     99 N          -4.0862  -20.7381  -49.4587 N.am      18 UNK        -0.5000 
    100 CA        -3.2370  -19.8004  -50.2074 C.3       18 UNK         0.1400 
    101 CB        -1.9924  -19.4749  -49.3668 C.3       18 UNK        -0.1800 
    102 C         -3.9239  -18.5065  -50.6954 C.2       18 UNK         0.5000 
    103 O         -3.4415  -17.8840  -51.6411 O.2       18 UNK        -0.5000 
    104 N         -5.0308  -18.1229  -50.0472 N.am      19 UNK        -0.5000 
    105 CA        -5.8766  -16.9978  -50.4416 C.3       19 UNK         0.1400 
    106 CB        -6.6688  -16.5306  -49.2106 C.3       19 UNK        -0.1800 
    107 C         -6.8357  -17.3319  -51.6030 C.2       19 UNK         0.5000 
    108 O         -7.3139  -16.4067  -52.2606 O.2       19 UNK        -0.5000 
    109 N         -7.1223  -18.6224  -51.8241 N.am      20 UNK        -0.5000 
    110 CA        -8.0757  -19.1069  -52.8227 C.3       20 UNK         0.1400 
    111 CB        -8.9995  -20.1457  -52.1669 C.3       20 UNK        -0.1800 
    112 C         -7.3754  -19.7190  -54.0469 C.2       20 UNK         0.5000 
    113 O         -7.8804  -19.5690  -55.1606 O.2       20 UNK        -0.5000 
    114 N         -6.2401  -20.3942  -53.8355 N.am      21 UNK        -0.5000 
    115 CA        -5.4581  -21.0646  -54.8711 C.3       21 UNK         0.1400 
    116 CB        -5.9364  -22.5209  -55.0025 C.3       21 UNK        -0.1800 
    117 C         -3.9691  -21.0104  -54.5084 C.2       21 UNK         0.5000 
    118 O         -3.6329  -20.8615  -53.3362 O.2       21 UNK        -0.5000 
    119 N         -3.0999  -21.1410  -55.5143 N.am      22 UNK        -0.5000 
    120 CA        -1.6352  -21.1547  -55.3637 C.3       22 UNK         0.1400 
    121 C         -0.9332  -21.9370  -56.5148 C.2       22 UNK         0.5000 
    122 N         -1.5986  -22.8894  -57.1592 N.am      22 UNK        -0.7600 
    123 O          0.2241  -21.6897  -56.8411 O.2       22 UNK        -0.5000 
    124 C124       -1.0591  -19.7311  -55.1059 C.3       23 UNK        -0.0398 
    125 S125        0.4842  -19.7339  -54.1243 S.3       23 UNK        -0.2404 
    126 C126       -0.0986  -19.1785  -52.4919 C.3       23 UNK        -0.0205 
    127 H127        1.6673  -15.9673  -44.0092 H         1 UNK         0.0600 
    128 H128        2.3790  -14.5352  -43.2503 H         1 UNK         0.0600 
    129 H129        3.3909  -15.9312  -43.6315 H         1 UNK         0.0600 
    130 H130        0.8664  -14.6571  -45.7797 H         1 UNK         0.3000 
    131 H131        0.7788  -14.0231  -47.8271 H         1 UNK         0.0600 
    132 H132        3.7592  -14.3841  -48.3862 H         1 UNK         0.0800 
    133 H133        2.6540  -15.7306  -48.2999 H         1 UNK         0.0800 
    134 H134        3.2303  -15.3652  -52.1546 H         1 UNK         0.0800 
    135 H135        4.2318  -15.5684  -50.7419 H         1 UNK         0.0800 
    136 H136        1.1147  -16.7547  -52.4179 H         1 UNK         0.1150 
    137 H137        1.2807  -20.6469  -50.6285 H         1 UNK         0.1150 
    138 H138        4.0748  -17.6181  -49.4408 H         1 UNK         0.1150 
    139 H139        3.1635  -21.2393  -49.2275 H         1 UNK         0.0800 
    140 H140        4.5038  -20.1367  -49.1067 H         1 UNK         0.0800 
    141 H141        0.7947  -20.1019  -48.0299 H         1 UNK         0.0800 
    142 H142        0.8211  -19.9085  -46.3011 H         1 UNK         0.0800 
    143 H143        1.7689  -22.4511  -47.7172 H         1 UNK         0.0600 
    144 H144        1.8140  -21.7533  -44.9318 H         1 UNK         0.3000 
    145 H145        2.1475  -25.1416  -43.7573 H         1 UNK         0.0600 
    146 H146        4.1036  -24.0502  -42.7007 H         1 UNK         0.0600 
    147 H147        4.3995  -24.2699  -44.4177 H         1 UNK         0.0600 
    148 H148        3.9767  -22.6774  -43.8005 H         1 UNK         0.0600 
    149 H149        1.9587  -22.6822  -42.3463 H         1 UNK         0.3000 
    150 H150       -1.5538  -22.4238  -42.0779 H         1 UNK         0.0600 
    151 H151       -1.1024  -22.5885  -39.6475 H         1 UNK         0.0600 
    152 H152        0.4548  -23.3574  -39.9577 H         1 UNK         0.0600 
    153 H153       -1.0405  -24.1835  -40.3793 H         1 UNK         0.0600 
    154 H154        0.5095  -21.0019  -40.7779 H         1 UNK         0.3000 
    155 H155        1.2098  -19.0293  -41.3470 H         1 UNK         0.0600 
    156 H156        2.8537  -19.8887  -43.0628 H         1 UNK         0.0600 
    157 H157        2.8245  -18.1396  -42.9588 H         1 UNK         0.0600 
    158 H158        2.0271  -18.9535  -44.3034 H         1 UNK         0.0600 
    159 H159       -0.0038  -17.7446  -43.7347 H         1 UNK         0.3000 
    160 H160       -2.6982  -16.3985  -41.9464 H         1 UNK         0.0600 
    161 H161       -1.9311  -14.2170  -42.8517 H         1 UNK         0.0600 
    162 H162       -0.2924  -14.8381  -43.0317 H         1 UNK         0.0600 
    163 H163       -0.9978  -14.6572  -41.4322 H         1 UNK         0.0600 
    164 H164       -1.7210  -16.1044  -44.6418 H         1 UNK         0.3000 
    165 H165       -2.2402  -18.8963  -45.9514 H         1 UNK         0.0600 
    166 H166       -4.4073  -18.8529  -47.2462 H         1 UNK         0.0600 
    167 H167       -4.5670  -19.5711  -45.6541 H         1 UNK         0.0600 
    168 H168       -5.1469  -17.9399  -45.9362 H         1 UNK         0.0600 
    169 H169       -1.6653  -17.1465  -47.1557 H         1 UNK         0.3000 
    170 H170       -1.4320  -15.1615  -47.9687 H         1 UNK         0.0600 
    171 H171       -2.6703  -14.0227  -49.8077 H         1 UNK         0.0600 
    172 H172       -3.1596  -15.6998  -49.6494 H         1 UNK         0.0600 
    173 H173       -4.2073  -14.4216  -49.0383 H         1 UNK         0.0600 
    174 H174       -3.0135  -12.7965  -47.5614 H         1 UNK         0.3000 
    175 H175       -1.8998  -11.0934  -46.3290 H         1 UNK         0.0600 
    176 H176       -3.0241  -12.3581  -43.7494 H         1 UNK         0.0600 
    177 H177       -3.2594  -10.6931  -44.2700 H         1 UNK         0.0600 
    178 H178       -3.9840  -12.0047  -45.1788 H         1 UNK         0.0600 
    179 H179       -0.0174  -12.3178  -44.6439 H         1 UNK         0.3000 
    180 H180        1.3277   -9.2895  -43.2288 H         1 UNK         0.0600 
    181 H181        1.0480  -12.2826  -42.5955 H         1 UNK         0.0600 
    182 H182        0.4250  -10.9687  -41.6059 H         1 UNK         0.0600 
    183 H183        2.1574  -11.1491  -41.8292 H         1 UNK         0.0600 
    184 H184        2.4752  -11.6618  -44.4894 H         1 UNK         0.3000 
    185 H185        3.4633  -10.0368  -47.4815 H         1 UNK         0.0600 
    186 H186        5.1522  -11.0899  -45.1466 H         1 UNK         0.0600 
    187 H187        5.6799  -10.9344  -46.8219 H         1 UNK         0.0600 
    188 H188        5.3082   -9.4980  -45.8812 H         1 UNK         0.0600 
    189 H189        3.7769  -12.7047  -46.4017 H         1 UNK         0.3000 
    190 H190       -0.7927  -21.8690  -45.2792 H         1 UNK         0.3000 
    191 H191       -3.0145  -22.1428  -46.9765 H         1 UNK         0.0600 
    192 H192       -2.8247  -22.9250  -44.0244 H         1 UNK         0.0600 
    193 H193       -4.2877  -22.5244  -44.9105 H         1 UNK         0.0600 
    194 H194       -3.0768  -21.2844  -44.6124 H         1 UNK         0.0600 
    195 H195       -1.2301  -24.6815  -45.1596 H         1 UNK         0.3000 
    196 H196       -2.8203  -26.8768  -46.0607 H         1 UNK         0.0600 
    197 H197       -0.9162  -28.2388  -45.1711 H         1 UNK         0.0600 
    198 H198       -1.4238  -27.0014  -44.0312 H         1 UNK         0.0600 
    199 H199        0.0445  -26.7759  -44.9776 H         1 UNK         0.0600 
    200 H200        0.3631  -25.6013  -47.2137 H         1 UNK         0.3000 
    201 H201        0.7676  -27.6129  -49.1565 H         1 UNK         0.0600 
    202 H202        2.6092  -26.2786  -48.2011 H         1 UNK         0.0600 
    203 H203        1.9758  -24.8074  -48.9388 H         1 UNK         0.0600 
    204 H204        2.6011  -26.1062  -49.9487 H         1 UNK         0.0600 
    205 H205       -0.6102  -24.3065  -49.5095 H         1 UNK         0.3000 
    206 H206       -0.8760  -24.5832  -52.4117 H         1 UNK         0.0600 
    207 H207       -0.2459  -22.4298  -51.2859 H         1 UNK         0.0600 
    208 H208       -1.7060  -22.2781  -52.2507 H         1 UNK         0.0600 
    209 H209       -1.8296  -22.3966  -50.5056 H         1 UNK         0.0600 
    210 H210       -2.7750  -25.4895  -49.7311 H         1 UNK         0.3000 
    211 H211       -4.8424  -26.1704  -49.3322 H         1 UNK         0.0600 
    212 H212       -6.2910  -27.0569  -51.1155 H         1 UNK         0.0600 
    213 H213       -4.6409  -27.6107  -51.3564 H         1 UNK         0.0600 
    214 H214       -5.2983  -26.3208  -52.3618 H         1 UNK         0.0600 
    215 H215       -4.7062  -23.9762  -48.5307 H         1 UNK         0.3000 
    216 H216       -5.5612  -22.0446  -47.9026 H         1 UNK         0.0600 
    217 H217       -7.7663  -21.2094  -48.6013 H         1 UNK         0.0600 
    218 H218       -7.8607  -22.9168  -48.1968 H         1 UNK         0.0600 
    219 H219       -7.8699  -22.4028  -49.8814 H         1 UNK         0.0600 
    220 H220       -3.7083  -21.0502  -48.5787 H         1 UNK         0.3000 
    221 H221       -2.8912  -20.3214  -51.0954 H         1 UNK         0.0600 
    222 H222       -1.3853  -18.6984  -49.8337 H         1 UNK         0.0600 
    223 H223       -2.2594  -19.1268  -48.3731 H         1 UNK         0.0600 
    224 H224       -1.3576  -20.3525  -49.2536 H         1 UNK         0.0600 
    225 H225       -5.3608  -18.6912  -49.2828 H         1 UNK         0.3000 
    226 H226       -5.2429  -16.1729  -50.7722 H         1 UNK         0.0600 
    227 H227       -6.0028  -16.2452  -48.3963 H         1 UNK         0.0600 
    228 H228       -7.2817  -15.6600  -49.4473 H         1 UNK         0.0600 
    229 H229       -7.3351  -17.3107  -48.8404 H         1 UNK         0.0600 
    230 H230       -6.6360  -19.3406  -51.2948 H         1 UNK         0.3000 
    231 H231       -8.7021  -18.2859  -53.1776 H         1 UNK         0.0600 
    232 H232       -8.4434  -21.0175  -51.8206 H         1 UNK         0.0600 
    233 H233       -9.5261  -19.7221  -51.3117 H         1 UNK         0.0600 
    234 H234       -9.7532  -20.4977  -52.8724 H         1 UNK         0.0600 
    235 H235       -5.8672  -20.4853  -52.8938 H         1 UNK         0.3000 
    236 H236       -5.5895  -20.5506  -55.8255 H         1 UNK         0.0600 
    237 H237       -5.8153  -23.0653  -54.0641 H         1 UNK         0.0600 
    238 H238       -6.9886  -22.5683  -55.2832 H         1 UNK         0.0600 
    239 H239       -5.3714  -23.0547  -55.7673 H         1 UNK         0.0600 
    240 H240       -3.4392  -21.2416  -56.4607 H         1 UNK         0.3000 
    241 H241       -1.4240  -21.7579  -54.4801 H         1 UNK         0.0600 
    242 H242       -1.1373  -23.3878  -57.9047 H         1 UNK         0.3800 
    243 H243       -2.5249  -23.1681  -56.8776 H         1 UNK         0.3800 
    244 H244       -0.8754  -19.2150  -56.0494 H         1 UNK         0.0800 
    245 H245       -1.7891  -19.1139  -54.5813 H         1 UNK         0.0800 
    246 H246       -0.7927  -18.3444  -52.6069 H         1 UNK         0.0800 
    247 H247       -0.6596  -19.9837  -52.0189 H         1 UNK         0.0800 
@<TRIPOS>BOND
     1    1    2 1    
     2    1  127 1    
     3    1  128 1    
     4    1  129 1    
     5    2    3 2    
     6    2    4 am   BACKBONE|DICT|INTERRES
     7    4    5 1    
     8    4  130 1    
     9    5    6 1    
    10    5   65 1    
    11    5  131 1    
    12    6    7 1    
    13    6  132 1    
    14    6  133 1    
    15    7    8 1    
    16    8    9 1    
    17    8  134 1    
    18    8  135 1    
    19    9   10 ar   
    20    9   14 ar   
    21   10   11 ar   
    22   10  136 1    
    23   11   12 ar   
    24   11  126 1    
    25   12   13 ar   
    26   12  137 1    
    27   13   14 ar   
    28   13   15 1    
    29   14  138 1    
    30   15   16 1    
    31   15  139 1    
    32   15  140 1    
    33   16   17 1    
    34   17   18 1    
    35   17  141 1    
    36   17  142 1    
    37   18   19 1    
    38   18   67 1    
    39   18  143 1    
    40   19   20 am   BACKBONE|DICT|INTERRES
    41   19  144 1    
    42   20   21 2    
    43   20   22 1    
    44   22   23 1    
    45   22   24 1    
    46   22  145 1    
    47   23  146 1    
    48   23  147 1    
    49   23  148 1    
    50   24   25 am   BACKBONE|DICT|INTERRES
    51   24  149 1    
    52   25   26 2    
    53   25   27 1    
    54   27   28 1    
    55   27   29 1    
    56   27  150 1    
    57   28  151 1    
    58   28  152 1    
    59   28  153 1    
    60   29   30 am   BACKBONE|DICT|INTERRES
    61   29  154 1    
    62   30   31 2    
    63   30   32 1    
    64   32   33 1    
    65   32   34 1    
    66   32  155 1    
    67   33  156 1    
    68   33  157 1    
    69   33  158 1    
    70   34   35 am   BACKBONE|DICT|INTERRES
    71   34  159 1    
    72   35   36 2    
    73   35   37 1    
    74   37   38 1    
    75   37   39 1    
    76   37  160 1    
    77   38  161 1    
    78   38  162 1    
    79   38  163 1    
    80   39   40 am   BACKBONE|DICT|INTERRES
    81   39  164 1    
    82   40   41 2    
    83   40   42 1    
    84   42   43 1    
    85   42   44 1    
    86   42  165 1    
    87   43  166 1    
    88   43  167 1    
    89   43  168 1    
    90   44   45 am   BACKBONE|DICT|INTERRES
    91   44  169 1    
    92   45   46 2    
    93   45   47 1    
    94   47   48 1    
    95   47   49 1    
    96   47  170 1    
    97   48  171 1    
    98   48  172 1    
    99   48  173 1    
   100   49   50 am   BACKBONE|DICT|INTERRES
   101   49  174 1    
   102   50   51 2    
   103   50   52 1    
   104   52   53 1    
   105   52   54 1    
   106   52  175 1    
   107   53  176 1    
   108   53  177 1    
   109   53  178 1    
   110   54   55 am   BACKBONE|DICT|INTERRES
   111   54  179 1    
   112   55   56 2    
   113   55   57 1    
   114   57   58 1    
   115   57   59 1    
   116   57  180 1    
   117   58  181 1    
   118   58  182 1    
   119   58  183 1    
   120   59   60 am   BACKBONE|DICT|INTERRES
   121   59  184 1    
   122   60   61 2    
   123   60   62 1    
   124   62   63 1    
   125   62   64 1    
   126   62  185 1    
   127   63  186 1    
   128   63  187 1    
   129   63  188 1    
   130   64   65 am   BACKBONE|DICT|INTERRES
   131   64  189 1    
   132   65   66 2    
   133   67   68 2    
   134   67   69 am   BACKBONE|DICT|INTERRES
   135   69   70 1    
   136   69  190 1    
   137   70   71 1    
   138   70   72 1    
   139   70  191 1    
   140   71  192 1    
   141   71  193 1    
   142   71  194 1    
   143   72   73 2    
   144   72   74 am   BACKBONE|DICT|INTERRES
   145   74   75 1    
   146   74  195 1    
   147   75   76 1    
   148   75   77 1    
   149   75  196 1    
   150   76  197 1    
   151   76  198 1    
   152   76  199 1    
   153   77   78 2    
   154   77   79 am   BACKBONE|DICT|INTERRES
   155   79   80 1    
   156   79  200 1    
   157   80   81 1    
   158   80   82 1    
   159   80  201 1    
   160   81  202 1    
   161   81  203 1    
   162   81  204 1    
   163   82   83 2    
   164   82   84 am   BACKBONE|DICT|INTERRES
   165   84   85 1    
   166   84  205 1    
   167   85   86 1    
   168   85   87 1    
   169   85  206 1    
   170   86  207 1    
   171   86  208 1    
   172   86  209 1    
   173   87   88 2    
   174   87   89 am   BACKBONE|DICT|INTERRES
   175   89   90 1    
   176   89  210 1    
   177   90   91 1    
   178   90   92 1    
   179   90  211 1    
   180   91  212 1    
   181   91  213 1    
   182   91  214 1    
   183   92   93 2    
   184   92   94 am   BACKBONE|DICT|INTERRES
   185   94   95 1    
   186   94  215 1    
   187   95   96 1    
   188   95   97 1    
   189   95  216 1    
   190   96  217 1    
   191   96  218 1    
   192   96  219 1    
   193   97   98 2    
   194   97   99 am   BACKBONE|DICT|INTERRES
   195   99  100 1    
   196   99  220 1    
   197  100  101 1    
   198  100  102 1    
   199  100  221 1    
   200  101  222 1    
   201  101  223 1    
   202  101  224 1    
   203  102  103 2    
   204  102  104 am   BACKBONE|DICT|INTERRES
   205  104  105 1    
   206  104  225 1    
   207  105  106 1    
   208  105  107 1    
   209  105  226 1    
   210  106  227 1    
   211  106  228 1    
   212  106  229 1    
   213  107  108 2    
   214  107  109 am   BACKBONE|DICT|INTERRES
   215  109  110 1    
   216  109  230 1    
   217  110  111 1    
   218  110  112 1    
   219  110  231 1    
   220  111  232 1    
   221  111  233 1    
   222  111  234 1    
   223  112  113 2    
   224  112  114 am   BACKBONE|DICT|INTERRES
   225  114  115 1    
   226  114  235 1    
   227  115  116 1    
   228  115  117 1    
   229  115  236 1    
   230  116  237 1    
   231  116  238 1    
   232  116  239 1    
   233  117  118 2    
   234  117  119 am   BACKBONE|DICT|INTERRES
   235  119  120 1    
   236  119  240 1    
   237  120  121 1    
   238  120  124 1    
   239  120  241 1    
   240  121  122 am   BACKBONE|DICT|INTERRES
   241  121  123 2    
   242  122  242 1    
   243  122  243 1    
   244  124  125 1    
   245  124  244 1    
   246  124  245 1    
   247  125  126 1    
   248  126  246 1    
   249  126  247 1    
@<TRIPOS>SUBSTRUCTURE
     1 UNK         1 GROUP             0       ****    0 ROOT    
