@<TRIPOS>MOLECULE
3R540
247   249    1
SMALL
USER_CHARGES


@<TRIPOS>ATOM
      1 CA          6.3949  -16.9350  -50.9474 C.3       0 UNK        -0.1800 
      2 C           6.1515  -16.8476  -49.4472 C.2       0 UNK         0.5000 
      3 O           7.0385  -17.1809  -48.6608 O.2       0 UNK        -0.5000 
      4 N           4.9515  -16.4086  -49.0514 N.am      1 UNK        -0.5000 
      5 CA          4.5543  -16.1926  -47.6593 C.3       1 UNK         0.1400 
      6 C6          3.0137  -16.2942  -47.4870 C.3       23 UNK        -0.0398 
      7 S7          2.0302  -14.9115  -48.1797 S.3       23 UNK        -0.2404 
      8 C8          1.7345  -15.4090  -49.9089 C.3       23 UNK        -0.0205 
      9 C9          0.8597  -16.6470  -50.0170 C.ar      23 UNK        -0.0193 
     10 C10        -0.5301  -16.5354  -49.9358 C.ar      23 UNK        -0.1150 
     11 C11        -1.3400  -17.6706  -50.0284 C.ar      23 UNK        -0.0193 
     12 C12        -0.7470  -18.9276  -50.1820 C.ar      23 UNK        -0.1150 
     13 C13         0.6430  -19.0511  -50.2755 C.ar      23 UNK        -0.0193 
     14 C14         1.4382  -17.9034  -50.2115 C.ar      23 UNK        -0.1150 
     15 C15         1.2817  -20.4254  -50.4398 C.3       23 UNK        -0.0205 
     16 S16         2.5929  -20.7655  -49.2125 S.3       23 UNK        -0.2404 
     17 C17         1.7244  -20.4936  -47.6289 C.3       23 UNK        -0.0398 
     18 CA          1.2357  -21.7897  -46.9433 C.3       11 UNK         0.1400 
     19 N           0.8178  -21.5336  -45.5637 N.am      11 UNK        -0.5000 
     20 C           0.4714  -22.4737  -44.6738 C.2       10 UNK         0.5000 
     21 O           0.5256  -23.6822  -44.8978 O.2       10 UNK        -0.5000 
     22 CA         -0.0772  -21.9787  -43.3239 C.3       10 UNK         0.1400 
     23 CB          1.0681  -21.5703  -42.3860 C.3       10 UNK        -0.1800 
     24 N          -1.0167  -20.8659  -43.4751 N.am      10 UNK        -0.5000 
     25 C          -2.1927  -20.9485  -44.1144 C.2       9 UNK         0.5000 
     26 O          -2.6321  -21.9907  -44.5995 O.2       9 UNK        -0.5000 
     27 CA         -2.9904  -19.6420  -44.2836 C.3       9 UNK         0.1400 
     28 CB         -3.7511  -19.2904  -42.9967 C.3       9 UNK        -0.1800 
     29 N          -2.1478  -18.5136  -44.6807 N.am      9 UNK        -0.5000 
     30 C          -1.4642  -18.4418  -45.8321 C.2       8 UNK         0.5000 
     31 O          -1.5072  -19.3038  -46.7083 O.2       8 UNK        -0.5000 
     32 CA         -0.5255  -17.2350  -46.0021 C.3       8 UNK         0.1400 
     33 CB         -1.3015  -15.9788  -46.4250 C.3       8 UNK        -0.1800 
     34 N           0.2253  -16.9586  -44.7769 N.am      8 UNK        -0.5000 
     35 C           1.1695  -17.7642  -44.2707 C.2       7 UNK         0.5000 
     36 O           1.5469  -18.8005  -44.8145 O.2       7 UNK        -0.5000 
     37 CA          1.7744  -17.3523  -42.9172 C.3       7 UNK         0.1400 
     38 CB          2.9023  -16.3304  -43.1236 C.3       7 UNK        -0.1800 
     39 N           0.7756  -16.7960  -42.0040 N.am      7 UNK        -0.5000 
     40 C          -0.2356  -17.4939  -41.4663 C.2       6 UNK         0.5000 
     41 O          -0.4136  -18.6961  -41.6553 O.2       6 UNK        -0.5000 
     42 CA         -1.2488  -16.6956  -40.6258 C.3       6 UNK         0.1400 
     43 CB         -0.7547  -16.5422  -39.1802 C.3       6 UNK        -0.1800 
     44 N          -1.5151  -15.3717  -41.1908 N.am      6 UNK        -0.5000 
     45 C          -2.0796  -15.1457  -42.3830 C.2       5 UNK         0.5000 
     46 O          -2.4880  -16.0436  -43.1191 O.2       5 UNK        -0.5000 
     47 CA         -2.1269  -13.6864  -42.8715 C.3       5 UNK         0.1400 
     48 CB         -3.2247  -12.8798  -42.1522 C.3       5 UNK        -0.1800 
     49 N          -0.8187  -13.0155  -42.8208 N.am      5 UNK        -0.5000 
     50 C          -0.0987  -12.6361  -41.7533 C.2       4 UNK         0.5000 
     51 O          -0.4782  -12.7870  -40.5911 O.2       4 UNK        -0.5000 
     52 CA          1.3023  -12.0430  -42.0178 C.3       4 UNK         0.1400 
     53 CB          2.3571  -12.6843  -41.0982 C.3       4 UNK        -0.1800 
     54 N           1.7473  -12.2148  -43.4030 N.am      4 UNK        -0.5000 
     55 C           1.5391  -11.3564  -44.4099 C.2       3 UNK         0.5000 
     56 O           0.8824  -10.3211  -44.2944 O.2       3 UNK        -0.5000 
     57 CA          2.1455  -11.7490  -45.7761 C.3       3 UNK         0.1400 
     58 CB          2.4603  -10.5310  -46.6688 C.3       3 UNK        -0.1800 
     59 N           3.3085  -12.6419  -45.6637 N.am      3 UNK        -0.5000 
     60 C           4.5061  -12.3673  -45.1193 C.2       2 UNK         0.5000 
     61 O           4.8037  -11.2740  -44.6378 O.2       2 UNK        -0.5000 
     62 CA          5.5408  -13.5143  -45.0651 C.3       2 UNK         0.1400 
     63 CB          5.8472  -13.8894  -43.6054 C.3       2 UNK        -0.1800 
     64 N           5.1231  -14.7262  -45.7793 N.am      2 UNK        -0.5000 
     65 C           5.1315  -14.8667  -47.1114 C.2       1 UNK         0.5000 
     66 O           5.5279  -13.9893  -47.8833 O.2       1 UNK        -0.5000 
     67 C           0.1231  -22.4916  -47.7496 C.2       11 UNK         0.5000 
     68 O           0.3920  -23.5084  -48.3884 O.2       11 UNK        -0.5000 
     69 N          -1.1100  -21.9704  -47.6690 N.am      12 UNK        -0.5000 
     70 CA         -2.2996  -22.5432  -48.3005 C.3       12 UNK         0.1400 
     71 CB         -3.5009  -21.6155  -48.0679 C.3       12 UNK        -0.1800 
     72 C          -2.6133  -23.9689  -47.8134 C.2       12 UNK         0.5000 
     73 O          -2.9352  -24.8294  -48.6319 O.2       12 UNK        -0.5000 
     74 N          -2.4796  -24.2023  -46.5004 N.am      13 UNK        -0.5000 
     75 CA         -2.6373  -25.5129  -45.8713 C.3       13 UNK         0.1400 
     76 CB         -2.6609  -25.3537  -44.3437 C.3       13 UNK        -0.1800 
     77 C          -1.5509  -26.5150  -46.3037 C.2       13 UNK         0.5000 
     78 O          -1.8765  -27.6661  -46.5941 O.2       13 UNK        -0.5000 
     79 N          -0.2915  -26.0586  -46.3647 N.am      14 UNK        -0.5000 
     80 CA          0.8616  -26.8479  -46.8037 C.3       14 UNK         0.1400 
     81 CB          2.1579  -26.0869  -46.4862 C.3       14 UNK        -0.1800 
     82 C           0.7989  -27.2201  -48.2964 C.2       14 UNK         0.5000 
     83 O           1.1011  -28.3600  -48.6520 O.2       14 UNK        -0.5000 
     84 N           0.3869  -26.2622  -49.1378 N.am      15 UNK        -0.5000 
     85 CA          0.1684  -26.4487  -50.5739 C.3       15 UNK         0.1400 
     86 CB          0.0723  -25.0686  -51.2418 C.3       15 UNK        -0.1800 
     87 C          -1.0850  -27.2885  -50.8933 C.2       15 UNK         0.5000 
     88 O          -1.1621  -27.8690  -51.9760 O.2       15 UNK        -0.5000 
     89 N          -2.0400  -27.3176  -49.9522 N.am      16 UNK        -0.5000 
     90 CA         -3.3500  -27.9795  -49.9825 C.3       16 UNK         0.1400 
     91 CB         -3.2117  -29.4974  -50.2191 C.3       16 UNK        -0.1800 
     92 C          -4.3709  -27.3231  -50.9375 C.2       16 UNK         0.5000 
     93 O          -5.4772  -27.8434  -51.0909 O.2       16 UNK        -0.5000 
     94 N          -4.0079  -26.1825  -51.5316 N.am      17 UNK        -0.5000 
     95 CA         -4.8186  -25.3475  -52.4067 C.3       17 UNK         0.1400 
     96 CB         -5.0155  -26.0205  -53.7780 C.3       17 UNK        -0.1800 
     97 C          -4.0958  -24.0034  -52.5601 C.2       17 UNK         0.5000 
     98 O          -2.8632  -23.9832  -52.5861 O.2       17 UNK        -0.5000 
     99 N          -4.8722  -22.9211  -52.6789 N.am      18 UNK        -0.5000 
    100 CA        -4.4107  -21.5420  -52.8810 C.3       18 UNK         0.1400 
    101 CB        -3.5118  -21.0581  -51.7265 C.3       18 UNK        -0.1800 
    102 C         -5.5980  -20.5761  -53.0219 C.2       18 UNK         0.5000 
    103 O         -5.4467  -19.5245  -53.6436 O.2       18 UNK        -0.5000 
    104 N         -6.7593  -20.9397  -52.4518 N.am      19 UNK        -0.5000 
    105 CA        -7.9840  -20.1313  -52.3718 C.3       19 UNK         0.1400 
    106 CB        -9.0660  -20.9413  -51.6422 C.3       19 UNK        -0.1800 
    107 C         -8.5276  -19.6022  -53.7145 C.2       19 UNK         0.5000 
    108 O         -9.1957  -18.5687  -53.7240 O.2       19 UNK        -0.5000 
    109 N         -8.1987  -20.2785  -54.8237 N.am      20 UNK        -0.5000 
    110 CA        -8.4887  -19.8358  -56.1901 C.3       20 UNK         0.1400 
    111 CB        -8.0792  -20.9449  -57.1711 C.3       20 UNK        -0.1800 
    112 C         -7.8052  -18.5029  -56.5663 C.2       20 UNK         0.5000 
    113 O         -8.3396  -17.7687  -57.3986 O.2       20 UNK        -0.5000 
    114 N         -6.6564  -18.2116  -55.9411 N.am      21 UNK        -0.5000 
    115 CA        -5.9278  -16.9516  -56.0668 C.3       21 UNK         0.1400 
    116 CB        -4.4423  -17.2534  -56.3224 C.3       21 UNK        -0.1800 
    117 C         -6.0912  -16.0933  -54.8009 C.2       21 UNK         0.5000 
    118 O         -6.2955  -14.8838  -54.9137 O.2       21 UNK        -0.5000 
    119 N         -5.9874  -16.7250  -53.6242 N.am      22 UNK        -0.5000 
    120 CA        -6.0120  -16.0593  -52.3107 C.3       22 UNK         0.1400 
    121 C         -7.4191  -15.6108  -51.8204 C.2       22 UNK         0.5000 
    122 N         -8.5197  -16.0824  -52.3911 N.am      22 UNK        -0.7600 
    123 O         -7.5143  -14.8013  -50.9021 O.2       22 UNK        -0.5000 
    124 C124       -5.2909  -16.9036  -51.2283 C.3       23 UNK        -0.0398 
    125 S125       -3.5266  -17.1522  -51.6180 S.3       23 UNK        -0.2404 
    126 C126       -2.8529  -17.5308  -49.9717 C.3       23 UNK        -0.0205 
    127 H127        7.2290  -16.2927  -51.2301 H         1 UNK         0.0600 
    128 H128        5.5192  -16.6270  -51.5194 H         1 UNK         0.0600 
    129 H129        6.6407  -17.9591  -51.2286 H         1 UNK         0.0600 
    130 H130        4.2898  -16.0938  -49.7434 H         1 UNK         0.3000 
    131 H131        4.9925  -16.9977  -47.0650 H         1 UNK         0.0600 
    132 H132        2.6565  -17.2421  -47.8871 H         1 UNK         0.0800 
    133 H133        2.7760  -16.3437  -46.4242 H         1 UNK         0.0800 
    134 H134        2.6822  -15.5606  -50.4246 H         1 UNK         0.0800 
    135 H135        1.2475  -14.5809  -50.4259 H         1 UNK         0.0800 
    136 H136       -0.9826  -15.5624  -49.8050 H         1 UNK         0.1150 
    137 H137       -1.3693  -19.8091  -50.2330 H         1 UNK         0.1150 
    138 H138        2.5126  -17.9951  -50.2873 H         1 UNK         0.1150 
    139 H139        1.7128  -20.4923  -51.4393 H         1 UNK         0.0800 
    140 H140        0.5282  -21.2121  -50.3808 H         1 UNK         0.0800 
    141 H141        0.9056  -19.7853  -47.7505 H         1 UNK         0.0800 
    142 H142        2.4426  -19.9945  -46.9779 H         1 UNK         0.0800 
    143 H143        2.0815  -22.4787  -46.8906 H         1 UNK         0.0600 
    144 H144        0.7904  -20.5599  -45.2773 H         1 UNK         0.3000 
    145 H145       -0.6154  -22.8080  -42.8604 H         1 UNK         0.0600 
    146 H146        0.6909  -21.2958  -41.4007 H         1 UNK         0.0600 
    147 H147        1.7716  -22.3922  -42.2476 H         1 UNK         0.0600 
    148 H148        1.6275  -20.7208  -42.7782 H         1 UNK         0.0600 
    149 H149       -0.7530  -19.9854  -43.0419 H         1 UNK         0.3000 
    150 H150       -3.7235  -19.8019  -45.0767 H         1 UNK         0.0600 
    151 H151       -4.4168  -20.1029  -42.7031 H         1 UNK         0.0600 
    152 H152       -4.3642  -18.3992  -43.1326 H         1 UNK         0.0600 
    153 H153       -3.0729  -19.1044  -42.1640 H         1 UNK         0.0600 
    154 H154       -2.0953  -17.7340  -44.0321 H         1 UNK         0.3000 
    155 H155        0.1859  -17.4745  -46.7956 H         1 UNK         0.0600 
    156 H156       -2.0320  -15.6759  -45.6761 H         1 UNK         0.0600 
    157 H157       -0.6293  -15.1388  -46.5987 H         1 UNK         0.0600 
    158 H158       -1.8456  -16.1543  -47.3517 H         1 UNK         0.0600 
    159 H159       -0.0596  -16.1525  -44.2435 H         1 UNK         0.3000 
    160 H160        2.1996  -18.2452  -42.4540 H         1 UNK         0.0600 
    161 H161        2.5402  -15.4138  -43.5902 H         1 UNK         0.0600 
    162 H162        3.6839  -16.7425  -43.7625 H         1 UNK         0.0600 
    163 H163        3.3694  -16.0647  -42.1750 H         1 UNK         0.0600 
    164 H164        0.8471  -15.8148  -41.7841 H         1 UNK         0.3000 
    165 H165       -2.1870  -17.2540  -40.6127 H         1 UNK         0.0600 
    166 H166       -1.5000  -16.0427  -38.5610 H         1 UNK         0.0600 
    167 H167       -0.5575  -17.5157  -38.7293 H         1 UNK         0.0600 
    168 H168        0.1673  -15.9616  -39.1279 H         1 UNK         0.0600 
    169 H169       -1.1859  -14.5637  -40.6693 H         1 UNK         0.3000 
    170 H170       -2.3967  -13.7210  -43.9282 H         1 UNK         0.0600 
    171 H171       -4.2031  -13.3359  -42.3080 H         1 UNK         0.0600 
    172 H172       -3.0618  -12.8267  -41.0756 H         1 UNK         0.0600 
    173 H173       -3.2772  -11.8602  -42.5339 H         1 UNK         0.0600 
    174 H174       -0.3974  -12.8432  -43.7217 H         1 UNK         0.3000 
    175 H175        1.2506  -10.9779  -41.7831 H         1 UNK         0.0600 
    176 H176        2.4227  -13.7624  -41.2476 H         1 UNK         0.0600 
    177 H177        3.3457  -12.2610  -41.2784 H         1 UNK         0.0600 
    178 H178        2.1224  -12.5120  -40.0471 H         1 UNK         0.0600 
    179 H179        2.3022  -13.0341  -43.5957 H         1 UNK         0.3000 
    180 H180        1.3740  -12.3289  -46.2847 H         1 UNK         0.0600 
    181 H181        3.1664   -9.8494  -46.1942 H         1 UNK         0.0600 
    182 H182        1.5560   -9.9619  -46.8872 H         1 UNK         0.0600 
    183 H183        2.8837  -10.8428  -47.6237 H         1 UNK         0.0600 
    184 H184        3.1821  -13.5625  -46.0581 H         1 UNK         0.3000 
    185 H185        6.4611  -13.1421  -45.5201 H         1 UNK         0.0600 
    186 H186        6.2412  -13.0334  -43.0559 H         1 UNK         0.0600 
    187 H187        4.9557  -14.2303  -43.0789 H         1 UNK         0.0600 
    188 H188        6.5960  -14.6797  -43.5480 H         1 UNK         0.0600 
    189 H189        4.8166  -15.4957  -45.2037 H         1 UNK         0.3000 
    190 H190       -1.2465  -21.1040  -47.1530 H         1 UNK         0.3000 
    191 H191       -2.1087  -22.5960  -49.3740 H         1 UNK         0.0600 
    192 H192       -3.7270  -21.5056  -47.0076 H         1 UNK         0.0600 
    193 H193       -4.3963  -22.0054  -48.5534 H         1 UNK         0.0600 
    194 H194       -3.3138  -20.6206  -48.4705 H         1 UNK         0.0600 
    195 H195       -2.2693  -23.4220  -45.8844 H         1 UNK         0.3000 
    196 H196       -3.6029  -25.9170  -46.1825 H         1 UNK         0.0600 
    197 H197       -2.8009  -26.3173  -43.8525 H         1 UNK         0.0600 
    198 H198       -3.4787  -24.7054  -44.0285 H         1 UNK         0.0600 
    199 H199       -1.7320  -24.9247  -43.9676 H         1 UNK         0.0600 
    200 H200       -0.0996  -25.1081  -46.0603 H         1 UNK         0.3000 
    201 H201        0.8674  -27.7774  -46.2308 H         1 UNK         0.0600 
    202 H202        2.2511  -25.8980  -45.4166 H         1 UNK         0.0600 
    203 H203        2.1971  -25.1255  -46.9993 H         1 UNK         0.0600 
    204 H204        3.0336  -26.6601  -46.7930 H         1 UNK         0.0600 
    205 H205        0.2263  -25.3253  -48.7728 H         1 UNK         0.3000 
    206 H206        1.0319  -26.9716  -50.9899 H         1 UNK         0.0600 
    207 H207        0.9880  -24.4950  -51.0969 H         1 UNK         0.0600 
    208 H208       -0.0891  -25.1605  -52.3167 H         1 UNK         0.0600 
    209 H209       -0.7539  -24.4840  -50.8348 H         1 UNK         0.0600 
    210 H210       -1.8885  -26.7396  -49.1348 H         1 UNK         0.3000 
    211 H211       -3.7593  -27.8449  -48.9803 H         1 UNK         0.0600 
    212 H212       -2.8903  -29.7241  -51.2357 H         1 UNK         0.0600 
    213 H213       -4.1638  -30.0048  -50.0604 H         1 UNK         0.0600 
    214 H214       -2.4913  -29.9391  -49.5304 H         1 UNK         0.0600 
    215 H215       -3.0923  -25.7999  -51.3309 H         1 UNK         0.3000 
    216 H216       -5.7885  -25.1818  -51.9334 H         1 UNK         0.0600 
    217 H217       -5.5805  -25.3762  -54.4526 H         1 UNK         0.0600 
    218 H218       -5.5673  -26.9562  -53.6902 H         1 UNK         0.0600 
    219 H219       -4.0597  -26.2398  -54.2558 H         1 UNK         0.0600 
    220 H220       -5.8712  -23.0563  -52.7286 H         1 UNK         0.3000 
    221 H221       -3.8428  -21.5066  -53.8126 H         1 UNK         0.0600 
    222 H222       -4.0413  -21.0852  -50.7758 H         1 UNK         0.0600 
    223 H223       -2.6022  -21.6483  -51.6284 H         1 UNK         0.0600 
    224 H224       -3.1932  -20.0303  -51.8955 H         1 UNK         0.0600 
    225 H225       -6.7743  -21.7883  -51.9079 H         1 UNK         0.3000 
    226 H226       -7.7502  -19.2564  -51.7623 H         1 UNK         0.0600 
    227 H227       -8.7441  -21.2178  -50.6380 H         1 UNK         0.0600 
    228 H228       -9.9851  -20.3629  -51.5374 H         1 UNK         0.0600 
    229 H229       -9.3140  -21.8566  -52.1811 H         1 UNK         0.0600 
    230 H230       -7.6484  -21.1183  -54.7261 H         1 UNK         0.3000 
    231 H231       -9.5673  -19.6862  -56.2712 H         1 UNK         0.0600 
    232 H232       -8.3055  -20.6599  -58.1994 H         1 UNK         0.0600 
    233 H233       -8.6161  -21.8714  -56.9666 H         1 UNK         0.0600 
    234 H234       -7.0103  -21.1554  -57.1164 H         1 UNK         0.0600 
    235 H235       -6.3012  -18.8621  -55.2475 H         1 UNK         0.3000 
    236 H236       -6.3035  -16.3731  -56.9133 H         1 UNK         0.0600 
    237 H237       -3.8674  -16.3315  -56.4183 H         1 UNK         0.0600 
    238 H238       -4.0011  -17.8332  -55.5103 H         1 UNK         0.0600 
    239 H239       -4.3098  -17.8175  -57.2457 H         1 UNK         0.0600 
    240 H240       -5.7784  -17.7196  -53.6152 H         1 UNK         0.3000 
    241 H241       -5.4438  -15.1325  -52.4147 H         1 UNK         0.0600 
    242 H242       -8.4897  -16.7961  -53.1097 H         1 UNK         0.3800 
    243 H243       -9.4154  -15.7641  -52.0575 H         1 UNK         0.3800 
    244 H244       -5.3572  -16.4122  -50.2558 H         1 UNK         0.0800 
    245 H245       -5.7676  -17.8781  -51.1156 H         1 UNK         0.0800 
    246 H246       -3.3064  -18.4476  -49.5932 H         1 UNK         0.0800 
    247 H247       -3.1262  -16.7376  -49.2752 H         1 UNK         0.0800 
@<TRIPOS>BOND
     1    1    2 1    
     2    1  127 1    
     3    1  128 1    
     4    1  129 1    
     5    2    3 2    
     6    2    4 am   BACKBONE|DICT|INTERRES
     7    4    5 1    
     8    4  130 1    
     9    5    6 1    
    10    5   65 1    
    11    5  131 1    
    12    6    7 1    
    13    6  132 1    
    14    6  133 1    
    15    7    8 1    
    16    8    9 1    
    17    8  134 1    
    18    8  135 1    
    19    9   10 ar   
    20    9   14 ar   
    21   10   11 ar   
    22   10  136 1    
    23   11   12 ar   
    24   11  126 1    
    25   12   13 ar   
    26   12  137 1    
    27   13   14 ar   
    28   13   15 1    
    29   14  138 1    
    30   15   16 1    
    31   15  139 1    
    32   15  140 1    
    33   16   17 1    
    34   17   18 1    
    35   17  141 1    
    36   17  142 1    
    37   18   19 1    
    38   18   67 1    
    39   18  143 1    
    40   19   20 am   BACKBONE|DICT|INTERRES
    41   19  144 1    
    42   20   21 2    
    43   20   22 1    
    44   22   23 1    
    45   22   24 1    
    46   22  145 1    
    47   23  146 1    
    48   23  147 1    
    49   23  148 1    
    50   24   25 am   BACKBONE|DICT|INTERRES
    51   24  149 1    
    52   25   26 2    
    53   25   27 1    
    54   27   28 1    
    55   27   29 1    
    56   27  150 1    
    57   28  151 1    
    58   28  152 1    
    59   28  153 1    
    60   29   30 am   BACKBONE|DICT|INTERRES
    61   29  154 1    
    62   30   31 2    
    63   30   32 1    
    64   32   33 1    
    65   32   34 1    
    66   32  155 1    
    67   33  156 1    
    68   33  157 1    
    69   33  158 1    
    70   34   35 am   BACKBONE|DICT|INTERRES
    71   34  159 1    
    72   35   36 2    
    73   35   37 1    
    74   37   38 1    
    75   37   39 1    
    76   37  160 1    
    77   38  161 1    
    78   38  162 1    
    79   38  163 1    
    80   39   40 am   BACKBONE|DICT|INTERRES
    81   39  164 1    
    82   40   41 2    
    83   40   42 1    
    84   42   43 1    
    85   42   44 1    
    86   42  165 1    
    87   43  166 1    
    88   43  167 1    
    89   43  168 1    
    90   44   45 am   BACKBONE|DICT|INTERRES
    91   44  169 1    
    92   45   46 2    
    93   45   47 1    
    94   47   48 1    
    95   47   49 1    
    96   47  170 1    
    97   48  171 1    
    98   48  172 1    
    99   48  173 1    
   100   49   50 am   BACKBONE|DICT|INTERRES
   101   49  174 1    
   102   50   51 2    
   103   50   52 1    
   104   52   53 1    
   105   52   54 1    
   106   52  175 1    
   107   53  176 1    
   108   53  177 1    
   109   53  178 1    
   110   54   55 am   BACKBONE|DICT|INTERRES
   111   54  179 1    
   112   55   56 2    
   113   55   57 1    
   114   57   58 1    
   115   57   59 1    
   116   57  180 1    
   117   58  181 1    
   118   58  182 1    
   119   58  183 1    
   120   59   60 am   BACKBONE|DICT|INTERRES
   121   59  184 1    
   122   60   61 2    
   123   60   62 1    
   124   62   63 1    
   125   62   64 1    
   126   62  185 1    
   127   63  186 1    
   128   63  187 1    
   129   63  188 1    
   130   64   65 am   BACKBONE|DICT|INTERRES
   131   64  189 1    
   132   65   66 2    
   133   67   68 2    
   134   67   69 am   BACKBONE|DICT|INTERRES
   135   69   70 1    
   136   69  190 1    
   137   70   71 1    
   138   70   72 1    
   139   70  191 1    
   140   71  192 1    
   141   71  193 1    
   142   71  194 1    
   143   72   73 2    
   144   72   74 am   BACKBONE|DICT|INTERRES
   145   74   75 1    
   146   74  195 1    
   147   75   76 1    
   148   75   77 1    
   149   75  196 1    
   150   76  197 1    
   151   76  198 1    
   152   76  199 1    
   153   77   78 2    
   154   77   79 am   BACKBONE|DICT|INTERRES
   155   79   80 1    
   156   79  200 1    
   157   80   81 1    
   158   80   82 1    
   159   80  201 1    
   160   81  202 1    
   161   81  203 1    
   162   81  204 1    
   163   82   83 2    
   164   82   84 am   BACKBONE|DICT|INTERRES
   165   84   85 1    
   166   84  205 1    
   167   85   86 1    
   168   85   87 1    
   169   85  206 1    
   170   86  207 1    
   171   86  208 1    
   172   86  209 1    
   173   87   88 2    
   174   87   89 am   BACKBONE|DICT|INTERRES
   175   89   90 1    
   176   89  210 1    
   177   90   91 1    
   178   90   92 1    
   179   90  211 1    
   180   91  212 1    
   181   91  213 1    
   182   91  214 1    
   183   92   93 2    
   184   92   94 am   BACKBONE|DICT|INTERRES
   185   94   95 1    
   186   94  215 1    
   187   95   96 1    
   188   95   97 1    
   189   95  216 1    
   190   96  217 1    
   191   96  218 1    
   192   96  219 1    
   193   97   98 2    
   194   97   99 am   BACKBONE|DICT|INTERRES
   195   99  100 1    
   196   99  220 1    
   197  100  101 1    
   198  100  102 1    
   199  100  221 1    
   200  101  222 1    
   201  101  223 1    
   202  101  224 1    
   203  102  103 2    
   204  102  104 am   BACKBONE|DICT|INTERRES
   205  104  105 1    
   206  104  225 1    
   207  105  106 1    
   208  105  107 1    
   209  105  226 1    
   210  106  227 1    
   211  106  228 1    
   212  106  229 1    
   213  107  108 2    
   214  107  109 am   BACKBONE|DICT|INTERRES
   215  109  110 1    
   216  109  230 1    
   217  110  111 1    
   218  110  112 1    
   219  110  231 1    
   220  111  232 1    
   221  111  233 1    
   222  111  234 1    
   223  112  113 2    
   224  112  114 am   BACKBONE|DICT|INTERRES
   225  114  115 1    
   226  114  235 1    
   227  115  116 1    
   228  115  117 1    
   229  115  236 1    
   230  116  237 1    
   231  116  238 1    
   232  116  239 1    
   233  117  118 2    
   234  117  119 am   BACKBONE|DICT|INTERRES
   235  119  120 1    
   236  119  240 1    
   237  120  121 1    
   238  120  124 1    
   239  120  241 1    
   240  121  122 am   BACKBONE|DICT|INTERRES
   241  121  123 2    
   242  122  242 1    
   243  122  243 1    
   244  124  125 1    
   245  124  244 1    
   246  124  245 1    
   247  125  126 1    
   248  126  246 1    
   249  126  247 1    
@<TRIPOS>SUBSTRUCTURE
     1 UNK         1 GROUP             0       ****    0 ROOT    
