@<TRIPOS>MOLECULE
3R540
247   249    1
SMALL
USER_CHARGES


@<TRIPOS>ATOM
      1 CA         -5.5938  -16.1559  -48.7504 C.3       0 UNK        -0.1800 
      2 C          -4.3174  -15.4191  -48.3711 C.2       0 UNK         0.5000 
      3 O          -4.3564  -14.2195  -48.1000 O.2       0 UNK        -0.5000 
      4 N          -3.1890  -16.1388  -48.3338 N.am      1 UNK        -0.5000 
      5 CA         -1.8554  -15.6073  -48.0077 C.3       1 UNK         0.1400 
      6 C6         -0.7243  -16.4107  -48.7004 C.3       23 UNK        -0.0398 
      7 S7         -0.9035  -16.3383  -50.5150 S.3       23 UNK        -0.2404 
      8 C8          0.8225  -16.3154  -51.0844 C.3       23 UNK        -0.0205 
      9 C9          1.3391  -17.7196  -51.3519 C.ar      23 UNK        -0.0193 
     10 C10         0.9455  -18.3877  -52.5149 C.ar      23 UNK        -0.1150 
     11 C11         1.4341  -19.6625  -52.8040 C.ar      23 UNK        -0.0193 
     12 C12         2.3373  -20.2648  -51.9254 C.ar      23 UNK        -0.1150 
     13 C13         2.7483  -19.6052  -50.7630 C.ar      23 UNK        -0.0193 
     14 C14         2.2347  -18.3365  -50.4718 C.ar      23 UNK        -0.1150 
     15 C15         3.7942  -20.2484  -49.8644 C.3       23 UNK        -0.0205 
     16 S16         3.1762  -21.7554  -49.0562 S.3       23 UNK        -0.2404 
     17 C17         2.3492  -21.0521  -47.5967 C.3       23 UNK        -0.0398 
     18 CA          1.3468  -22.0502  -46.9662 C.3       11 UNK         0.1400 
     19 N           1.3218  -21.9548  -45.5063 N.am      11 UNK        -0.5000 
     20 C           0.6741  -22.7959  -44.6882 C.2       10 UNK         0.5000 
     21 O           0.0719  -23.7983  -45.0706 O.2       10 UNK        -0.5000 
     22 CA          0.6375  -22.4075  -43.1991 C.3       10 UNK         0.1400 
     23 CB          1.9095  -22.8657  -42.4700 C.3       10 UNK        -0.1800 
     24 N           0.4538  -20.9651  -43.0276 N.am      10 UNK        -0.5000 
     25 C          -0.6668  -20.3128  -43.3681 C.2       9 UNK         0.5000 
     26 O          -1.6860  -20.8732  -43.7705 O.2       9 UNK        -0.5000 
     27 CA         -0.6251  -18.7789  -43.3019 C.3       9 UNK         0.1400 
     28 CB         -0.9701  -18.2863  -41.8886 C.3       9 UNK        -0.1800 
     29 N           0.6703  -18.2423  -43.7219 N.am      9 UNK        -0.5000 
     30 C           1.0832  -18.2024  -44.9989 C.2       8 UNK         0.5000 
     31 O           0.3925  -18.5774  -45.9455 O.2       8 UNK        -0.5000 
     32 CA          2.5220  -17.7177  -45.2723 C.3       8 UNK         0.1400 
     33 CB          2.5436  -16.2076  -45.5438 C.3       8 UNK        -0.1800 
     34 N           3.4557  -18.0252  -44.1884 N.am      8 UNK        -0.5000 
     35 C           3.7692  -19.2619  -43.7782 C.2       7 UNK         0.5000 
     36 O           3.3530  -20.2805  -44.3279 O.2       7 UNK        -0.5000 
     37 CA          4.6416  -19.3901  -42.5127 C.3       7 UNK         0.1400 
     38 CB          6.1092  -19.6241  -42.8991 C.3       7 UNK        -0.1800 
     39 N           4.5628  -18.2495  -41.5904 N.am      7 UNK        -0.5000 
     40 C           3.4414  -17.7739  -41.0313 C.2       6 UNK         0.5000 
     41 O           2.3178  -18.2238  -41.2736 O.2       6 UNK        -0.5000 
     42 CA          3.6035  -16.5796  -40.0780 C.3       6 UNK         0.1400 
     43 CB          4.2010  -15.3561  -40.7981 C.3       6 UNK        -0.1800 
     44 N           2.2971  -16.2162  -39.5437 N.am      6 UNK        -0.5000 
     45 C           2.0410  -15.7446  -38.3226 C.2       5 UNK         0.5000 
     46 O           2.9052  -15.5553  -37.4642 O.2       5 UNK        -0.5000 
     47 CA          0.5692  -15.3741  -38.0479 C.3       5 UNK         0.1400 
     48 CB          0.2609  -15.2539  -36.5447 C.3       5 UNK        -0.1800 
     49 N           0.2300  -14.1098  -38.7024 N.am      5 UNK        -0.5000 
     50 C           0.0073  -13.9543  -40.0128 C.2       4 UNK         0.5000 
     51 O          -0.0193  -14.8874  -40.8219 O.2       4 UNK        -0.5000 
     52 CA         -0.1910  -12.5130  -40.5020 C.3       4 UNK         0.1400 
     53 CB          1.1375  -11.7345  -40.4901 C.3       4 UNK        -0.1800 
     54 N          -0.7192  -12.5592  -41.8583 N.am      4 UNK        -0.5000 
     55 C          -1.4523  -11.6170  -42.4588 C.2       3 UNK         0.5000 
     56 O          -1.7452  -10.5415  -41.9345 O.2       3 UNK        -0.5000 
     57 CA         -1.9431  -11.9242  -43.8876 C.3       3 UNK         0.1400 
     58 CB         -1.0701  -11.1997  -44.9238 C.3       3 UNK        -0.1800 
     59 N          -1.9506  -13.3545  -44.2023 N.am      3 UNK        -0.5000 
     60 C          -2.8356  -14.2466  -43.7430 C.2       2 UNK         0.5000 
     61 O          -3.7723  -13.9468  -43.0008 O.2       2 UNK        -0.5000 
     62 CA         -2.6394  -15.7086  -44.2062 C.3       2 UNK         0.1400 
     63 CB         -3.7250  -16.6502  -43.6509 C.3       2 UNK        -0.1800 
     64 N          -2.6154  -15.8408  -45.6645 N.am      2 UNK        -0.5000 
     65 C          -1.6210  -15.4719  -46.4851 C.2       1 UNK         0.5000 
     66 O          -0.5588  -15.0011  -46.0769 O.2       1 UNK        -0.5000 
     67 C          -0.0642  -21.9093  -47.5736 C.2       11 UNK         0.5000 
     68 O          -0.4461  -22.7273  -48.4096 O.2       11 UNK        -0.5000 
     69 N          -0.8349  -20.9179  -47.0979 N.am      12 UNK        -0.5000 
     70 CA         -2.2315  -20.6974  -47.4760 C.3       12 UNK         0.1400 
     71 CB         -2.7627  -19.4121  -46.8218 C.3       12 UNK        -0.1800 
     72 C          -3.1401  -21.8859  -47.1217 C.2       12 UNK         0.5000 
     73 O          -3.9601  -22.2823  -47.9471 O.2       12 UNK        -0.5000 
     74 N          -2.9570  -22.4515  -45.9205 N.am      13 UNK        -0.5000 
     75 CA         -3.6680  -23.6406  -45.4508 C.3       13 UNK         0.1400 
     76 CB         -3.3670  -23.8676  -43.9617 C.3       13 UNK        -0.1800 
     77 C          -3.3399  -24.8975  -46.2785 C.2       13 UNK         0.5000 
     78 O          -4.2504  -25.6605  -46.6018 O.2       13 UNK        -0.5000 
     79 N          -2.0580  -25.0747  -46.6290 N.am      14 UNK        -0.5000 
     80 CA         -1.5685  -26.1662  -47.4725 C.3       14 UNK         0.1400 
     81 CB         -0.0335  -26.2085  -47.4189 C.3       14 UNK        -0.1800 
     82 C          -2.0636  -26.0647  -48.9273 C.2       14 UNK         0.5000 
     83 O          -2.4708  -27.0753  -49.5017 O.2       14 UNK        -0.5000 
     84 N          -2.0362  -24.8488  -49.4903 N.am      15 UNK        -0.5000 
     85 CA         -2.5253  -24.5425  -50.8363 C.3       15 UNK         0.1400 
     86 CB         -1.9832  -23.1719  -51.2632 C.3       15 UNK        -0.1800 
     87 C          -4.0616  -24.5564  -50.9486 C.2       15 UNK         0.5000 
     88 O          -4.5837  -24.7282  -52.0509 O.2       15 UNK        -0.5000 
     89 N          -4.7482  -24.3427  -49.8186 N.am      16 UNK        -0.5000 
     90 CA         -6.1940  -24.2467  -49.6023 C.3       16 UNK         0.1400 
     91 CB         -6.9246  -25.5364  -50.0228 C.3       16 UNK        -0.1800 
     92 C          -6.8248  -22.9940  -50.2368 C.2       16 UNK         0.5000 
     93 O          -7.4499  -22.2053  -49.5268 O.2       16 UNK        -0.5000 
     94 N          -6.6518  -22.8295  -51.5532 N.am      17 UNK        -0.5000 
     95 CA         -7.1209  -21.6717  -52.3134 C.3       17 UNK         0.1400 
     96 CB         -7.3011  -22.0757  -53.7832 C.3       17 UNK        -0.1800 
     97 C          -6.1653  -20.4709  -52.1796 C.2       17 UNK         0.5000 
     98 O          -6.6356  -19.3367  -52.0825 O.2       17 UNK        -0.5000 
     99 N          -4.8533  -20.7577  -52.1453 N.am      18 UNK        -0.5000 
    100 CA        -3.7311  -19.8194  -52.0087 C.3       18 UNK         0.1400 
    101 CB        -3.8000  -19.1064  -50.6411 C.3       18 UNK        -0.1800 
    102 C         -3.6023  -18.8225  -53.1840 C.2       18 UNK         0.5000 
    103 O         -4.2993  -18.9491  -54.1932 O.2       18 UNK        -0.5000 
    104 N         -2.6898  -17.8509  -53.0355 N.am      19 UNK        -0.5000 
    105 CA        -2.4027  -16.7584  -53.9705 C.3       19 UNK         0.1400 
    106 CB        -3.5487  -15.7225  -53.9312 C.3       19 UNK        -0.1800 
    107 C         -2.0549  -17.2713  -55.3859 C.2       19 UNK         0.5000 
    108 O         -1.1158  -18.0531  -55.5316 O.2       19 UNK        -0.5000 
    109 N         -2.8114  -16.8393  -56.4013 N.am      20 UNK        -0.5000 
    110 CA        -2.6621  -17.2704  -57.7920 C.3       20 UNK         0.1400 
    111 CB        -3.2676  -16.1899  -58.7027 C.3       20 UNK        -0.1800 
    112 C         -3.3057  -18.6430  -58.0823 C.2       20 UNK         0.5000 
    113 O         -3.0845  -19.1877  -59.1645 O.2       20 UNK        -0.5000 
    114 N         -4.1008  -19.1710  -57.1415 N.am      21 UNK        -0.5000 
    115 CA        -4.8812  -20.3998  -57.2905 C.3       21 UNK         0.1400 
    116 CB        -6.2783  -20.1689  -56.6905 C.3       21 UNK        -0.1800 
    117 C         -4.1904  -21.6382  -56.6834 C.2       21 UNK         0.5000 
    118 O         -4.8221  -22.6933  -56.6075 O.2       21 UNK        -0.5000 
    119 N         -2.9185  -21.5121  -56.2767 N.am      22 UNK        -0.5000 
    120 CA        -2.0533  -22.6252  -55.8477 C.3       22 UNK         0.1400 
    121 C         -1.9108  -23.7340  -56.9314 C.2       22 UNK         0.5000 
    122 N         -1.9570  -25.0015  -56.5441 N.am      22 UNK        -0.7600 
    123 O         -1.7102  -23.4530  -58.1112 O.2       22 UNK        -0.5000 
    124 C124       -0.6430  -22.1298  -55.4423 C.3       23 UNK        -0.0398 
    125 S125       -0.6382  -21.1049  -53.9389 S.3       23 UNK        -0.2404 
    126 C126        1.0181  -20.3700  -54.0830 C.3       23 UNK        -0.0205 
    127 H127       -5.8609  -15.9362  -49.7841 H         1 UNK         0.0600 
    128 H128       -5.4829  -17.2352  -48.6452 H         1 UNK         0.0600 
    129 H129       -6.4170  -15.8402  -48.1094 H         1 UNK         0.0600 
    130 H130       -3.2184  -17.1151  -48.5845 H         1 UNK         0.3000 
    131 H131       -1.7986  -14.5874  -48.3950 H         1 UNK         0.0600 
    132 H132       -0.7162  -17.4548  -48.3880 H         1 UNK         0.0800 
    133 H133        0.2503  -16.0054  -48.4246 H         1 UNK         0.0800 
    134 H134        0.8728  -15.7389  -52.0093 H         1 UNK         0.0800 
    135 H135        1.4591  -15.7897  -50.3716 H         1 UNK         0.0800 
    136 H136        0.2628  -17.9135  -53.2042 H         1 UNK         0.1150 
    137 H137        2.7351  -21.2443  -52.1515 H         1 UNK         0.1150 
    138 H138        2.5532  -17.8174  -49.5788 H         1 UNK         0.1150 
    139 H139        4.6608  -20.5116  -50.4724 H         1 UNK         0.0800 
    140 H140        4.1553  -19.5458  -49.1116 H         1 UNK         0.0800 
    141 H141        1.8756  -20.1015  -47.8507 H         1 UNK         0.0800 
    142 H142        3.1426  -20.8090  -46.8897 H         1 UNK         0.0800 
    143 H143        1.6860  -23.0658  -47.1826 H         1 UNK         0.0600 
    144 H144        1.8550  -21.1972  -45.0899 H         1 UNK         0.3000 
    145 H145       -0.2148  -22.9148  -42.7422 H         1 UNK         0.0600 
    146 H146        1.8689  -22.6138  -41.4103 H         1 UNK         0.0600 
    147 H147        2.0277  -23.9475  -42.5426 H         1 UNK         0.0600 
    148 H148        2.8075  -22.4120  -42.8884 H         1 UNK         0.0600 
    149 H149        1.2541  -20.4299  -42.7230 H         1 UNK         0.3000 
    150 H150       -1.3825  -18.4050  -43.9908 H         1 UNK         0.0600 
    151 H151       -1.9747  -18.6008  -41.6036 H         1 UNK         0.0600 
    152 H152       -0.9411  -17.1993  -41.8279 H         1 UNK         0.0600 
    153 H153       -0.2816  -18.6807  -41.1410 H         1 UNK         0.0600 
    154 H154        1.3121  -17.9821  -42.9801 H         1 UNK         0.3000 
    155 H155        2.8762  -18.2289  -46.1697 H         1 UNK         0.0600 
    156 H156        1.9273  -15.9619  -46.4090 H         1 UNK         0.0600 
    157 H157        3.5531  -15.8570  -45.7587 H         1 UNK         0.0600 
    158 H158        2.1611  -15.6389  -44.6951 H         1 UNK         0.0600 
    159 H159        3.8384  -17.2421  -43.6803 H         1 UNK         0.3000 
    160 H160        4.2877  -20.2696  -41.9711 H         1 UNK         0.0600 
    161 H161        6.2066  -20.4829  -43.5649 H         1 UNK         0.0600 
    162 H162        6.7220  -19.8265  -42.0204 H         1 UNK         0.0600 
    163 H163        6.5322  -18.7602  -43.4134 H         1 UNK         0.0600 
    164 H164        5.4431  -17.8183  -41.3471 H         1 UNK         0.3000 
    165 H165        4.2650  -16.8899  -39.2667 H         1 UNK         0.0600 
    166 H166        4.2889  -14.5064  -40.1207 H         1 UNK         0.0600 
    167 H167        5.2007  -15.5638  -41.1807 H         1 UNK         0.0600 
    168 H168        3.5813  -15.0450  -41.6404 H         1 UNK         0.0600 
    169 H169        1.5242  -16.3432  -40.1882 H         1 UNK         0.3000 
    170 H170       -0.0606  -16.1685  -38.4549 H         1 UNK         0.0600 
    171 H171        0.5062  -16.1789  -36.0215 H         1 UNK         0.0600 
    172 H172        0.8299  -14.4498  -36.0762 H         1 UNK         0.0600 
    173 H173       -0.7979  -15.0569  -36.3752 H         1 UNK         0.0600 
    174 H174        0.2625  -13.2885  -38.1158 H         1 UNK         0.3000 
    175 H175       -0.9145  -12.0248  -39.8456 H         1 UNK         0.0600 
    176 H176        1.5532  -11.6762  -39.4836 H         1 UNK         0.0600 
    177 H177        1.8848  -12.2093  -41.1273 H         1 UNK         0.0600 
    178 H178        1.0005  -10.7116  -40.8412 H         1 UNK         0.0600 
    179 H179       -0.5662  -13.4425  -42.3283 H         1 UNK         0.3000 
    180 H180       -2.9637  -11.5457  -43.9742 H         1 UNK         0.0600 
    181 H181       -0.0372  -11.5489  -44.8933 H         1 UNK         0.0600 
    182 H182       -1.0595  -10.1239  -44.7436 H         1 UNK         0.0600 
    183 H183       -1.4472  -11.3554  -45.9349 H         1 UNK         0.0600 
    184 H184       -1.2269  -13.6942  -44.8297 H         1 UNK         0.3000 
    185 H185       -1.6727  -16.0331  -43.8183 H         1 UNK         0.0600 
    186 H186       -3.5781  -17.6772  -43.9834 H         1 UNK         0.0600 
    187 H187       -3.7137  -16.6582  -42.5603 H         1 UNK         0.0600 
    188 H188       -4.7226  -16.3427  -43.9673 H         1 UNK         0.0600 
    189 H189       -3.4686  -16.1671  -46.0928 H         1 UNK         0.3000 
    190 H190       -0.4290  -20.2449  -46.4545 H         1 UNK         0.3000 
    191 H191       -2.2513  -20.5691  -48.5592 H         1 UNK         0.0600 
    192 H192       -2.8377  -19.5094  -45.7393 H         1 UNK         0.0600 
    193 H193       -3.7581  -19.1687  -47.1951 H         1 UNK         0.0600 
    194 H194       -2.1171  -18.5630  -47.0277 H         1 UNK         0.0600 
    195 H195       -2.2990  -22.0265  -45.2744 H         1 UNK         0.3000 
    196 H196       -4.7381  -23.4479  -45.5526 H         1 UNK         0.0600 
    197 H197       -2.3070  -24.0510  -43.7868 H         1 UNK         0.0600 
    198 H198       -3.9167  -24.7285  -43.5795 H         1 UNK         0.0600 
    199 H199       -3.6588  -23.0033  -43.3648 H         1 UNK         0.0600 
    200 H200       -1.3605  -24.4274  -46.2734 H         1 UNK         0.3000 
    201 H201       -1.9455  -27.1038  -47.0586 H         1 UNK         0.0600 
    202 H202        0.3205  -26.3603  -46.3991 H         1 UNK         0.0600 
    203 H203        0.4093  -25.2843  -47.7911 H         1 UNK         0.0600 
    204 H204        0.3565  -27.0274  -48.0245 H         1 UNK         0.0600 
    205 H205       -1.6191  -24.0776  -48.9730 H         1 UNK         0.3000 
    206 H206       -2.1366  -25.2949  -51.5256 H         1 UNK         0.0600 
    207 H207       -2.3125  -22.3828  -50.5860 H         1 UNK         0.0600 
    208 H208       -2.3253  -22.9148  -52.2658 H         1 UNK         0.0600 
    209 H209       -0.8930  -23.1638  -51.2793 H         1 UNK         0.0600 
    210 H210       -4.2001  -24.0969  -49.0023 H         1 UNK         0.3000 
    211 H211       -6.3148  -24.1451  -48.5224 H         1 UNK         0.0600 
    212 H212       -6.8643  -25.7149  -51.0965 H         1 UNK         0.0600 
    213 H213       -7.9822  -25.4841  -49.7618 H         1 UNK         0.0600 
    214 H214       -6.5068  -26.4058  -49.5148 H         1 UNK         0.0600 
    215 H215       -6.0961  -23.5245  -52.0434 H         1 UNK         0.3000 
    216 H216       -8.0974  -21.3699  -51.9283 H         1 UNK         0.0600 
    217 H217       -7.7493  -21.2617  -54.3527 H         1 UNK         0.0600 
    218 H218       -7.9629  -22.9367  -53.8785 H         1 UNK         0.0600 
    219 H219       -6.3504  -22.3298  -54.2535 H         1 UNK         0.0600 
    220 H220       -4.5945  -21.7252  -52.2619 H         1 UNK         0.3000 
    221 H221       -2.8286  -20.4294  -52.0206 H         1 UNK         0.0600 
    222 H222       -4.5275  -18.2944  -50.6515 H         1 UNK         0.0600 
    223 H223       -4.0883  -19.7974  -49.8490 H         1 UNK         0.0600 
    224 H224       -2.8338  -18.6843  -50.3665 H         1 UNK         0.0600 
    225 H225       -2.1330  -17.8426  -52.1923 H         1 UNK         0.3000 
    226 H226       -1.5036  -16.2629  -53.6026 H         1 UNK         0.0600 
    227 H227       -3.7015  -15.3564  -52.9157 H         1 UNK         0.0600 
    228 H228       -3.3206  -14.8535  -54.5497 H         1 UNK         0.0600 
    229 H229       -4.4956  -16.1422  -54.2729 H         1 UNK         0.0600 
    230 H230       -3.5756  -16.2101  -56.2023 H         1 UNK         0.3000 
    231 H231       -1.5985  -17.3531  -58.0256 H         1 UNK         0.0600 
    232 H232       -3.1422  -16.4480  -59.7551 H         1 UNK         0.0600 
    233 H233       -2.7829  -15.2258  -58.5475 H         1 UNK         0.0600 
    234 H234       -4.3356  -16.0629  -58.5211 H         1 UNK         0.0600 
    235 H235       -4.1764  -18.7154  -56.2375 H         1 UNK         0.3000 
    236 H236       -5.0198  -20.6183  -58.3512 H         1 UNK         0.0600 
    237 H237       -6.9147  -21.0453  -56.8179 H         1 UNK         0.0600 
    238 H238       -6.2263  -19.9501  -55.6248 H         1 UNK         0.0600 
    239 H239       -6.7811  -19.3332  -57.1772 H         1 UNK         0.0600 
    240 H240       -2.4796  -20.6064  -56.3531 H         1 UNK         0.3000 
    241 H241       -2.5252  -23.0723  -54.9705 H         1 UNK         0.0600 
    242 H242       -1.8498  -25.7279  -57.2352 H         1 UNK         0.3800 
    243 H243       -2.1180  -25.2568  -55.5821 H         1 UNK         0.3800 
    244 H244       -0.1910  -21.5675  -56.2617 H         1 UNK         0.0800 
    245 H245        0.0208  -22.9749  -55.2486 H         1 UNK         0.0800 
    246 H246        1.7401  -21.1494  -54.3315 H         1 UNK         0.0800 
    247 H247        1.0288  -19.6636  -54.9144 H         1 UNK         0.0800 
@<TRIPOS>BOND
     1    1    2 1    
     2    1  127 1    
     3    1  128 1    
     4    1  129 1    
     5    2    3 2    
     6    2    4 am   BACKBONE|DICT|INTERRES
     7    4    5 1    
     8    4  130 1    
     9    5    6 1    
    10    5   65 1    
    11    5  131 1    
    12    6    7 1    
    13    6  132 1    
    14    6  133 1    
    15    7    8 1    
    16    8    9 1    
    17    8  134 1    
    18    8  135 1    
    19    9   10 ar   
    20    9   14 ar   
    21   10   11 ar   
    22   10  136 1    
    23   11   12 ar   
    24   11  126 1    
    25   12   13 ar   
    26   12  137 1    
    27   13   14 ar   
    28   13   15 1    
    29   14  138 1    
    30   15   16 1    
    31   15  139 1    
    32   15  140 1    
    33   16   17 1    
    34   17   18 1    
    35   17  141 1    
    36   17  142 1    
    37   18   19 1    
    38   18   67 1    
    39   18  143 1    
    40   19   20 am   BACKBONE|DICT|INTERRES
    41   19  144 1    
    42   20   21 2    
    43   20   22 1    
    44   22   23 1    
    45   22   24 1    
    46   22  145 1    
    47   23  146 1    
    48   23  147 1    
    49   23  148 1    
    50   24   25 am   BACKBONE|DICT|INTERRES
    51   24  149 1    
    52   25   26 2    
    53   25   27 1    
    54   27   28 1    
    55   27   29 1    
    56   27  150 1    
    57   28  151 1    
    58   28  152 1    
    59   28  153 1    
    60   29   30 am   BACKBONE|DICT|INTERRES
    61   29  154 1    
    62   30   31 2    
    63   30   32 1    
    64   32   33 1    
    65   32   34 1    
    66   32  155 1    
    67   33  156 1    
    68   33  157 1    
    69   33  158 1    
    70   34   35 am   BACKBONE|DICT|INTERRES
    71   34  159 1    
    72   35   36 2    
    73   35   37 1    
    74   37   38 1    
    75   37   39 1    
    76   37  160 1    
    77   38  161 1    
    78   38  162 1    
    79   38  163 1    
    80   39   40 am   BACKBONE|DICT|INTERRES
    81   39  164 1    
    82   40   41 2    
    83   40   42 1    
    84   42   43 1    
    85   42   44 1    
    86   42  165 1    
    87   43  166 1    
    88   43  167 1    
    89   43  168 1    
    90   44   45 am   BACKBONE|DICT|INTERRES
    91   44  169 1    
    92   45   46 2    
    93   45   47 1    
    94   47   48 1    
    95   47   49 1    
    96   47  170 1    
    97   48  171 1    
    98   48  172 1    
    99   48  173 1    
   100   49   50 am   BACKBONE|DICT|INTERRES
   101   49  174 1    
   102   50   51 2    
   103   50   52 1    
   104   52   53 1    
   105   52   54 1    
   106   52  175 1    
   107   53  176 1    
   108   53  177 1    
   109   53  178 1    
   110   54   55 am   BACKBONE|DICT|INTERRES
   111   54  179 1    
   112   55   56 2    
   113   55   57 1    
   114   57   58 1    
   115   57   59 1    
   116   57  180 1    
   117   58  181 1    
   118   58  182 1    
   119   58  183 1    
   120   59   60 am   BACKBONE|DICT|INTERRES
   121   59  184 1    
   122   60   61 2    
   123   60   62 1    
   124   62   63 1    
   125   62   64 1    
   126   62  185 1    
   127   63  186 1    
   128   63  187 1    
   129   63  188 1    
   130   64   65 am   BACKBONE|DICT|INTERRES
   131   64  189 1    
   132   65   66 2    
   133   67   68 2    
   134   67   69 am   BACKBONE|DICT|INTERRES
   135   69   70 1    
   136   69  190 1    
   137   70   71 1    
   138   70   72 1    
   139   70  191 1    
   140   71  192 1    
   141   71  193 1    
   142   71  194 1    
   143   72   73 2    
   144   72   74 am   BACKBONE|DICT|INTERRES
   145   74   75 1    
   146   74  195 1    
   147   75   76 1    
   148   75   77 1    
   149   75  196 1    
   150   76  197 1    
   151   76  198 1    
   152   76  199 1    
   153   77   78 2    
   154   77   79 am   BACKBONE|DICT|INTERRES
   155   79   80 1    
   156   79  200 1    
   157   80   81 1    
   158   80   82 1    
   159   80  201 1    
   160   81  202 1    
   161   81  203 1    
   162   81  204 1    
   163   82   83 2    
   164   82   84 am   BACKBONE|DICT|INTERRES
   165   84   85 1    
   166   84  205 1    
   167   85   86 1    
   168   85   87 1    
   169   85  206 1    
   170   86  207 1    
   171   86  208 1    
   172   86  209 1    
   173   87   88 2    
   174   87   89 am   BACKBONE|DICT|INTERRES
   175   89   90 1    
   176   89  210 1    
   177   90   91 1    
   178   90   92 1    
   179   90  211 1    
   180   91  212 1    
   181   91  213 1    
   182   91  214 1    
   183   92   93 2    
   184   92   94 am   BACKBONE|DICT|INTERRES
   185   94   95 1    
   186   94  215 1    
   187   95   96 1    
   188   95   97 1    
   189   95  216 1    
   190   96  217 1    
   191   96  218 1    
   192   96  219 1    
   193   97   98 2    
   194   97   99 am   BACKBONE|DICT|INTERRES
   195   99  100 1    
   196   99  220 1    
   197  100  101 1    
   198  100  102 1    
   199  100  221 1    
   200  101  222 1    
   201  101  223 1    
   202  101  224 1    
   203  102  103 2    
   204  102  104 am   BACKBONE|DICT|INTERRES
   205  104  105 1    
   206  104  225 1    
   207  105  106 1    
   208  105  107 1    
   209  105  226 1    
   210  106  227 1    
   211  106  228 1    
   212  106  229 1    
   213  107  108 2    
   214  107  109 am   BACKBONE|DICT|INTERRES
   215  109  110 1    
   216  109  230 1    
   217  110  111 1    
   218  110  112 1    
   219  110  231 1    
   220  111  232 1    
   221  111  233 1    
   222  111  234 1    
   223  112  113 2    
   224  112  114 am   BACKBONE|DICT|INTERRES
   225  114  115 1    
   226  114  235 1    
   227  115  116 1    
   228  115  117 1    
   229  115  236 1    
   230  116  237 1    
   231  116  238 1    
   232  116  239 1    
   233  117  118 2    
   234  117  119 am   BACKBONE|DICT|INTERRES
   235  119  120 1    
   236  119  240 1    
   237  120  121 1    
   238  120  124 1    
   239  120  241 1    
   240  121  122 am   BACKBONE|DICT|INTERRES
   241  121  123 2    
   242  122  242 1    
   243  122  243 1    
   244  124  125 1    
   245  124  244 1    
   246  124  245 1    
   247  125  126 1    
   248  126  246 1    
   249  126  247 1    
@<TRIPOS>SUBSTRUCTURE
     1 UNK         1 GROUP             0       ****    0 ROOT    
