@<TRIPOS>MOLECULE
3R540
247   249    1
SMALL
USER_CHARGES


@<TRIPOS>ATOM
      1 CA          3.5430  -13.1744  -44.3555 C.3       0 UNK        -0.1800 
      2 C           3.1135  -13.1259  -45.8145 C.2       0 UNK         0.5000 
      3 O           1.9601  -12.8076  -46.0939 O.2       0 UNK        -0.5000 
      4 N           4.0463  -13.4188  -46.7333 N.am      1 UNK        -0.5000 
      5 CA          3.8680  -13.6067  -48.1854 C.3       1 UNK         0.1400 
      6 C6          5.1841  -14.0802  -48.8549 C.3       23 UNK        -0.0398 
      7 S7          5.7837  -15.6891  -48.2323 S.3       23 UNK        -0.2404 
      8 C8          5.6353  -16.7457  -49.7126 C.3       23 UNK        -0.0205 
      9 C9          4.2869  -17.4474  -49.7809 C.ar      23 UNK        -0.0193 
     10 C10         3.1407  -16.7578  -50.1886 C.ar      23 UNK        -0.1150 
     11 C11         1.8999  -17.4017  -50.2204 C.ar      23 UNK        -0.0193 
     12 C12         1.8131  -18.7487  -49.8562 C.ar      23 UNK        -0.1150 
     13 C13         2.9558  -19.4557  -49.4748 C.ar      23 UNK        -0.0193 
     14 C14         4.1881  -18.7985  -49.4360 C.ar      23 UNK        -0.1150 
     15 C15         2.8628  -20.9226  -49.0871 C.3       23 UNK        -0.0205 
     16 S16         2.8917  -21.1041  -47.2822 S.3       23 UNK        -0.2404 
     17 C17         2.7193  -22.9017  -47.0667 C.3       23 UNK        -0.0398 
     18 CA          1.3085  -23.3615  -46.6292 C.3       11 UNK         0.1400 
     19 N           0.7982  -22.6753  -45.4363 N.am      11 UNK        -0.5000 
     20 C          -0.1909  -23.1709  -44.6782 C.2       10 UNK         0.5000 
     21 O          -0.7374  -24.2530  -44.8987 O.2       10 UNK        -0.5000 
     22 CA         -0.6890  -22.2982  -43.5129 C.3       10 UNK         0.1400 
     23 CB          0.2986  -22.3221  -42.3367 C.3       10 UNK        -0.1800 
     24 N          -0.9548  -20.9148  -43.9069 N.am      10 UNK        -0.5000 
     25 C          -1.8733  -20.5414  -44.8099 C.2       9 UNK         0.5000 
     26 O          -2.5785  -21.3299  -45.4362 O.2       9 UNK        -0.5000 
     27 CA         -2.0158  -19.0340  -45.0674 C.3       9 UNK         0.1400 
     28 CB         -2.9266  -18.4024  -44.0029 C.3       9 UNK        -0.1800 
     29 N          -0.7065  -18.3799  -45.0856 N.am      9 UNK        -0.5000 
     30 C           0.1395  -18.4492  -46.1255 C.2       8 UNK         0.5000 
     31 O          -0.1648  -18.9554  -47.2037 O.2       8 UNK        -0.5000 
     32 CA          1.5646  -17.8953  -45.9313 C.3       8 UNK         0.1400 
     33 CB          1.7404  -16.5245  -46.5958 C.3       8 UNK        -0.1800 
     34 N           1.9618  -17.8206  -44.5261 N.am      8 UNK        -0.5000 
     35 C           2.2905  -18.8860  -43.7800 C.2       7 UNK         0.5000 
     36 O           2.3009  -20.0419  -44.2021 O.2       7 UNK        -0.5000 
     37 CA          2.6013  -18.6264  -42.2931 C.3       7 UNK         0.1400 
     38 CB          4.0880  -18.2910  -42.1035 C.3       7 UNK        -0.1800 
     39 N           1.7868  -17.5583  -41.7099 N.am      7 UNK        -0.5000 
     40 C           0.4495  -17.5743  -41.6343 C.2       6 UNK         0.5000 
     41 O          -0.2346  -18.5224  -42.0229 O.2       6 UNK        -0.5000 
     42 CA         -0.2535  -16.3123  -41.0882 C.3       6 UNK         0.1400 
     43 CB          0.7083  -15.2704  -40.4727 C.3       6 UNK        -0.1800 
     44 N          -1.1006  -15.6779  -42.1064 N.am      6 UNK        -0.5000 
     45 C          -0.7152  -15.2604  -43.3210 C.2       5 UNK         0.5000 
     46 O           0.4364  -15.3616  -43.7475 O.2       5 UNK        -0.5000 
     47 CA         -1.7927  -14.6037  -44.1949 C.3       5 UNK         0.1400 
     48 CB         -1.7390  -13.0753  -44.0476 C.3       5 UNK        -0.1800 
     49 N          -1.5683  -14.9444  -45.5975 N.am      5 UNK        -0.5000 
     50 C          -2.4809  -15.4599  -46.4303 C.2       4 UNK         0.5000 
     51 O          -3.6391  -15.7172  -46.1023 O.2       4 UNK        -0.5000 
     52 CA         -2.0394  -15.6340  -47.8961 C.3       4 UNK         0.1400 
     53 CB         -3.0018  -16.5025  -48.7235 C.3       4 UNK        -0.1800 
     54 N          -1.9463  -14.3039  -48.4968 N.am      4 UNK        -0.5000 
     55 C          -0.8356  -13.5622  -48.4559 C.2       3 UNK         0.5000 
     56 O           0.2575  -14.0243  -48.1271 O.2       3 UNK        -0.5000 
     57 CA         -0.9683  -12.0659  -48.7893 C.3       3 UNK         0.1400 
     58 CB         -2.0541  -11.3742  -47.9433 C.3       3 UNK        -0.1800 
     59 N           0.3194  -11.4419  -48.5196 N.am      3 UNK        -0.5000 
     60 C           0.8655  -10.4128  -49.1741 C.2       2 UNK         0.5000 
     61 O           0.2674   -9.7397  -50.0146 O.2       2 UNK        -0.5000 
     62 CA          2.3454  -10.1006  -48.8551 C.3       2 UNK         0.1400 
     63 CB          2.4480   -8.9353  -47.8593 C.3       2 UNK        -0.1800 
     64 N           3.0735  -11.2531  -48.3124 N.am      2 UNK        -0.5000 
     65 C           3.2934  -12.4006  -48.9696 C.2       1 UNK         0.5000 
     66 O           3.0452  -12.5368  -50.1688 O.2       1 UNK        -0.5000 
     67 C           0.2972  -23.3527  -47.7939 C.2       11 UNK         0.5000 
     68 O           0.2464  -24.3295  -48.5389 O.2       11 UNK        -0.5000 
     69 N          -0.5215  -22.2957  -47.9132 N.am      12 UNK        -0.5000 
     70 CA         -1.6197  -22.2279  -48.8798 C.3       12 UNK         0.1400 
     71 CB         -2.1970  -20.8096  -48.9289 C.3       12 UNK        -0.1800 
     72 C          -2.7263  -23.2551  -48.5859 C.2       12 UNK         0.5000 
     73 O          -3.2181  -23.9002  -49.5115 O.2       12 UNK        -0.5000 
     74 N          -3.0761  -23.4214  -47.3038 N.am      13 UNK        -0.5000 
     75 CA         -4.0017  -24.4477  -46.8275 C.3       13 UNK         0.1400 
     76 CB         -4.3182  -24.2178  -45.3429 C.3       13 UNK        -0.1800 
     77 C          -3.4729  -25.8715  -47.0772 C.2       13 UNK         0.5000 
     78 O          -4.2254  -26.7141  -47.5662 O.2       13 UNK        -0.5000 
     79 N          -2.1789  -26.0973  -46.8038 N.am      14 UNK        -0.5000 
     80 CA         -1.4784  -27.3565  -47.0793 C.3       14 UNK         0.1400 
     81 CB         -0.0738  -27.3093  -46.4605 C.3       14 UNK        -0.1800 
     82 C          -1.4007  -27.6944  -48.5828 C.2       14 UNK         0.5000 
     83 O          -1.5157  -28.8640  -48.9498 O.2       14 UNK        -0.5000 
     84 N          -1.2491  -26.6634  -49.4252 N.am      15 UNK        -0.5000 
     85 CA         -1.2670  -26.7470  -50.8882 C.3       15 UNK         0.1400 
     86 CB         -0.5825  -25.4952  -51.4627 C.3       15 UNK        -0.1800 
     87 C          -2.6808  -26.9111  -51.4879 C.2       15 UNK         0.5000 
     88 O          -2.7960  -27.0656  -52.7043 O.2       15 UNK        -0.5000 
     89 N          -3.7220  -26.8621  -50.6428 N.am      16 UNK        -0.5000 
     90 CA         -5.1490  -26.9478  -50.9699 C.3       16 UNK         0.1400 
     91 CB         -5.4975  -28.2937  -51.6399 C.3       16 UNK        -0.1800 
     92 C          -5.6824  -25.7257  -51.7484 C.2       16 UNK         0.5000 
     93 O          -6.7110  -25.8279  -52.4188 O.2       16 UNK        -0.5000 
     94 N          -5.0082  -24.5758  -51.6070 N.am      17 UNK        -0.5000 
     95 CA         -5.4641  -23.2714  -52.0941 C.3       17 UNK         0.1400 
     96 CB         -4.2399  -22.4045  -52.4264 C.3       17 UNK        -0.1800 
     97 C          -6.3793  -22.5654  -51.0714 C.2       17 UNK         0.5000 
     98 O          -6.9673  -21.5328  -51.3954 O.2       17 UNK        -0.5000 
     99 N          -6.4721  -23.1221  -49.8509 N.am      18 UNK        -0.5000 
    100 CA        -7.3690  -22.7473  -48.7467 C.3       18 UNK         0.1400 
    101 CB        -8.8321  -23.0425  -49.1355 C.3       18 UNK        -0.1800 
    102 C         -7.1863  -21.3032  -48.2321 C.2       18 UNK         0.5000 
    103 O         -8.0925  -20.7609  -47.5985 O.2       18 UNK        -0.5000 
    104 N         -6.0266  -20.7042  -48.5379 N.am      19 UNK        -0.5000 
    105 CA        -5.6612  -19.3027  -48.3135 C.3       19 UNK         0.1400 
    106 CB        -5.5744  -18.9837  -46.8073 C.3       19 UNK        -0.1800 
    107 C         -6.5275  -18.2943  -49.1037 C.2       19 UNK         0.5000 
    108 O         -6.5317  -17.1078  -48.7748 O.2       19 UNK        -0.5000 
    109 N         -7.2120  -18.7610  -50.1601 N.am      20 UNK        -0.5000 
    110 CA        -7.8873  -17.9105  -51.1457 C.3       20 UNK         0.1400 
    111 CB        -8.9891  -18.7246  -51.8407 C.3       20 UNK        -0.1800 
    112 C         -6.8895  -17.3502  -52.1798 C.2       20 UNK         0.5000 
    113 O         -7.1450  -16.3092  -52.7856 O.2       20 UNK        -0.5000 
    114 N         -5.7638  -18.0505  -52.3367 N.am      21 UNK        -0.5000 
    115 CA        -4.5860  -17.7056  -53.1158 C.3       21 UNK         0.1400 
    116 CB        -4.7893  -18.1380  -54.5790 C.3       21 UNK        -0.1800 
    117 C         -3.3978  -18.4330  -52.4647 C.2       21 UNK         0.5000 
    118 O         -3.6021  -19.2191  -51.5346 O.2       21 UNK        -0.5000 
    119 N         -2.1826  -18.1686  -52.9534 N.am      22 UNK        -0.5000 
    120 CA        -0.9657  -18.8881  -52.5456 C.3       22 UNK         0.1400 
    121 C         -0.9424  -20.3613  -53.0462 C.2       22 UNK         0.5000 
    122 N         -0.2576  -21.2521  -52.3412 N.am      22 UNK        -0.7600 
    123 O         -1.4957  -20.6953  -54.0915 O.2       22 UNK        -0.5000 
    124 C124        0.3234  -18.1506  -52.9896 C.3       23 UNK        -0.0398 
    125 S125        0.4411  -16.4272  -52.3958 S.3       23 UNK        -0.2404 
    126 C126        0.6449  -16.6292  -50.5968 C.3       23 UNK        -0.0205 
    127 H127        3.4208  -12.1941  -43.8951 H         1 UNK         0.0600 
    128 H128        4.5849  -13.4765  -44.2473 H         1 UNK         0.0600 
    129 H129        2.9237  -13.8872  -43.8103 H         1 UNK         0.0600 
    130 H130        4.9741  -13.6457  -46.4049 H         1 UNK         0.3000 
    131 H131        3.1281  -14.4008  -48.3011 H         1 UNK         0.0600 
    132 H132        5.9718  -13.3424  -48.6935 H         1 UNK         0.0800 
    133 H133        5.0683  -14.1490  -49.9374 H         1 UNK         0.0800 
    134 H134        6.4363  -17.4858  -49.6802 H         1 UNK         0.0800 
    135 H135        5.8062  -16.1709  -50.6235 H         1 UNK         0.0800 
    136 H136        3.2070  -15.7146  -50.4629 H         1 UNK         0.1150 
    137 H137        0.8529  -19.2432  -49.8506 H         1 UNK         0.1150 
    138 H138        5.0692  -19.3405  -49.1222 H         1 UNK         0.1150 
    139 H139        1.9494  -21.3664  -49.4848 H         1 UNK         0.0800 
    140 H140        3.6966  -21.4735  -49.5248 H         1 UNK         0.0800 
    141 H141        3.4381  -23.1988  -46.3021 H         1 UNK         0.0800 
    142 H142        3.0349  -23.4185  -47.9750 H         1 UNK         0.0800 
    143 H143        1.4223  -24.4118  -46.3531 H         1 UNK         0.0600 
    144 H144        1.2167  -21.7817  -45.2021 H         1 UNK         0.3000 
    145 H145       -1.6328  -22.7239  -43.1659 H         1 UNK         0.0600 
    146 H146       -0.0799  -21.7457  -41.4922 H         1 UNK         0.0600 
    147 H147        0.4623  -23.3423  -41.9876 H         1 UNK         0.0600 
    148 H148        1.2698  -21.9116  -42.6123 H         1 UNK         0.0600 
    149 H149       -0.4421  -20.1938  -43.4141 H         1 UNK         0.3000 
    150 H150       -2.4917  -18.8928  -46.0400 H         1 UNK         0.0600 
    151 H151       -3.9387  -18.8010  -44.0799 H         1 UNK         0.0600 
    152 H152       -2.9979  -17.3248  -44.1219 H         1 UNK         0.0600 
    153 H153       -2.5818  -18.6025  -42.9895 H         1 UNK         0.0600 
    154 H154       -0.3735  -17.9954  -44.2116 H         1 UNK         0.3000 
    155 H155        2.2481  -18.5719  -46.4399 H         1 UNK         0.0600 
    156 H156        1.4427  -16.5582  -47.6423 H         1 UNK         0.0600 
    157 H157        2.7832  -16.2095  -46.5688 H         1 UNK         0.0600 
    158 H158        1.1441  -15.7497  -46.1209 H         1 UNK         0.0600 
    159 H159        1.8853  -16.9103  -44.0866 H         1 UNK         0.3000 
    160 H160        2.3849  -19.5464  -41.7459 H         1 UNK         0.0600 
    161 H161        4.3582  -17.3611  -42.6057 H         1 UNK         0.0600 
    162 H162        4.7207  -19.0803  -42.5116 H         1 UNK         0.0600 
    163 H163        4.3384  -18.1886  -41.0475 H         1 UNK         0.0600 
    164 H164        2.2765  -16.7335  -41.3952 H         1 UNK         0.3000 
    165 H165       -0.9197  -16.6567  -40.2960 H         1 UNK         0.0600 
    166 H166        0.1511  -14.4402  -40.0385 H         1 UNK         0.0600 
    167 H167        1.3036  -15.7073  -39.6699 H         1 UNK         0.0600 
    168 H168        1.3940  -14.8516  -41.2103 H         1 UNK         0.0600 
    169 H169       -2.0715  -15.5715  -41.8481 H         1 UNK         0.3000 
    170 H170       -2.7723  -14.9526  -43.8630 H         1 UNK         0.0600 
    171 H171       -1.8808  -12.7751  -43.0086 H         1 UNK         0.0600 
    172 H172       -0.7801  -12.6736  -44.3796 H         1 UNK         0.0600 
    173 H173       -2.5232  -12.5970  -44.6344 H         1 UNK         0.0600 
    174 H174       -0.6322  -14.7613  -45.9391 H         1 UNK         0.3000 
    175 H175       -1.0688  -16.1341  -47.8994 H         1 UNK         0.0600 
    176 H176       -4.0073  -16.0822  -48.7516 H         1 UNK         0.0600 
    177 H177       -2.6559  -16.6089  -49.7517 H         1 UNK         0.0600 
    178 H178       -3.0689  -17.5044  -48.2997 H         1 UNK         0.0600 
    179 H179       -2.8203  -13.8690  -48.7550 H         1 UNK         0.3000 
    180 H180       -1.2088  -11.9773  -49.8506 H         1 UNK         0.0600 
    181 H181       -2.0903  -10.3041  -48.1483 H         1 UNK         0.0600 
    182 H182       -1.8694  -11.5022  -46.8760 H         1 UNK         0.0600 
    183 H183       -3.0452  -11.7741  -48.1586 H         1 UNK         0.0600 
    184 H184        0.9012  -11.9769  -47.8796 H         1 UNK         0.3000 
    185 H185        2.8286   -9.8027  -49.7877 H         1 UNK         0.0600 
    186 H186        1.9382   -8.0496  -48.2407 H         1 UNK         0.0600 
    187 H187        1.9954   -9.1872  -46.8993 H         1 UNK         0.0600 
    188 H188        3.4872   -8.6592  -47.6799 H         1 UNK         0.0600 
    189 H189        3.2661  -11.2404  -47.3211 H         1 UNK         0.3000 
    190 H190       -0.4214  -21.5166  -47.2771 H         1 UNK         0.3000 
    191 H191       -1.2167  -22.4590  -49.8673 H         1 UNK         0.0600 
    192 H192       -1.4604  -20.0928  -49.2897 H         1 UNK         0.0600 
    193 H193       -3.0473  -20.7695  -49.6069 H         1 UNK         0.0600 
    194 H194       -2.5426  -20.4738  -47.9524 H         1 UNK         0.0600 
    195 H195       -2.6833  -22.7999  -46.6007 H         1 UNK         0.3000 
    196 H196       -4.9315  -24.3410  -47.3880 H         1 UNK         0.0600 
    197 H197       -5.0248  -24.9621  -44.9739 H         1 UNK         0.0600 
    198 H198       -4.7660  -23.2363  -45.1852 H         1 UNK         0.0600 
    199 H199       -3.4231  -24.2780  -44.7238 H         1 UNK         0.0600 
    200 H200       -1.6398  -25.3602  -46.3606 H         1 UNK         0.3000 
    201 H201       -2.0369  -28.1569  -46.5895 H         1 UNK         0.0600 
    202 H202       -0.1175  -27.0907  -45.3933 H         1 UNK         0.0600 
    203 H203        0.5484  -26.5508  -46.9342 H         1 UNK         0.0600 
    204 H204        0.4344  -28.2673  -46.5768 H         1 UNK         0.0600 
    205 H205       -1.0790  -25.7419  -49.0348 H         1 UNK         0.3000 
    206 H206       -0.6854  -27.6200  -51.1906 H         1 UNK         0.0600 
    207 H207        0.4382  -25.3984  -51.0925 H         1 UNK         0.0600 
    208 H208       -0.5275  -25.5397  -52.5511 H         1 UNK         0.0600 
    209 H209       -1.1231  -24.5861  -51.1989 H         1 UNK         0.0600 
    210 H210       -3.5187  -26.7197  -49.6611 H         1 UNK         0.3000 
    211 H211       -5.6665  -26.9274  -50.0099 H         1 UNK         0.0600 
    212 H212       -5.0998  -28.3605  -52.6527 H         1 UNK         0.0600 
    213 H213       -6.5777  -28.4280  -51.7069 H         1 UNK         0.0600 
    214 H214       -5.1032  -29.1330  -51.0670 H         1 UNK         0.0600 
    215 H215       -4.1894  -24.5595  -51.0035 H         1 UNK         0.3000 
    216 H216       -6.0402  -23.4058  -53.0117 H         1 UNK         0.0600 
    217 H217       -4.5440  -21.4562  -52.8709 H         1 UNK         0.0600 
    218 H218       -3.5858  -22.9004  -53.1436 H         1 UNK         0.0600 
    219 H219       -3.6481  -22.1742  -51.5410 H         1 UNK         0.0600 
    220 H220       -5.8981  -23.9364  -49.6869 H         1 UNK         0.3000 
    221 H221       -7.1145  -23.3974  -47.9091 H         1 UNK         0.0600 
    222 H222       -9.1809  -22.3781  -49.9270 H         1 UNK         0.0600 
    223 H223       -8.9480  -24.0687  -49.4844 H         1 UNK         0.0600 
    224 H224       -9.5007  -22.9152  -48.2833 H         1 UNK         0.0600 
    225 H225       -5.3678  -21.2440  -49.0794 H         1 UNK         0.3000 
    226 H226       -4.6580  -19.1956  -48.7243 H         1 UNK         0.0600 
    227 H227       -4.9563  -19.7150  -46.2865 H         1 UNK         0.0600 
    228 H228       -5.1272  -18.0033  -46.6402 H         1 UNK         0.0600 
    229 H229       -6.5570  -18.9770  -46.3358 H         1 UNK         0.0600 
    230 H230       -7.1656  -19.7508  -50.3806 H         1 UNK         0.3000 
    231 H231       -8.3559  -17.0666  -50.6352 H         1 UNK         0.0600 
    232 H232       -8.5776  -19.5656  -52.4000 H         1 UNK         0.0600 
    233 H233       -9.5461  -18.1045  -52.5441 H         1 UNK         0.0600 
    234 H234       -9.7031  -19.1199  -51.1179 H         1 UNK         0.0600 
    235 H235       -5.6181  -18.8660  -51.7538 H         1 UNK         0.3000 
    236 H236       -4.4104  -16.6295  -53.0595 H         1 UNK         0.0600 
    237 H237       -5.6612  -17.6523  -55.0174 H         1 UNK         0.0600 
    238 H238       -3.9287  -17.8718  -55.1933 H         1 UNK         0.0600 
    239 H239       -4.9310  -19.2166  -54.6604 H         1 UNK         0.0600 
    240 H240       -2.0821  -17.5216  -53.7210 H         1 UNK         0.3000 
    241 H241       -0.9712  -18.9286  -51.4557 H         1 UNK         0.0600 
    242 H242        0.2439  -21.0014  -51.5068 H         1 UNK         0.3800 
    243 H243       -0.2168  -22.1999  -52.6802 H         1 UNK         0.3800 
    244 H244        1.2130  -18.6895  -52.6601 H         1 UNK         0.0800 
    245 H245        0.3817  -18.1263  -54.0791 H         1 UNK         0.0800 
    246 H246        0.6932  -15.6375  -50.1480 H         1 UNK         0.0800 
    247 H247       -0.2404  -17.1046  -50.1737 H         1 UNK         0.0800 
@<TRIPOS>BOND
     1    1    2 1    
     2    1  127 1    
     3    1  128 1    
     4    1  129 1    
     5    2    3 2    
     6    2    4 am   BACKBONE|DICT|INTERRES
     7    4    5 1    
     8    4  130 1    
     9    5    6 1    
    10    5   65 1    
    11    5  131 1    
    12    6    7 1    
    13    6  132 1    
    14    6  133 1    
    15    7    8 1    
    16    8    9 1    
    17    8  134 1    
    18    8  135 1    
    19    9   10 ar   
    20    9   14 ar   
    21   10   11 ar   
    22   10  136 1    
    23   11   12 ar   
    24   11  126 1    
    25   12   13 ar   
    26   12  137 1    
    27   13   14 ar   
    28   13   15 1    
    29   14  138 1    
    30   15   16 1    
    31   15  139 1    
    32   15  140 1    
    33   16   17 1    
    34   17   18 1    
    35   17  141 1    
    36   17  142 1    
    37   18   19 1    
    38   18   67 1    
    39   18  143 1    
    40   19   20 am   BACKBONE|DICT|INTERRES
    41   19  144 1    
    42   20   21 2    
    43   20   22 1    
    44   22   23 1    
    45   22   24 1    
    46   22  145 1    
    47   23  146 1    
    48   23  147 1    
    49   23  148 1    
    50   24   25 am   BACKBONE|DICT|INTERRES
    51   24  149 1    
    52   25   26 2    
    53   25   27 1    
    54   27   28 1    
    55   27   29 1    
    56   27  150 1    
    57   28  151 1    
    58   28  152 1    
    59   28  153 1    
    60   29   30 am   BACKBONE|DICT|INTERRES
    61   29  154 1    
    62   30   31 2    
    63   30   32 1    
    64   32   33 1    
    65   32   34 1    
    66   32  155 1    
    67   33  156 1    
    68   33  157 1    
    69   33  158 1    
    70   34   35 am   BACKBONE|DICT|INTERRES
    71   34  159 1    
    72   35   36 2    
    73   35   37 1    
    74   37   38 1    
    75   37   39 1    
    76   37  160 1    
    77   38  161 1    
    78   38  162 1    
    79   38  163 1    
    80   39   40 am   BACKBONE|DICT|INTERRES
    81   39  164 1    
    82   40   41 2    
    83   40   42 1    
    84   42   43 1    
    85   42   44 1    
    86   42  165 1    
    87   43  166 1    
    88   43  167 1    
    89   43  168 1    
    90   44   45 am   BACKBONE|DICT|INTERRES
    91   44  169 1    
    92   45   46 2    
    93   45   47 1    
    94   47   48 1    
    95   47   49 1    
    96   47  170 1    
    97   48  171 1    
    98   48  172 1    
    99   48  173 1    
   100   49   50 am   BACKBONE|DICT|INTERRES
   101   49  174 1    
   102   50   51 2    
   103   50   52 1    
   104   52   53 1    
   105   52   54 1    
   106   52  175 1    
   107   53  176 1    
   108   53  177 1    
   109   53  178 1    
   110   54   55 am   BACKBONE|DICT|INTERRES
   111   54  179 1    
   112   55   56 2    
   113   55   57 1    
   114   57   58 1    
   115   57   59 1    
   116   57  180 1    
   117   58  181 1    
   118   58  182 1    
   119   58  183 1    
   120   59   60 am   BACKBONE|DICT|INTERRES
   121   59  184 1    
   122   60   61 2    
   123   60   62 1    
   124   62   63 1    
   125   62   64 1    
   126   62  185 1    
   127   63  186 1    
   128   63  187 1    
   129   63  188 1    
   130   64   65 am   BACKBONE|DICT|INTERRES
   131   64  189 1    
   132   65   66 2    
   133   67   68 2    
   134   67   69 am   BACKBONE|DICT|INTERRES
   135   69   70 1    
   136   69  190 1    
   137   70   71 1    
   138   70   72 1    
   139   70  191 1    
   140   71  192 1    
   141   71  193 1    
   142   71  194 1    
   143   72   73 2    
   144   72   74 am   BACKBONE|DICT|INTERRES
   145   74   75 1    
   146   74  195 1    
   147   75   76 1    
   148   75   77 1    
   149   75  196 1    
   150   76  197 1    
   151   76  198 1    
   152   76  199 1    
   153   77   78 2    
   154   77   79 am   BACKBONE|DICT|INTERRES
   155   79   80 1    
   156   79  200 1    
   157   80   81 1    
   158   80   82 1    
   159   80  201 1    
   160   81  202 1    
   161   81  203 1    
   162   81  204 1    
   163   82   83 2    
   164   82   84 am   BACKBONE|DICT|INTERRES
   165   84   85 1    
   166   84  205 1    
   167   85   86 1    
   168   85   87 1    
   169   85  206 1    
   170   86  207 1    
   171   86  208 1    
   172   86  209 1    
   173   87   88 2    
   174   87   89 am   BACKBONE|DICT|INTERRES
   175   89   90 1    
   176   89  210 1    
   177   90   91 1    
   178   90   92 1    
   179   90  211 1    
   180   91  212 1    
   181   91  213 1    
   182   91  214 1    
   183   92   93 2    
   184   92   94 am   BACKBONE|DICT|INTERRES
   185   94   95 1    
   186   94  215 1    
   187   95   96 1    
   188   95   97 1    
   189   95  216 1    
   190   96  217 1    
   191   96  218 1    
   192   96  219 1    
   193   97   98 2    
   194   97   99 am   BACKBONE|DICT|INTERRES
   195   99  100 1    
   196   99  220 1    
   197  100  101 1    
   198  100  102 1    
   199  100  221 1    
   200  101  222 1    
   201  101  223 1    
   202  101  224 1    
   203  102  103 2    
   204  102  104 am   BACKBONE|DICT|INTERRES
   205  104  105 1    
   206  104  225 1    
   207  105  106 1    
   208  105  107 1    
   209  105  226 1    
   210  106  227 1    
   211  106  228 1    
   212  106  229 1    
   213  107  108 2    
   214  107  109 am   BACKBONE|DICT|INTERRES
   215  109  110 1    
   216  109  230 1    
   217  110  111 1    
   218  110  112 1    
   219  110  231 1    
   220  111  232 1    
   221  111  233 1    
   222  111  234 1    
   223  112  113 2    
   224  112  114 am   BACKBONE|DICT|INTERRES
   225  114  115 1    
   226  114  235 1    
   227  115  116 1    
   228  115  117 1    
   229  115  236 1    
   230  116  237 1    
   231  116  238 1    
   232  116  239 1    
   233  117  118 2    
   234  117  119 am   BACKBONE|DICT|INTERRES
   235  119  120 1    
   236  119  240 1    
   237  120  121 1    
   238  120  124 1    
   239  120  241 1    
   240  121  122 am   BACKBONE|DICT|INTERRES
   241  121  123 2    
   242  122  242 1    
   243  122  243 1    
   244  124  125 1    
   245  124  244 1    
   246  124  245 1    
   247  125  126 1    
   248  126  246 1    
   249  126  247 1    
@<TRIPOS>SUBSTRUCTURE
     1 UNK         1 GROUP             0       ****    0 ROOT    
