@<TRIPOS>MOLECULE
3R540
247   249    1
SMALL
USER_CHARGES


@<TRIPOS>ATOM
      1 CA         -2.4665  -10.5936  -48.9719 C.3       0 UNK        -0.1800 
      2 C          -2.3864  -12.0911  -49.2322 C.2       0 UNK         0.5000 
      3 O          -1.2955  -12.6163  -49.4523 O.2       0 UNK        -0.5000 
      4 N          -3.5379  -12.7762  -49.2050 N.am      1 UNK        -0.5000 
      5 CA         -3.6748  -14.2189  -49.4288 C.3       1 UNK         0.1400 
      6 C6         -5.1656  -14.6231  -49.5728 C.3       23 UNK        -0.0398 
      7 S7         -5.4446  -16.4076  -49.8558 S.3       23 UNK        -0.2404 
      8 C8         -6.5800  -16.8413  -48.4994 C.3       23 UNK        -0.0205 
      9 C9         -6.2659  -18.2189  -47.9419 C.ar      23 UNK        -0.0193 
     10 C10        -6.5575  -19.3647  -48.6878 C.ar      23 UNK        -0.1150 
     11 C11        -6.2541  -20.6331  -48.1860 C.ar      23 UNK        -0.0193 
     12 C12        -5.6657  -20.7483  -46.9229 C.ar      23 UNK        -0.1150 
     13 C13        -5.3677  -19.6103  -46.1665 C.ar      23 UNK        -0.0193 
     14 C14        -5.6755  -18.3482  -46.6811 C.ar      23 UNK        -0.1150 
     15 C15        -4.7077  -19.7400  -44.8006 C.3       23 UNK        -0.0205 
     16 S16        -2.9452  -19.2908  -44.8831 S.3       23 UNK        -0.2404 
     17 C17        -2.1554  -20.5235  -43.7968 C.3       23 UNK        -0.0398 
     18 CA         -1.5232  -21.7073  -44.5834 C.3       11 UNK         0.1400 
     19 N          -0.1910  -22.0548  -44.0707 N.am      11 UNK        -0.5000 
     20 C           0.7064  -22.8181  -44.7161 C.2       10 UNK         0.5000 
     21 O           0.5070  -23.2956  -45.8309 O.2       10 UNK        -0.5000 
     22 CA          2.0298  -23.1458  -43.9948 C.3       10 UNK         0.1400 
     23 CB          3.1487  -22.2200  -44.4963 C.3       10 UNK        -0.1800 
     24 N           1.9545  -23.0509  -42.5363 N.am      10 UNK        -0.5000 
     25 C           1.1258  -23.7468  -41.7435 C.2       9 UNK         0.5000 
     26 O           0.3795  -24.6355  -42.1530 O.2       9 UNK        -0.5000 
     27 CA          1.0701  -23.3294  -40.2581 C.3       9 UNK         0.1400 
     28 CB          1.9284  -24.2736  -39.4032 C.3       9 UNK        -0.1800 
     29 N           1.4883  -21.9428  -40.0085 N.am      9 UNK        -0.5000 
     30 C           0.9320  -20.8529  -40.5579 C.2       8 UNK         0.5000 
     31 O          -0.0327  -20.9048  -41.3245 O.2       8 UNK        -0.5000 
     32 CA          1.6028  -19.5049  -40.2350 C.3       8 UNK         0.1400 
     33 CB          3.1200  -19.5498  -40.4982 C.3       8 UNK        -0.1800 
     34 N           1.0412  -18.4311  -41.0495 N.am      8 UNK        -0.5000 
     35 C           0.0220  -17.6352  -40.6993 C.2       7 UNK         0.5000 
     36 O          -0.5922  -17.7481  -39.6365 O.2       7 UNK        -0.5000 
     37 CA         -0.3633  -16.5165  -41.6991 C.3       7 UNK         0.1400 
     38 CB         -0.9823  -15.2821  -41.0138 C.3       7 UNK        -0.1800 
     39 N           0.7362  -16.1137  -42.5840 N.am      7 UNK        -0.5000 
     40 C           1.9573  -15.6753  -42.2362 C.2       6 UNK         0.5000 
     41 O           2.2761  -15.3912  -41.0805 O.2       6 UNK        -0.5000 
     42 CA          3.0112  -15.5709  -43.3630 C.3       6 UNK         0.1400 
     43 CB          4.4249  -15.9445  -42.8716 C.3       6 UNK        -0.1800 
     44 N           2.6791  -16.3346  -44.5742 N.am      6 UNK        -0.5000 
     45 C           2.4653  -17.6567  -44.6907 C.2       5 UNK         0.5000 
     46 O           2.5465  -18.4414  -43.7444 O.2       5 UNK        -0.5000 
     47 CA          2.0265  -18.1843  -46.0742 C.3       5 UNK         0.1400 
     48 CB          0.7806  -19.0733  -45.9431 C.3       5 UNK        -0.1800 
     49 N           1.7076  -17.0922  -46.9928 N.am      5 UNK        -0.5000 
     50 C           2.5043  -16.6266  -47.9639 C.2       4 UNK         0.5000 
     51 O           3.5899  -17.1260  -48.2591 O.2       4 UNK        -0.5000 
     52 CA          2.0260  -15.3557  -48.6995 C.3       4 UNK         0.1400 
     53 CB          1.3158  -15.7283  -50.0069 C.3       4 UNK        -0.1800 
     54 N           1.1326  -14.5233  -47.8857 N.am      4 UNK        -0.5000 
     55 C           1.5101  -13.8758  -46.7730 C.2       3 UNK         0.5000 
     56 O           2.6679  -13.8663  -46.3560 O.2       3 UNK        -0.5000 
     57 CA          0.4133  -13.1852  -45.9409 C.3       3 UNK         0.1400 
     58 CB          0.3197  -11.6954  -46.2994 C.3       3 UNK        -0.1800 
     59 N          -0.9058  -13.8068  -46.0750 N.am      3 UNK        -0.5000 
     60 C          -1.2133  -15.0571  -45.6987 C.2       2 UNK         0.5000 
     61 O          -0.4012  -15.8395  -45.2059 O.2       2 UNK        -0.5000 
     62 CA         -2.6598  -15.5227  -45.9450 C.3       2 UNK         0.1400 
     63 CB         -3.5088  -15.3127  -44.6829 C.3       2 UNK        -0.1800 
     64 N          -3.2955  -14.8507  -47.0820 N.am      2 UNK        -0.5000 
     65 C          -2.9121  -15.0243  -48.3551 C.2       1 UNK         0.5000 
     66 O          -1.9634  -15.7362  -48.6896 O.2       1 UNK        -0.5000 
     67 C          -2.4729  -22.9285  -44.6632 C.2       11 UNK         0.5000 
     68 O          -3.5025  -22.8514  -45.3294 O.2       11 UNK        -0.5000 
     69 N          -2.1147  -24.0503  -44.0169 N.am      12 UNK        -0.5000 
     70 CA         -2.7895  -25.3404  -44.1830 C.3       12 UNK         0.1400 
     71 CB         -2.3808  -26.2735  -43.0331 C.3       12 UNK        -0.1800 
     72 C          -2.4947  -26.0030  -45.5473 C.2       12 UNK         0.5000 
     73 O          -3.2347  -26.9020  -45.9495 O.2       12 UNK        -0.5000 
     74 N          -1.4294  -25.5590  -46.2264 N.am      13 UNK        -0.5000 
     75 CA         -1.0409  -25.9642  -47.5725 C.3       13 UNK         0.1400 
     76 CB          0.4511  -26.3422  -47.5498 C.3       13 UNK        -0.1800 
     77 C          -1.3039  -24.8120  -48.5597 C.2       13 UNK         0.5000 
     78 O          -1.6916  -23.7126  -48.1592 O.2       13 UNK        -0.5000 
     79 N          -1.0485  -25.0705  -49.8474 N.am      14 UNK        -0.5000 
     80 CA         -1.2530  -24.1466  -50.9686 C.3       14 UNK         0.1400 
     81 CB         -1.2666  -24.9625  -52.2737 C.3       14 UNK        -0.1800 
     82 C          -0.2492  -22.9705  -51.0449 C.2       14 UNK         0.5000 
     83 O          -0.0986  -22.3786  -52.1115 O.2       14 UNK        -0.5000 
     84 N           0.4265  -22.6340  -49.9378 N.am      15 UNK        -0.5000 
     85 CA          1.3301  -21.4852  -49.8367 C.3       15 UNK         0.1400 
     86 CB          2.1295  -21.5843  -48.5285 C.3       15 UNK        -0.1800 
     87 C           0.5853  -20.1387  -49.9100 C.2       15 UNK         0.5000 
     88 O           1.1519  -19.1526  -50.3841 O.2       15 UNK        -0.5000 
     89 N          -0.6732  -20.1259  -49.4487 N.am      16 UNK        -0.5000 
     90 CA         -1.5543  -18.9635  -49.4634 C.3       16 UNK         0.1400 
     91 CB         -2.8354  -19.2928  -48.6989 C.3       16 UNK        -0.1800 
     92 C          -1.8563  -18.4928  -50.8978 C.2       16 UNK         0.5000 
     93 O          -2.1315  -19.3138  -51.7776 O.2       16 UNK        -0.5000 
     94 N          -1.7233  -17.1770  -51.1063 N.am      17 UNK        -0.5000 
     95 CA         -1.7639  -16.4515  -52.3809 C.3       17 UNK         0.1400 
     96 CB         -3.2078  -16.3960  -52.9154 C.3       17 UNK        -0.1800 
     97 C          -0.7746  -16.9775  -53.4459 C.2       17 UNK         0.5000 
     98 O          -1.0060  -16.7665  -54.6356 O.2       17 UNK        -0.5000 
     99 N           0.2815  -17.6917  -53.0219 N.am      18 UNK        -0.5000 
    100 CA         1.2305  -18.4266  -53.8676 C.3       18 UNK         0.1400 
    101 CB         2.1502  -17.4482  -54.6270 C.3       18 UNK        -0.1800 
    102 C          0.5325  -19.4511  -54.7942 C.2       18 UNK         0.5000 
    103 O          0.9242  -19.6077  -55.9517 O.2       18 UNK        -0.5000 
    104 N         -0.5109  -20.1034  -54.2599 N.am      19 UNK        -0.5000 
    105 CA        -1.3875  -21.0920  -54.8952 C.3       19 UNK         0.1400 
    106 CB        -0.5928  -22.2859  -55.4681 C.3       19 UNK        -0.1800 
    107 C         -2.3754  -20.5013  -55.9239 C.2       19 UNK         0.5000 
    108 O         -3.0189  -21.2662  -56.6436 O.2       19 UNK        -0.5000 
    109 N         -2.5223  -19.1681  -55.9774 N.am      20 UNK        -0.5000 
    110 CA        -3.4871  -18.4980  -56.8573 C.3       20 UNK         0.1400 
    111 CB        -3.0654  -17.0368  -57.0691 C.3       20 UNK        -0.1800 
    112 C         -4.9358  -18.5675  -56.3326 C.2       20 UNK         0.5000 
    113 O         -5.8673  -18.4048  -57.1219 O.2       20 UNK        -0.5000 
    114 N         -5.1039  -18.7979  -55.0236 N.am      21 UNK        -0.5000 
    115 CA        -6.3962  -18.8528  -54.3356 C.3       21 UNK         0.1400 
    116 CB        -6.7473  -17.4560  -53.7872 C.3       21 UNK        -0.1800 
    117 C         -6.4139  -19.9342  -53.2383 C.2       21 UNK         0.5000 
    118 O         -7.2189  -19.8479  -52.3103 O.2       21 UNK        -0.5000 
    119 N         -5.5342  -20.9354  -53.3514 N.am      22 UNK        -0.5000 
    120 CA        -5.3944  -22.0517  -52.4101 C.3       22 UNK         0.1400 
    121 C         -4.7048  -23.2640  -53.0928 C.2       22 UNK         0.5000 
    122 N         -4.7777  -24.4463  -52.4991 N.am      22 UNK        -0.7600 
    123 O         -4.1044  -23.1473  -54.1577 O.2       22 UNK        -0.5000 
    124 C124       -4.6940  -21.6114  -51.0951 C.3       23 UNK        -0.0398 
    125 S125       -5.0915  -22.6851  -49.6733 S.3       23 UNK        -0.2404 
    126 C126       -6.5797  -21.8813  -48.9941 C.3       23 UNK        -0.0205 
    127 H127       -3.4984  -10.2448  -48.9268 H         1 UNK         0.0600 
    128 H128       -1.9593  -10.0473  -49.7671 H         1 UNK         0.0600 
    129 H129       -1.9831  -10.3483  -48.0266 H         1 UNK         0.0600 
    130 H130       -4.3957  -12.2758  -49.0194 H         1 UNK         0.3000 
    131 H131       -3.1894  -14.4350  -50.3824 H         1 UNK         0.0600 
    132 H132       -5.5996  -14.0935  -50.4220 H         1 UNK         0.0800 
    133 H133       -5.7319  -14.2879  -48.7036 H         1 UNK         0.0800 
    134 H134       -6.5270  -16.1029  -47.6989 H         1 UNK         0.0800 
    135 H135       -7.6057  -16.8190  -48.8702 H         1 UNK         0.0800 
    136 H136       -7.0100  -19.2646  -49.6647 H         1 UNK         0.1150 
    137 H137       -5.4311  -21.7294  -46.5369 H         1 UNK         0.1150 
    138 H138       -5.4389  -17.4669  -46.1032 H         1 UNK         0.1150 
    139 H139       -5.2091  -19.0880  -44.0842 H         1 UNK         0.0800 
    140 H140       -4.8260  -20.7557  -44.4228 H         1 UNK         0.0800 
    141 H141       -2.8450  -20.8570  -43.0192 H         1 UNK         0.0800 
    142 H142       -1.3794  -19.9662  -43.2722 H         1 UNK         0.0800 
    143 H143       -1.3666  -21.3869  -45.6163 H         1 UNK         0.0600 
    144 H144        0.0284  -21.7120  -43.1401 H         1 UNK         0.3000 
    145 H145        2.2918  -24.1750  -44.2481 H         1 UNK         0.0600 
    146 H146        4.1140  -22.5038  -44.0770 H         1 UNK         0.0600 
    147 H147        3.2408  -22.2682  -45.5823 H         1 UNK         0.0600 
    148 H148        2.9595  -21.1796  -44.2291 H         1 UNK         0.0600 
    149 H149        2.5265  -22.3403  -42.1058 H         1 UNK         0.3000 
    150 H150        0.0311  -23.4229  -39.9359 H         1 UNK         0.0600 
    151 H151        2.9855  -24.2010  -39.6618 H         1 UNK         0.0600 
    152 H152        1.6263  -25.3123  -39.5449 H         1 UNK         0.0600 
    153 H153        1.8249  -24.0494  -38.3414 H         1 UNK         0.0600 
    154 H154        2.2769  -21.8234  -39.3892 H         1 UNK         0.3000 
    155 H155        1.4391  -19.2909  -39.1770 H         1 UNK         0.0600 
    156 H156        3.3435  -19.8639  -41.5187 H         1 UNK         0.0600 
    157 H157        3.6266  -20.2378  -39.8210 H         1 UNK         0.0600 
    158 H158        3.5721  -18.5687  -40.3493 H         1 UNK         0.0600 
    159 H159        1.4649  -18.3045  -41.9625 H         1 UNK         0.3000 
    160 H160       -1.1253  -16.9490  -42.3493 H         1 UNK         0.0600 
    161 H161       -0.2915  -14.8248  -40.3052 H         1 UNK         0.0600 
    162 H162       -1.8861  -15.5493  -40.4652 H         1 UNK         0.0600 
    163 H163       -1.2621  -14.5255  -41.7471 H         1 UNK         0.0600 
    164 H164        0.5525  -16.2467  -43.5748 H         1 UNK         0.3000 
    165 H165        3.0299  -14.5217  -43.6600 H         1 UNK         0.0600 
    166 H166        5.1566  -15.8590  -43.6749 H         1 UNK         0.0600 
    167 H167        4.7503  -15.2829  -42.0681 H         1 UNK         0.0600 
    168 H168        4.4631  -16.9653  -42.4896 H         1 UNK         0.0600 
    169 H169        2.5846  -15.7714  -45.4101 H         1 UNK         0.3000 
    170 H170        2.8426  -18.7913  -46.4706 H         1 UNK         0.0600 
    171 H171        0.9981  -19.9515  -45.3391 H         1 UNK         0.0600 
    172 H172       -0.0447  -18.5434  -45.4673 H         1 UNK         0.0600 
    173 H173        0.4349  -19.4242  -46.9138 H         1 UNK         0.0600 
    174 H174        0.8515  -16.5917  -46.7862 H         1 UNK         0.3000 
    175 H175        2.9080  -14.7614  -48.9467 H         1 UNK         0.0600 
    176 H176        0.4652  -16.3772  -49.8115 H         1 UNK         0.0600 
    177 H177        0.9567  -14.8450  -50.5356 H         1 UNK         0.0600 
    178 H178        1.9877  -16.2648  -50.6782 H         1 UNK         0.0600 
    179 H179        0.1620  -14.4798  -48.1700 H         1 UNK         0.3000 
    180 H180        0.7037  -13.2631  -44.8909 H         1 UNK         0.0600 
    181 H181        1.2675  -11.1907  -46.1079 H         1 UNK         0.0600 
    182 H182       -0.4425  -11.1897  -45.7064 H         1 UNK         0.0600 
    183 H183        0.0826  -11.5495  -47.3529 H         1 UNK         0.0600 
    184 H184       -1.6303  -13.2455  -46.4961 H         1 UNK         0.3000 
    185 H185       -2.6266  -16.5921  -46.1633 H         1 UNK         0.0600 
    186 H186       -3.0799  -15.8462  -43.8334 H         1 UNK         0.0600 
    187 H187       -3.5733  -14.2585  -44.4106 H         1 UNK         0.0600 
    188 H188       -4.5230  -15.6869  -44.8191 H         1 UNK         0.0600 
    189 H189       -4.0602  -14.2256  -46.8743 H         1 UNK         0.3000 
    190 H190       -1.2595  -24.0572  -43.4732 H         1 UNK         0.3000 
    191 H191       -3.8675  -25.1777  -44.1203 H         1 UNK         0.0600 
    192 H192       -2.5834  -25.8202  -42.0626 H         1 UNK         0.0600 
    193 H193       -2.9357  -27.2115  -43.0768 H         1 UNK         0.0600 
    194 H194       -1.3194  -26.5204  -43.0744 H         1 UNK         0.0600 
    195 H195       -0.9258  -24.7533  -45.8710 H         1 UNK         0.3000 
    196 H196       -1.6207  -26.8299  -47.8983 H         1 UNK         0.0600 
    197 H197        0.7782  -26.7324  -48.5140 H         1 UNK         0.0600 
    198 H198        0.6483  -27.1163  -46.8079 H         1 UNK         0.0600 
    199 H199        1.0824  -25.4853  -47.3118 H         1 UNK         0.0600 
    200 H200       -0.6966  -25.9842  -50.0940 H         1 UNK         0.3000 
    201 H201       -2.2412  -23.6983  -50.8504 H         1 UNK         0.0600 
    202 H202       -1.5345  -24.3378  -53.1272 H         1 UNK         0.0600 
    203 H203       -1.9977  -25.7695  -52.2285 H         1 UNK         0.0600 
    204 H204       -0.2907  -25.4028  -52.4814 H         1 UNK         0.0600 
    205 H205        0.2068  -23.1238  -49.0803 H         1 UNK         0.3000 
    206 H206        2.0316  -21.5234  -50.6727 H         1 UNK         0.0600 
    207 H207        2.8273  -20.7513  -48.4325 H         1 UNK         0.0600 
    208 H208        1.4751  -21.5650  -47.6571 H         1 UNK         0.0600 
    209 H209        2.7120  -22.5049  -48.4887 H         1 UNK         0.0600 
    210 H210       -1.0697  -20.9913  -49.1122 H         1 UNK         0.3000 
    211 H211       -1.0364  -18.1683  -48.9243 H         1 UNK         0.0600 
    212 H212       -3.4052  -20.0837  -49.1807 H         1 UNK         0.0600 
    213 H213       -3.4761  -18.4148  -48.6248 H         1 UNK         0.0600 
    214 H214       -2.6122  -19.6220  -47.6864 H         1 UNK         0.0600 
    215 H215       -1.5661  -16.5975  -50.2846 H         1 UNK         0.3000 
    216 H216       -1.4502  -15.4301  -52.1615 H         1 UNK         0.0600 
    217 H217       -3.2759  -15.8070  -53.8301 H         1 UNK         0.0600 
    218 H218       -3.8761  -15.9285  -52.1964 H         1 UNK         0.0600 
    219 H219       -3.5908  -17.3920  -53.1311 H         1 UNK         0.0600 
    220 H220        0.3845  -17.8520  -52.0268 H         1 UNK         0.3000 
    221 H221        1.8558  -19.0091  -53.1896 H         1 UNK         0.0600 
    222 H222        1.6002  -16.8649  -55.3660 H         1 UNK         0.0600 
    223 H223        2.6341  -16.7517  -53.9423 H         1 UNK         0.0600 
    224 H224        2.9396  -17.9841  -55.1551 H         1 UNK         0.0600 
    225 H225       -0.7685  -19.8803  -53.3037 H         1 UNK         0.3000 
    226 H226       -2.0028  -21.4774  -54.0817 H         1 UNK         0.0600 
    227 H227       -0.0561  -22.0191  -56.3786 H         1 UNK         0.0600 
    228 H228        0.1327  -22.6657  -54.7495 H         1 UNK         0.0600 
    229 H229       -1.2616  -23.1109  -55.7156 H         1 UNK         0.0600 
    230 H230       -1.9374  -18.5741  -55.4011 H         1 UNK         0.3000 
    231 H231       -3.4667  -18.9903  -57.8320 H         1 UNK         0.0600 
    232 H232       -3.1553  -16.4541  -56.1528 H         1 UNK         0.0600 
    233 H233       -3.6931  -16.5567  -57.8207 H         1 UNK         0.0600 
    234 H234       -2.0334  -16.9666  -57.4137 H         1 UNK         0.0600 
    235 H235       -4.2843  -18.9210  -54.4467 H         1 UNK         0.3000 
    236 H236       -7.1722  -19.1435  -55.0465 H         1 UNK         0.0600 
    237 H237       -7.7524  -17.4414  -53.3643 H         1 UNK         0.0600 
    238 H238       -6.0586  -17.1495  -52.9999 H         1 UNK         0.0600 
    239 H239       -6.7177  -16.7013  -54.5731 H         1 UNK         0.0600 
    240 H240       -4.9568  -21.0119  -54.1784 H         1 UNK         0.3000 
    241 H241       -6.4086  -22.3801  -52.1743 H         1 UNK         0.0600 
    242 H242       -5.2473  -24.5578  -51.6134 H         1 UNK         0.3800 
    243 H243       -4.3501  -25.2435  -52.9417 H         1 UNK         0.3800 
    244 H244       -3.6111  -21.5805  -51.2264 H         1 UNK         0.0800 
    245 H245       -4.9812  -20.5930  -50.8328 H         1 UNK         0.0800 
    246 H246       -7.0962  -22.5935  -48.3492 H         1 UNK         0.0800 
    247 H247       -7.2712  -21.6492  -49.8059 H         1 UNK         0.0800 
@<TRIPOS>BOND
     1    1    2 1    
     2    1  127 1    
     3    1  128 1    
     4    1  129 1    
     5    2    3 2    
     6    2    4 am   BACKBONE|DICT|INTERRES
     7    4    5 1    
     8    4  130 1    
     9    5    6 1    
    10    5   65 1    
    11    5  131 1    
    12    6    7 1    
    13    6  132 1    
    14    6  133 1    
    15    7    8 1    
    16    8    9 1    
    17    8  134 1    
    18    8  135 1    
    19    9   10 ar   
    20    9   14 ar   
    21   10   11 ar   
    22   10  136 1    
    23   11   12 ar   
    24   11  126 1    
    25   12   13 ar   
    26   12  137 1    
    27   13   14 ar   
    28   13   15 1    
    29   14  138 1    
    30   15   16 1    
    31   15  139 1    
    32   15  140 1    
    33   16   17 1    
    34   17   18 1    
    35   17  141 1    
    36   17  142 1    
    37   18   19 1    
    38   18   67 1    
    39   18  143 1    
    40   19   20 am   BACKBONE|DICT|INTERRES
    41   19  144 1    
    42   20   21 2    
    43   20   22 1    
    44   22   23 1    
    45   22   24 1    
    46   22  145 1    
    47   23  146 1    
    48   23  147 1    
    49   23  148 1    
    50   24   25 am   BACKBONE|DICT|INTERRES
    51   24  149 1    
    52   25   26 2    
    53   25   27 1    
    54   27   28 1    
    55   27   29 1    
    56   27  150 1    
    57   28  151 1    
    58   28  152 1    
    59   28  153 1    
    60   29   30 am   BACKBONE|DICT|INTERRES
    61   29  154 1    
    62   30   31 2    
    63   30   32 1    
    64   32   33 1    
    65   32   34 1    
    66   32  155 1    
    67   33  156 1    
    68   33  157 1    
    69   33  158 1    
    70   34   35 am   BACKBONE|DICT|INTERRES
    71   34  159 1    
    72   35   36 2    
    73   35   37 1    
    74   37   38 1    
    75   37   39 1    
    76   37  160 1    
    77   38  161 1    
    78   38  162 1    
    79   38  163 1    
    80   39   40 am   BACKBONE|DICT|INTERRES
    81   39  164 1    
    82   40   41 2    
    83   40   42 1    
    84   42   43 1    
    85   42   44 1    
    86   42  165 1    
    87   43  166 1    
    88   43  167 1    
    89   43  168 1    
    90   44   45 am   BACKBONE|DICT|INTERRES
    91   44  169 1    
    92   45   46 2    
    93   45   47 1    
    94   47   48 1    
    95   47   49 1    
    96   47  170 1    
    97   48  171 1    
    98   48  172 1    
    99   48  173 1    
   100   49   50 am   BACKBONE|DICT|INTERRES
   101   49  174 1    
   102   50   51 2    
   103   50   52 1    
   104   52   53 1    
   105   52   54 1    
   106   52  175 1    
   107   53  176 1    
   108   53  177 1    
   109   53  178 1    
   110   54   55 am   BACKBONE|DICT|INTERRES
   111   54  179 1    
   112   55   56 2    
   113   55   57 1    
   114   57   58 1    
   115   57   59 1    
   116   57  180 1    
   117   58  181 1    
   118   58  182 1    
   119   58  183 1    
   120   59   60 am   BACKBONE|DICT|INTERRES
   121   59  184 1    
   122   60   61 2    
   123   60   62 1    
   124   62   63 1    
   125   62   64 1    
   126   62  185 1    
   127   63  186 1    
   128   63  187 1    
   129   63  188 1    
   130   64   65 am   BACKBONE|DICT|INTERRES
   131   64  189 1    
   132   65   66 2    
   133   67   68 2    
   134   67   69 am   BACKBONE|DICT|INTERRES
   135   69   70 1    
   136   69  190 1    
   137   70   71 1    
   138   70   72 1    
   139   70  191 1    
   140   71  192 1    
   141   71  193 1    
   142   71  194 1    
   143   72   73 2    
   144   72   74 am   BACKBONE|DICT|INTERRES
   145   74   75 1    
   146   74  195 1    
   147   75   76 1    
   148   75   77 1    
   149   75  196 1    
   150   76  197 1    
   151   76  198 1    
   152   76  199 1    
   153   77   78 2    
   154   77   79 am   BACKBONE|DICT|INTERRES
   155   79   80 1    
   156   79  200 1    
   157   80   81 1    
   158   80   82 1    
   159   80  201 1    
   160   81  202 1    
   161   81  203 1    
   162   81  204 1    
   163   82   83 2    
   164   82   84 am   BACKBONE|DICT|INTERRES
   165   84   85 1    
   166   84  205 1    
   167   85   86 1    
   168   85   87 1    
   169   85  206 1    
   170   86  207 1    
   171   86  208 1    
   172   86  209 1    
   173   87   88 2    
   174   87   89 am   BACKBONE|DICT|INTERRES
   175   89   90 1    
   176   89  210 1    
   177   90   91 1    
   178   90   92 1    
   179   90  211 1    
   180   91  212 1    
   181   91  213 1    
   182   91  214 1    
   183   92   93 2    
   184   92   94 am   BACKBONE|DICT|INTERRES
   185   94   95 1    
   186   94  215 1    
   187   95   96 1    
   188   95   97 1    
   189   95  216 1    
   190   96  217 1    
   191   96  218 1    
   192   96  219 1    
   193   97   98 2    
   194   97   99 am   BACKBONE|DICT|INTERRES
   195   99  100 1    
   196   99  220 1    
   197  100  101 1    
   198  100  102 1    
   199  100  221 1    
   200  101  222 1    
   201  101  223 1    
   202  101  224 1    
   203  102  103 2    
   204  102  104 am   BACKBONE|DICT|INTERRES
   205  104  105 1    
   206  104  225 1    
   207  105  106 1    
   208  105  107 1    
   209  105  226 1    
   210  106  227 1    
   211  106  228 1    
   212  106  229 1    
   213  107  108 2    
   214  107  109 am   BACKBONE|DICT|INTERRES
   215  109  110 1    
   216  109  230 1    
   217  110  111 1    
   218  110  112 1    
   219  110  231 1    
   220  111  232 1    
   221  111  233 1    
   222  111  234 1    
   223  112  113 2    
   224  112  114 am   BACKBONE|DICT|INTERRES
   225  114  115 1    
   226  114  235 1    
   227  115  116 1    
   228  115  117 1    
   229  115  236 1    
   230  116  237 1    
   231  116  238 1    
   232  116  239 1    
   233  117  118 2    
   234  117  119 am   BACKBONE|DICT|INTERRES
   235  119  120 1    
   236  119  240 1    
   237  120  121 1    
   238  120  124 1    
   239  120  241 1    
   240  121  122 am   BACKBONE|DICT|INTERRES
   241  121  123 2    
   242  122  242 1    
   243  122  243 1    
   244  124  125 1    
   245  124  244 1    
   246  124  245 1    
   247  125  126 1    
   248  126  246 1    
   249  126  247 1    
@<TRIPOS>SUBSTRUCTURE
     1 UNK         1 GROUP             0       ****    0 ROOT    
