@<TRIPOS>MOLECULE
3R540
247   249    1
SMALL
USER_CHARGES


@<TRIPOS>ATOM
      1 CA         -1.1246  -12.9523  -52.7423 C.3       0 UNK        -0.1800 
      2 C          -0.2437  -12.9168  -51.5013 C.2       0 UNK         0.5000 
      3 O           0.4904  -11.9501  -51.2957 O.2       0 UNK        -0.5000 
      4 N          -0.3099  -13.9700  -50.6797 N.am      1 UNK        -0.5000 
      5 CA          0.3900  -14.1028  -49.4011 C.3       1 UNK         0.1400 
      6 C6          0.4538  -15.5779  -48.9249 C.3       23 UNK        -0.0398 
      7 S7         -1.1224  -16.4979  -49.0535 S.3       23 UNK        -0.2404 
      8 C8         -0.6379  -18.1472  -48.4583 C.3       23 UNK        -0.0205 
      9 C9          0.3841  -18.8182  -49.3652 C.ar      23 UNK        -0.0193 
     10 C10         0.0070  -19.2770  -50.6297 C.ar      23 UNK        -0.1150 
     11 C11         0.9400  -19.8862  -51.4732 C.ar      23 UNK        -0.0193 
     12 C12         2.2569  -20.0492  -51.0354 C.ar      23 UNK        -0.1150 
     13 C13         2.6515  -19.5945  -49.7742 C.ar      23 UNK        -0.0193 
     14 C14         1.7078  -18.9775  -48.9452 C.ar      23 UNK        -0.1150 
     15 C15         4.1099  -19.7351  -49.3471 C.3       23 UNK        -0.0205 
     16 S16         4.3269  -20.3318  -47.6397 S.3       23 UNK        -0.2404 
     17 C17         3.4805  -21.9465  -47.7069 C.3       23 UNK        -0.0398 
     18 CA          4.0269  -22.9314  -46.6459 C.3       11 UNK         0.1400 
     19 N           3.8092  -22.4389  -45.2808 N.am      11 UNK        -0.5000 
     20 C           4.4475  -22.8832  -44.1906 C.2       10 UNK         0.5000 
     21 O           5.3012  -23.7706  -44.2098 O.2       10 UNK        -0.5000 
     22 CA          4.0555  -22.2339  -42.8516 C.3       10 UNK         0.1400 
     23 CB          4.7337  -20.8652  -42.6818 C.3       10 UNK        -0.1800 
     24 N           2.6063  -22.0813  -42.7250 N.am      10 UNK        -0.5000 
     25 C           1.7677  -23.0781  -42.4103 C.2       9 UNK         0.5000 
     26 O           2.1357  -24.2250  -42.1545 O.2       9 UNK        -0.5000 
     27 CA          0.2628  -22.7469  -42.3823 C.3       9 UNK         0.1400 
     28 CB         -0.1492  -22.2459  -40.9899 C.3       9 UNK        -0.1800 
     29 N          -0.1342  -21.7585  -43.3847 N.am      9 UNK        -0.5000 
     30 C          -0.0716  -21.9483  -44.7102 C.2       8 UNK         0.5000 
     31 O           0.2910  -23.0010  -45.2334 O.2       8 UNK        -0.5000 
     32 CA         -0.4222  -20.7416  -45.5972 C.3       8 UNK         0.1400 
     33 CB         -1.9407  -20.6309  -45.7589 C.3       8 UNK        -0.1800 
     34 N           0.1038  -19.4734  -45.0880 N.am      8 UNK        -0.5000 
     35 C           1.4010  -19.2196  -44.8679 C.2       7 UNK         0.5000 
     36 O           2.2957  -20.0435  -45.0404 O.2       7 UNK        -0.5000 
     37 CA          1.7533  -17.8322  -44.3132 C.3       7 UNK         0.1400 
     38 CB          1.7445  -16.7728  -45.4248 C.3       7 UNK        -0.1800 
     39 N           0.8407  -17.4489  -43.2379 N.am      7 UNK        -0.5000 
     40 C           0.8892  -17.9688  -42.0030 C.2       6 UNK         0.5000 
     41 O           1.7701  -18.7384  -41.6184 O.2       6 UNK        -0.5000 
     42 CA         -0.2622  -17.6014  -41.0499 C.3       6 UNK         0.1400 
     43 CB          0.0539  -16.3148  -40.2748 C.3       6 UNK        -0.1800 
     44 N          -1.5419  -17.4559  -41.7462 N.am      6 UNK        -0.5000 
     45 C          -2.2241  -18.4861  -42.2681 C.2       5 UNK         0.5000 
     46 O          -1.8405  -19.6540  -42.2093 O.2       5 UNK        -0.5000 
     47 CA         -3.5395  -18.1632  -43.0016 C.3       5 UNK         0.1400 
     48 CB         -4.7183  -18.1890  -42.0171 C.3       5 UNK        -0.1800 
     49 N          -3.5326  -16.8824  -43.7094 N.am      5 UNK        -0.5000 
     50 C          -2.6736  -16.5255  -44.6744 C.2       4 UNK         0.5000 
     51 O          -1.7493  -17.2391  -45.0671 O.2       4 UNK        -0.5000 
     52 CA         -2.8548  -15.1229  -45.2891 C.3       4 UNK         0.1400 
     53 CB         -4.1580  -14.4078  -44.8642 C.3       4 UNK        -0.1800 
     54 N          -1.7093  -14.2497  -45.0311 N.am      4 UNK        -0.5000 
     55 C          -1.1783  -13.9294  -43.8396 C.2       3 UNK         0.5000 
     56 O          -1.5511  -14.4210  -42.7729 O.2       3 UNK        -0.5000 
     57 CA         -0.0455  -12.8805  -43.8233 C.3       3 UNK         0.1400 
     58 CB          1.2300  -13.4374  -43.1727 C.3       3 UNK        -0.1800 
     59 N           0.2772  -12.3612  -45.1565 N.am      3 UNK        -0.5000 
     60 C          -0.3638  -11.3393  -45.7405 C.2       2 UNK         0.5000 
     61 O          -1.2712  -10.7046  -45.2017 O.2       2 UNK        -0.5000 
     62 CA          0.0655  -10.9700  -47.1730 C.3       2 UNK         0.1400 
     63 CB          1.1615   -9.8937  -47.1422 C.3       2 UNK        -0.1800 
     64 N           0.5261  -12.0976  -47.9908 N.am      2 UNK        -0.5000 
     65 C          -0.2234  -13.1487  -48.3520 C.2       1 UNK         0.5000 
     66 O          -1.3564  -13.3579  -47.9154 O.2       1 UNK        -0.5000 
     67 C           3.4343  -24.3389  -46.8687 C.2       11 UNK         0.5000 
     68 O           3.9166  -25.0581  -47.7446 O.2       11 UNK        -0.5000 
     69 N           2.4046  -24.6952  -46.0860 N.am      12 UNK        -0.5000 
     70 CA          1.5980  -25.9163  -46.1634 C.3       12 UNK         0.1400 
     71 CB          2.4452  -27.1667  -45.8472 C.3       12 UNK        -0.1800 
     72 C           0.8250  -26.0130  -47.4954 C.2       12 UNK         0.5000 
     73 O           0.7582  -27.0842  -48.1019 O.2       12 UNK        -0.5000 
     74 N           0.2622  -24.8800  -47.9303 N.am      13 UNK        -0.5000 
     75 CA         -0.4871  -24.7233  -49.1722 C.3       13 UNK         0.1400 
     76 CB          0.4890  -24.5341  -50.3469 C.3       13 UNK        -0.1800 
     77 C          -1.4301  -23.5198  -49.0352 C.2       13 UNK         0.5000 
     78 O          -1.1546  -22.6269  -48.2333 O.2       13 UNK        -0.5000 
     79 N          -2.5112  -23.5222  -49.8265 N.am      14 UNK        -0.5000 
     80 CA         -3.6112  -22.5493  -49.8208 C.3       14 UNK         0.1400 
     81 CB         -3.1154  -21.1408  -50.2026 C.3       14 UNK        -0.1800 
     82 C          -4.4423  -22.6077  -48.5172 C.2       14 UNK         0.5000 
     83 O          -4.5408  -23.6844  -47.9219 O.2       14 UNK        -0.5000 
     84 N          -5.0787  -21.4965  -48.1224 N.am      15 UNK        -0.5000 
     85 CA         -5.9970  -21.4306  -46.9843 C.3       15 UNK         0.1400 
     86 CB         -7.4162  -21.8295  -47.4440 C.3       15 UNK        -0.1800 
     87 C          -5.9113  -20.0411  -46.3296 C.2       15 UNK         0.5000 
     88 O          -4.8072  -19.5579  -46.0818 O.2       15 UNK        -0.5000 
     89 N          -7.0564  -19.3985  -46.0612 N.am      16 UNK        -0.5000 
     90 CA         -7.1527  -18.0139  -45.5918 C.3       16 UNK         0.1400 
     91 CB         -8.5543  -17.7807  -45.0023 C.3       16 UNK        -0.1800 
     92 C          -6.8189  -17.0443  -46.7429 C.2       16 UNK         0.5000 
     93 O          -7.7211  -16.4616  -47.3464 O.2       16 UNK        -0.5000 
     94 N          -5.5203  -16.9754  -47.0638 N.am      17 UNK        -0.5000 
     95 CA         -4.9429  -16.4907  -48.3163 C.3       17 UNK         0.1400 
     96 CB         -5.2431  -14.9961  -48.5711 C.3       17 UNK        -0.1800 
     97 C          -5.3410  -17.4496  -49.4548 C.2       17 UNK         0.5000 
     98 O          -5.1341  -18.6548  -49.3007 O.2       17 UNK        -0.5000 
     99 N          -5.9094  -16.9212  -50.5488 N.am      18 UNK        -0.5000 
    100 CA        -6.3714  -17.6574  -51.7322 C.3       18 UNK         0.1400 
    101 CB        -7.5511  -18.5891  -51.3790 C.3       18 UNK        -0.1800 
    102 C         -5.2180  -18.3902  -52.4464 C.2       18 UNK         0.5000 
    103 O         -5.3297  -19.5735  -52.7684 O.2       18 UNK        -0.5000 
    104 N         -4.1204  -17.6576  -52.6866 N.am      19 UNK        -0.5000 
    105 CA        -2.8669  -18.1504  -53.2702 C.3       19 UNK         0.1400 
    106 CB        -1.8365  -17.0104  -53.2702 C.3       19 UNK        -0.1800 
    107 C         -2.9939  -18.7811  -54.6728 C.2       19 UNK         0.5000 
    108 O         -2.1264  -19.5602  -55.0643 O.2       19 UNK        -0.5000 
    109 N         -4.0936  -18.4919  -55.3816 N.am      20 UNK        -0.5000 
    110 CA        -4.4903  -19.1440  -56.6321 C.3       20 UNK         0.1400 
    111 CB        -5.7323  -18.4293  -57.1868 C.3       20 UNK        -0.1800 
    112 C         -4.7559  -20.6610  -56.4948 C.2       20 UNK         0.5000 
    113 O         -4.7346  -21.3652  -57.5047 O.2       20 UNK        -0.5000 
    114 N         -4.9919  -21.1429  -55.2644 N.am      21 UNK        -0.5000 
    115 CA        -5.1490  -22.5603  -54.9372 C.3       21 UNK         0.1400 
    116 CB        -5.7676  -22.6840  -53.5362 C.3       21 UNK        -0.1800 
    117 C         -3.8345  -23.3648  -55.0135 C.2       21 UNK         0.5000 
    118 O         -3.8974  -24.5899  -55.1291 O.2       21 UNK        -0.5000 
    119 N         -2.6779  -22.6901  -54.9376 N.am      22 UNK        -0.5000 
    120 CA        -1.3503  -23.3065  -55.0853 C.3       22 UNK         0.1400 
    121 C         -1.0930  -23.8049  -56.5350 C.2       22 UNK         0.5000 
    122 N         -0.4933  -24.9765  -56.6987 N.am      22 UNK        -0.7600 
    123 O         -1.3890  -23.1197  -57.5113 O.2       22 UNK        -0.5000 
    124 C124       -0.2140  -22.3526  -54.6429 C.3       23 UNK        -0.0398 
    125 S125       -0.2724  -21.9532  -52.8648 S.3       23 UNK        -0.2404 
    126 C126        0.5450  -20.3313  -52.8720 C.3       23 UNK        -0.0205 
    127 H127       -1.7653  -13.8341  -52.7594 H         1 UNK         0.0600 
    128 H128       -0.5074  -12.9618  -53.6406 H         1 UNK         0.0600 
    129 H129       -1.7630  -12.0694  -52.7748 H         1 UNK         0.0600 
    130 H130       -0.9520  -14.7227  -50.8822 H         1 UNK         0.3000 
    131 H131        1.4233  -13.7883  -49.5647 H         1 UNK         0.0600 
    132 H132        0.8233  -15.6366  -47.9018 H         1 UNK         0.0800 
    133 H133        1.1895  -16.1046  -49.5339 H         1 UNK         0.0800 
    134 H134       -0.2608  -18.0612  -47.4399 H         1 UNK         0.0800 
    135 H135       -1.5300  -18.7705  -48.4028 H         1 UNK         0.0800 
    136 H136       -1.0126  -19.1460  -50.9568 H         1 UNK         0.1150 
    137 H137        2.9812  -20.5147  -51.6889 H         1 UNK         0.1150 
    138 H138        2.0072  -18.6213  -47.9717 H         1 UNK         0.1150 
    139 H139        4.6460  -20.4076  -50.0186 H         1 UNK         0.0800 
    140 H140        4.5917  -18.7611  -49.4390 H         1 UNK         0.0800 
    141 H141        2.4092  -21.7842  -47.5705 H         1 UNK         0.0800 
    142 H142        3.6055  -22.3579  -48.7105 H         1 UNK         0.0800 
    143 H143        5.1049  -23.0200  -46.7977 H         1 UNK         0.0600 
    144 H144        3.1720  -21.6499  -45.1855 H         1 UNK         0.3000 
    145 H145        4.4098  -22.8826  -42.0476 H         1 UNK         0.0600 
    146 H146        4.4828  -20.4184  -41.7195 H         1 UNK         0.0600 
    147 H147        4.4377  -20.1633  -43.4616 H         1 UNK         0.0600 
    148 H148        5.8192  -20.9616  -42.7239 H         1 UNK         0.0600 
    149 H149        2.2230  -21.1749  -42.9571 H         1 UNK         0.3000 
    150 H150       -0.2824  -23.6701  -42.5890 H         1 UNK         0.0600 
    151 H151        0.1316  -22.9612  -40.2159 H         1 UNK         0.0600 
    152 H152       -1.2284  -22.1052  -40.9258 H         1 UNK         0.0600 
    153 H153        0.3267  -21.2942  -40.7492 H         1 UNK         0.0600 
    154 H154       -0.5065  -20.8807  -43.0350 H         1 UNK         0.3000 
    155 H155        0.0217  -20.9052  -46.5809 H         1 UNK         0.0600 
    156 H156       -2.3611  -21.5339  -46.2012 H         1 UNK         0.0600 
    157 H157       -2.2094  -19.7970  -46.4053 H         1 UNK         0.0600 
    158 H158       -2.4347  -20.4873  -44.8000 H         1 UNK         0.0600 
    159 H159       -0.5720  -18.7276  -44.9443 H         1 UNK         0.3000 
    160 H160        2.7687  -17.8869  -43.9142 H         1 UNK         0.0600 
    161 H161        0.7315  -16.5224  -45.7381 H         1 UNK         0.0600 
    162 H162        2.2914  -17.1193  -46.3012 H         1 UNK         0.0600 
    163 H163        2.2363  -15.8587  -45.1004 H         1 UNK         0.0600 
    164 H164        0.0449  -16.8805  -43.4920 H         1 UNK         0.3000 
    165 H165       -0.3599  -18.4130  -40.3254 H         1 UNK         0.0600 
    166 H166       -0.7267  -16.0906  -39.5478 H         1 UNK         0.0600 
    167 H167        0.9922  -16.4094  -39.7268 H         1 UNK         0.0600 
    168 H168        0.1475  -15.4576  -40.9398 H         1 UNK         0.0600 
    169 H169       -1.8894  -16.5138  -41.8791 H         1 UNK         0.3000 
    170 H170       -3.7052  -18.9445  -43.7427 H         1 UNK         0.0600 
    171 H171       -4.7641  -19.1427  -41.4894 H         1 UNK         0.0600 
    172 H172       -4.6324  -17.4025  -41.2662 H         1 UNK         0.0600 
    173 H173       -5.6704  -18.0603  -42.5308 H         1 UNK         0.0600 
    174 H174       -4.2249  -16.2079  -43.4193 H         1 UNK         0.3000 
    175 H175       -2.8899  -15.2684  -46.3691 H         1 UNK         0.0600 
    176 H176       -4.2693  -13.4639  -45.3980 H         1 UNK         0.0600 
    177 H177       -5.0387  -15.0071  -45.0949 H         1 UNK         0.0600 
    178 H178       -4.1766  -14.1815  -43.7975 H         1 UNK         0.0600 
    179 H179       -1.3318  -13.8024  -45.8583 H         1 UNK         0.3000 
    180 H180       -0.3912  -12.0549  -43.1976 H         1 UNK         0.0600 
    181 H181        1.0619  -13.6598  -42.1192 H         1 UNK         0.0600 
    182 H182        2.0470  -12.7172  -43.2196 H         1 UNK         0.0600 
    183 H183        1.5620  -14.3559  -43.6498 H         1 UNK         0.0600 
    184 H184        1.0130  -12.8274  -45.6668 H         1 UNK         0.3000 
    185 H185       -0.8094  -10.5458  -47.6704 H         1 UNK         0.0600 
    186 H186        1.3984   -9.5424  -48.1467 H         1 UNK         0.0600 
    187 H187        0.8419   -9.0257  -46.5638 H         1 UNK         0.0600 
    188 H188        2.0809  -10.2685  -46.6907 H         1 UNK         0.0600 
    189 H189        1.4365  -11.9886  -48.4148 H         1 UNK         0.3000 
    190 H190        2.0316  -23.9899  -45.4594 H         1 UNK         0.3000 
    191 H191        0.8428  -25.8284  -45.3809 H         1 UNK         0.0600 
    192 H192        1.8149  -28.0528  -45.7655 H         1 UNK         0.0600 
    193 H193        2.9720  -27.0550  -44.8994 H         1 UNK         0.0600 
    194 H194        3.1861  -27.3650  -46.6221 H         1 UNK         0.0600 
    195 H195        0.2909  -24.0486  -47.3484 H         1 UNK         0.3000 
    196 H196       -1.0913  -25.6176  -49.3387 H         1 UNK         0.0600 
    197 H197       -0.0490  -24.4853  -51.2935 H         1 UNK         0.0600 
    198 H198        1.1935  -25.3626  -50.4202 H         1 UNK         0.0600 
    199 H199        1.0645  -23.6126  -50.2450 H         1 UNK         0.0600 
    200 H200       -2.6485  -24.3145  -50.4370 H         1 UNK         0.3000 
    201 H201       -4.2863  -22.8764  -50.6116 H         1 UNK         0.0600 
    202 H202       -2.6071  -20.6481  -49.3739 H         1 UNK         0.0600 
    203 H203       -3.9456  -20.5113  -50.5155 H         1 UNK         0.0600 
    204 H204       -2.4257  -21.1813  -51.0435 H         1 UNK         0.0600 
    205 H205       -4.9296  -20.6182  -48.6126 H         1 UNK         0.3000 
    206 H206       -5.6729  -22.1360  -46.2164 H         1 UNK         0.0600 
    207 H207       -7.4199  -22.8290  -47.8792 H         1 UNK         0.0600 
    208 H208       -8.1169  -21.8493  -46.6085 H         1 UNK         0.0600 
    209 H209       -7.8036  -21.1419  -48.1972 H         1 UNK         0.0600 
    210 H210       -7.9262  -19.8447  -46.3131 H         1 UNK         0.3000 
    211 H211       -6.4233  -17.8540  -44.7956 H         1 UNK         0.0600 
    212 H212       -9.3393  -17.9602  -45.7380 H         1 UNK         0.0600 
    213 H213       -8.6623  -16.7543  -44.6493 H         1 UNK         0.0600 
    214 H214       -8.7367  -18.4372  -44.1513 H         1 UNK         0.0600 
    215 H215       -4.9289  -17.6390  -46.5716 H         1 UNK         0.3000 
    216 H216       -3.8651  -16.5938  -48.2024 H         1 UNK         0.0600 
    217 H217       -4.6783  -14.6272  -49.4281 H         1 UNK         0.0600 
    218 H218       -4.9494  -14.3882  -47.7163 H         1 UNK         0.0600 
    219 H219       -6.2992  -14.8058  -48.7621 H         1 UNK         0.0600 
    220 H220       -6.0527  -15.9215  -50.5695 H         1 UNK         0.3000 
    221 H221       -6.7437  -16.9118  -52.4361 H         1 UNK         0.0600 
    222 H222       -7.9760  -19.0363  -52.2783 H         1 UNK         0.0600 
    223 H223       -7.2457  -19.4063  -50.7246 H         1 UNK         0.0600 
    224 H224       -8.3500  -18.0414  -50.8794 H         1 UNK         0.0600 
    225 H225       -4.1217  -16.6936  -52.3880 H         1 UNK         0.3000 
    226 H226       -2.5046  -18.9433  -52.6153 H         1 UNK         0.0600 
    227 H227       -1.6330  -16.6638  -52.2569 H         1 UNK         0.0600 
    228 H228       -0.8860  -17.3348  -53.6951 H         1 UNK         0.0600 
    229 H229       -2.1818  -16.1587  -53.8573 H         1 UNK         0.0600 
    230 H230       -4.7567  -17.8461  -54.9805 H         1 UNK         0.3000 
    231 H231       -3.6735  -19.0209  -57.3462 H         1 UNK         0.0600 
    232 H232       -6.0419  -18.8643  -58.1380 H         1 UNK         0.0600 
    233 H233       -5.5338  -17.3722  -57.3646 H         1 UNK         0.0600 
    234 H234       -6.5775  -18.5034  -56.5013 H         1 UNK         0.0600 
    235 H235       -5.0247  -20.4993  -54.4786 H         1 UNK         0.3000 
    236 H236       -5.8446  -23.0002  -55.6549 H         1 UNK         0.0600 
    237 H237       -5.1105  -22.2652  -52.7739 H         1 UNK         0.0600 
    238 H238       -6.7228  -22.1618  -53.4773 H         1 UNK         0.0600 
    239 H239       -5.9494  -23.7277  -53.2770 H         1 UNK         0.0600 
    240 H240       -2.6946  -21.6796  -54.8806 H         1 UNK         0.3000 
    241 H241       -1.3248  -24.1765  -54.4256 H         1 UNK         0.0600 
    242 H242       -0.3060  -25.3040  -57.6339 H         1 UNK         0.3800 
    243 H243       -0.2346  -25.5540  -55.9134 H         1 UNK         0.3800 
    244 H244       -0.2445  -21.4323  -55.2284 H         1 UNK         0.0800 
    245 H245        0.7612  -22.8032  -54.8366 H         1 UNK         0.0800 
    246 H246       -0.1177  -19.5933  -53.3210 H         1 UNK         0.0800 
    247 H247        1.4282  -20.3758  -53.5112 H         1 UNK         0.0800 
@<TRIPOS>BOND
     1    1    2 1    
     2    1  127 1    
     3    1  128 1    
     4    1  129 1    
     5    2    3 2    
     6    2    4 am   BACKBONE|DICT|INTERRES
     7    4    5 1    
     8    4  130 1    
     9    5    6 1    
    10    5   65 1    
    11    5  131 1    
    12    6    7 1    
    13    6  132 1    
    14    6  133 1    
    15    7    8 1    
    16    8    9 1    
    17    8  134 1    
    18    8  135 1    
    19    9   10 ar   
    20    9   14 ar   
    21   10   11 ar   
    22   10  136 1    
    23   11   12 ar   
    24   11  126 1    
    25   12   13 ar   
    26   12  137 1    
    27   13   14 ar   
    28   13   15 1    
    29   14  138 1    
    30   15   16 1    
    31   15  139 1    
    32   15  140 1    
    33   16   17 1    
    34   17   18 1    
    35   17  141 1    
    36   17  142 1    
    37   18   19 1    
    38   18   67 1    
    39   18  143 1    
    40   19   20 am   BACKBONE|DICT|INTERRES
    41   19  144 1    
    42   20   21 2    
    43   20   22 1    
    44   22   23 1    
    45   22   24 1    
    46   22  145 1    
    47   23  146 1    
    48   23  147 1    
    49   23  148 1    
    50   24   25 am   BACKBONE|DICT|INTERRES
    51   24  149 1    
    52   25   26 2    
    53   25   27 1    
    54   27   28 1    
    55   27   29 1    
    56   27  150 1    
    57   28  151 1    
    58   28  152 1    
    59   28  153 1    
    60   29   30 am   BACKBONE|DICT|INTERRES
    61   29  154 1    
    62   30   31 2    
    63   30   32 1    
    64   32   33 1    
    65   32   34 1    
    66   32  155 1    
    67   33  156 1    
    68   33  157 1    
    69   33  158 1    
    70   34   35 am   BACKBONE|DICT|INTERRES
    71   34  159 1    
    72   35   36 2    
    73   35   37 1    
    74   37   38 1    
    75   37   39 1    
    76   37  160 1    
    77   38  161 1    
    78   38  162 1    
    79   38  163 1    
    80   39   40 am   BACKBONE|DICT|INTERRES
    81   39  164 1    
    82   40   41 2    
    83   40   42 1    
    84   42   43 1    
    85   42   44 1    
    86   42  165 1    
    87   43  166 1    
    88   43  167 1    
    89   43  168 1    
    90   44   45 am   BACKBONE|DICT|INTERRES
    91   44  169 1    
    92   45   46 2    
    93   45   47 1    
    94   47   48 1    
    95   47   49 1    
    96   47  170 1    
    97   48  171 1    
    98   48  172 1    
    99   48  173 1    
   100   49   50 am   BACKBONE|DICT|INTERRES
   101   49  174 1    
   102   50   51 2    
   103   50   52 1    
   104   52   53 1    
   105   52   54 1    
   106   52  175 1    
   107   53  176 1    
   108   53  177 1    
   109   53  178 1    
   110   54   55 am   BACKBONE|DICT|INTERRES
   111   54  179 1    
   112   55   56 2    
   113   55   57 1    
   114   57   58 1    
   115   57   59 1    
   116   57  180 1    
   117   58  181 1    
   118   58  182 1    
   119   58  183 1    
   120   59   60 am   BACKBONE|DICT|INTERRES
   121   59  184 1    
   122   60   61 2    
   123   60   62 1    
   124   62   63 1    
   125   62   64 1    
   126   62  185 1    
   127   63  186 1    
   128   63  187 1    
   129   63  188 1    
   130   64   65 am   BACKBONE|DICT|INTERRES
   131   64  189 1    
   132   65   66 2    
   133   67   68 2    
   134   67   69 am   BACKBONE|DICT|INTERRES
   135   69   70 1    
   136   69  190 1    
   137   70   71 1    
   138   70   72 1    
   139   70  191 1    
   140   71  192 1    
   141   71  193 1    
   142   71  194 1    
   143   72   73 2    
   144   72   74 am   BACKBONE|DICT|INTERRES
   145   74   75 1    
   146   74  195 1    
   147   75   76 1    
   148   75   77 1    
   149   75  196 1    
   150   76  197 1    
   151   76  198 1    
   152   76  199 1    
   153   77   78 2    
   154   77   79 am   BACKBONE|DICT|INTERRES
   155   79   80 1    
   156   79  200 1    
   157   80   81 1    
   158   80   82 1    
   159   80  201 1    
   160   81  202 1    
   161   81  203 1    
   162   81  204 1    
   163   82   83 2    
   164   82   84 am   BACKBONE|DICT|INTERRES
   165   84   85 1    
   166   84  205 1    
   167   85   86 1    
   168   85   87 1    
   169   85  206 1    
   170   86  207 1    
   171   86  208 1    
   172   86  209 1    
   173   87   88 2    
   174   87   89 am   BACKBONE|DICT|INTERRES
   175   89   90 1    
   176   89  210 1    
   177   90   91 1    
   178   90   92 1    
   179   90  211 1    
   180   91  212 1    
   181   91  213 1    
   182   91  214 1    
   183   92   93 2    
   184   92   94 am   BACKBONE|DICT|INTERRES
   185   94   95 1    
   186   94  215 1    
   187   95   96 1    
   188   95   97 1    
   189   95  216 1    
   190   96  217 1    
   191   96  218 1    
   192   96  219 1    
   193   97   98 2    
   194   97   99 am   BACKBONE|DICT|INTERRES
   195   99  100 1    
   196   99  220 1    
   197  100  101 1    
   198  100  102 1    
   199  100  221 1    
   200  101  222 1    
   201  101  223 1    
   202  101  224 1    
   203  102  103 2    
   204  102  104 am   BACKBONE|DICT|INTERRES
   205  104  105 1    
   206  104  225 1    
   207  105  106 1    
   208  105  107 1    
   209  105  226 1    
   210  106  227 1    
   211  106  228 1    
   212  106  229 1    
   213  107  108 2    
   214  107  109 am   BACKBONE|DICT|INTERRES
   215  109  110 1    
   216  109  230 1    
   217  110  111 1    
   218  110  112 1    
   219  110  231 1    
   220  111  232 1    
   221  111  233 1    
   222  111  234 1    
   223  112  113 2    
   224  112  114 am   BACKBONE|DICT|INTERRES
   225  114  115 1    
   226  114  235 1    
   227  115  116 1    
   228  115  117 1    
   229  115  236 1    
   230  116  237 1    
   231  116  238 1    
   232  116  239 1    
   233  117  118 2    
   234  117  119 am   BACKBONE|DICT|INTERRES
   235  119  120 1    
   236  119  240 1    
   237  120  121 1    
   238  120  124 1    
   239  120  241 1    
   240  121  122 am   BACKBONE|DICT|INTERRES
   241  121  123 2    
   242  122  242 1    
   243  122  243 1    
   244  124  125 1    
   245  124  244 1    
   246  124  245 1    
   247  125  126 1    
   248  126  246 1    
   249  126  247 1    
@<TRIPOS>SUBSTRUCTURE
     1 UNK         1 GROUP             0       ****    0 ROOT    
