@<TRIPOS>MOLECULE
3R540
247   249    1
SMALL
USER_CHARGES


@<TRIPOS>ATOM
      1 CA          4.4538  -21.2909  -48.4529 C.3       0 UNK        -0.1800 
      2 C           4.0304  -19.8640  -48.1392 C.2       0 UNK         0.5000 
      3 O           3.5428  -19.5973  -47.0429 O.2       0 UNK        -0.5000 
      4 N           4.2392  -18.9463  -49.0932 N.am      1 UNK        -0.5000 
      5 CA          3.7793  -17.5463  -49.1013 C.3       1 UNK         0.1400 
      6 C6          4.2081  -16.8191  -50.4008 C.3       23 UNK        -0.0398 
      7 S7          3.6451  -17.6555  -51.9263 S.3       23 UNK        -0.2404 
      8 C8          2.4455  -16.4641  -52.6067 C.3       23 UNK        -0.0205 
      9 C9          1.0643  -16.6358  -51.9935 C.ar      23 UNK        -0.0193 
     10 C10         0.1067  -17.4284  -52.6349 C.ar      23 UNK        -0.1150 
     11 C11        -1.1596  -17.6010  -52.0719 C.ar      23 UNK        -0.0193 
     12 C12        -1.4630  -16.9659  -50.8686 C.ar      23 UNK        -0.1150 
     13 C13        -0.5186  -16.1736  -50.2049 C.ar      23 UNK        -0.0193 
     14 C14         0.7429  -16.0097  -50.7849 C.ar      23 UNK        -0.1150 
     15 C15        -0.7898  -15.5202  -48.8452 C.3       23 UNK        -0.0205 
     16 S16        -2.5382  -15.4719  -48.2941 S.3       23 UNK        -0.2404 
     17 C17        -3.0169  -17.1867  -47.8400 C.3       23 UNK        -0.0398 
     18 CA         -1.8891  -18.2431  -47.7120 C.3       11 UNK         0.1400 
     19 N          -1.0636  -18.0431  -46.5178 N.am      11 UNK        -0.5000 
     20 C           0.0719  -18.7094  -46.2706 C.2       10 UNK         0.5000 
     21 O           0.5387  -19.5418  -47.0424 O.2       10 UNK        -0.5000 
     22 CA          0.7592  -18.4614  -44.9148 C.3       10 UNK         0.1400 
     23 CB          1.5696  -17.1590  -44.9244 C.3       10 UNK        -0.1800 
     24 N          -0.2002  -18.4363  -43.8118 N.am      10 UNK        -0.5000 
     25 C          -0.9267  -19.4943  -43.4255 C.2       9 UNK         0.5000 
     26 O          -0.8164  -20.6163  -43.9183 O.2       9 UNK        -0.5000 
     27 CA         -1.9910  -19.2472  -42.3438 C.3       9 UNK         0.1400 
     28 CB         -1.3754  -19.3040  -40.9385 C.3       9 UNK        -0.1800 
     29 N          -2.6767  -17.9692  -42.5318 N.am      9 UNK        -0.5000 
     30 C          -3.5254  -17.7107  -43.5368 C.2       8 UNK         0.5000 
     31 O          -3.8412  -18.5333  -44.3967 O.2       8 UNK        -0.5000 
     32 CA         -4.0778  -16.2758  -43.6182 C.3       8 UNK         0.1400 
     33 CB         -5.2668  -16.0962  -42.6626 C.3       8 UNK        -0.1800 
     34 N          -3.0636  -15.2595  -43.3303 N.am      8 UNK        -0.5000 
     35 C          -1.9694  -15.0546  -44.0770 C.2       7 UNK         0.5000 
     36 O          -1.7015  -15.7024  -45.0852 O.2       7 UNK        -0.5000 
     37 CA         -0.9795  -13.9854  -43.5862 C.3       7 UNK         0.1400 
     38 CB         -1.4111  -12.5897  -44.0599 C.3       7 UNK        -0.1800 
     39 N          -0.8042  -13.9782  -42.1323 N.am      7 UNK        -0.5000 
     40 C          -0.3370  -15.0105  -41.4190 C.2       6 UNK         0.5000 
     41 O          -0.0644  -16.1140  -41.8991 O.2       6 UNK        -0.5000 
     42 CA         -0.1567  -14.7781  -39.9119 C.3       6 UNK         0.1400 
     43 CB         -1.1219  -15.6567  -39.1009 C.3       6 UNK        -0.1800 
     44 N           1.2172  -15.0926  -39.5366 N.am      6 UNK        -0.5000 
     45 C           2.2599  -14.2702  -39.7156 C.2       5 UNK         0.5000 
     46 O           2.1550  -13.1033  -40.0957 O.2       5 UNK        -0.5000 
     47 CA          3.6568  -14.8565  -39.4357 C.3       5 UNK         0.1400 
     48 CB          4.0573  -14.6240  -37.9707 C.3       5 UNK        -0.1800 
     49 N           3.7330  -16.2886  -39.7357 N.am      5 UNK        -0.5000 
     50 C           3.7464  -16.7973  -40.9743 C.2       4 UNK         0.5000 
     51 O           3.7579  -16.1136  -42.0017 O.2       4 UNK        -0.5000 
     52 CA          3.7214  -18.3277  -41.0739 C.3       4 UNK         0.1400 
     53 CB          2.2854  -18.8579  -40.9385 C.3       4 UNK        -0.1800 
     54 N           4.2525  -18.7255  -42.3713 N.am      4 UNK        -0.5000 
     55 C           5.1119  -19.7259  -42.5867 C.2       3 UNK         0.5000 
     56 O           5.5200  -20.4773  -41.6997 O.2       3 UNK        -0.5000 
     57 CA          5.5998  -19.9380  -44.0339 C.3       3 UNK         0.1400 
     58 CB          4.9340  -21.1864  -44.6334 C.3       3 UNK        -0.1800 
     59 N           5.3712  -18.7902  -44.9220 N.am      3 UNK        -0.5000 
     60 C           6.0536  -17.6348  -44.8613 C.2       2 UNK         0.5000 
     61 O           6.9455  -17.4264  -44.0377 O.2       2 UNK        -0.5000 
     62 CA          5.6934  -16.5430  -45.8897 C.3       2 UNK         0.1400 
     63 CB          6.8605  -15.5805  -46.1795 C.3       2 UNK        -0.1800 
     64 N           5.2321  -17.1365  -47.1434 N.am      2 UNK        -0.5000 
     65 C           4.1962  -16.7030  -47.8724 C.2       1 UNK         0.5000 
     66 O           3.5630  -15.6796  -47.6112 O.2       1 UNK        -0.5000 
     67 C          -2.4575  -19.6740  -47.7988 C.2       11 UNK         0.5000 
     68 O          -2.4233  -20.2738  -48.8762 O.2       11 UNK        -0.5000 
     69 N          -2.9152  -20.2152  -46.6601 N.am      12 UNK        -0.5000 
     70 CA         -3.3544  -21.6037  -46.5361 C.3       12 UNK         0.1400 
     71 CB         -3.9733  -21.8371  -45.1502 C.3       12 UNK        -0.1800 
     72 C          -2.2194  -22.6060  -46.8135 C.2       12 UNK         0.5000 
     73 O          -2.4454  -23.5790  -47.5294 O.2       12 UNK        -0.5000 
     74 N          -1.0168  -22.3361  -46.2859 N.am      13 UNK        -0.5000 
     75 CA          0.1901  -23.1294  -46.5268 C.3       13 UNK         0.1400 
     76 CB          1.3102  -22.6688  -45.5802 C.3       13 UNK        -0.1800 
     77 C           0.6650  -23.0834  -47.9921 C.2       13 UNK         0.5000 
     78 O           1.0978  -24.1103  -48.5158 O.2       13 UNK        -0.5000 
     79 N           0.5746  -21.9038  -48.6219 N.am      14 UNK        -0.5000 
     80 CA          0.9709  -21.6543  -50.0068 C.3       14 UNK         0.1400 
     81 CB          0.8987  -20.1478  -50.3044 C.3       14 UNK        -0.1800 
     82 C           0.1310  -22.4420  -51.0252 C.2       14 UNK         0.5000 
     83 O           0.6985  -23.1259  -51.8784 O.2       14 UNK        -0.5000 
     84 N          -1.1991  -22.3219  -50.9273 N.am      15 UNK        -0.5000 
     85 CA         -2.1313  -22.9447  -51.8677 C.3       15 UNK         0.1400 
     86 CB         -3.3953  -22.0842  -51.9640 C.3       15 UNK        -0.1800 
     87 C          -2.4982  -24.3936  -51.5075 C.2       15 UNK         0.5000 
     88 O          -2.8362  -25.1605  -52.4093 O.2       15 UNK        -0.5000 
     89 N          -2.4699  -24.7313  -50.2085 N.am      16 UNK        -0.5000 
     90 CA         -2.9017  -26.0017  -49.6035 C.3       16 UNK         0.1400 
     91 CB         -2.0637  -27.1850  -50.1316 C.3       16 UNK        -0.1800 
     92 C          -4.4231  -26.2655  -49.7047 C.2       16 UNK         0.5000 
     93 O          -4.8679  -27.3675  -49.3794 O.2       16 UNK        -0.5000 
     94 N          -5.1920  -25.2572  -50.1343 N.am      17 UNK        -0.5000 
     95 CA         -6.6244  -25.2605  -50.4180 C.3       17 UNK         0.1400 
     96 CB         -6.9616  -26.2932  -51.5212 C.3       17 UNK        -0.1800 
     97 C          -7.0137  -23.8316  -50.8486 C.2       17 UNK         0.5000 
     98 O          -6.2199  -22.9009  -50.6898 O.2       17 UNK        -0.5000 
     99 N          -8.2024  -23.6831  -51.4457 N.am      18 UNK        -0.5000 
    100 CA        -8.6785  -22.4551  -52.0947 C.3       18 UNK         0.1400 
    101 CB       -10.2160  -22.4369  -52.0397 C.3       18 UNK        -0.1800 
    102 C         -8.1608  -22.2997  -53.5457 C.2       18 UNK         0.5000 
    103 O         -8.7094  -21.5001  -54.3068 O.2       18 UNK        -0.5000 
    104 N         -7.1335  -23.0789  -53.9169 N.am      19 UNK        -0.5000 
    105 CA        -6.4653  -23.0722  -55.2180 C.3       19 UNK         0.1400 
    106 CB        -5.3761  -24.1555  -55.2230 C.3       19 UNK        -0.1800 
    107 C         -5.8629  -21.6969  -55.5567 C.2       19 UNK         0.5000 
    108 O         -5.3595  -21.0130  -54.6627 O.2       19 UNK        -0.5000 
    109 N         -5.9597  -21.3112  -56.8378 N.am      20 UNK        -0.5000 
    110 CA        -5.5603  -20.0096  -57.3952 C.3       20 UNK         0.1400 
    111 CB        -4.0256  -19.8508  -57.3536 C.3       20 UNK        -0.1800 
    112 C         -6.2979  -18.8127  -56.7494 C.2       20 UNK         0.5000 
    113 O         -5.7662  -17.7024  -56.7260 O.2       20 UNK        -0.5000 
    114 N         -7.4943  -19.0756  -56.2011 N.am      21 UNK        -0.5000 
    115 CA        -8.3675  -18.2130  -55.3954 C.3       21 UNK         0.1400 
    116 CB        -8.7745  -16.9379  -56.1588 C.3       21 UNK        -0.1800 
    117 C         -7.8184  -17.8775  -53.9927 C.2       21 UNK         0.5000 
    118 O         -8.6127  -17.7400  -53.0610 O.2       21 UNK        -0.5000 
    119 N         -6.4942  -17.7476  -53.8546 N.am      22 UNK        -0.5000 
    120 CA        -5.7996  -17.4661  -52.5919 C.3       22 UNK         0.1400 
    121 C         -5.7030  -18.6682  -51.6073 C.2       22 UNK         0.5000 
    122 N         -5.8365  -19.9118  -52.0515 N.am      22 UNK        -0.7600 
    123 O         -5.5249  -18.4613  -50.4108 O.2       22 UNK        -0.5000 
    124 C124       -4.4319  -16.7733  -52.8267 C.3       23 UNK        -0.0398 
    125 S125       -3.2695  -17.6876  -53.9066 S.3       23 UNK        -0.2404 
    126 C126       -2.1804  -18.5293  -52.7133 C.3       23 UNK        -0.0205 
    127 H127        4.5098  -21.4639  -49.5276 H         1 UNK         0.0600 
    128 H128        3.7357  -21.9962  -48.0342 H         1 UNK         0.0600 
    129 H129        5.4319  -21.4986  -48.0204 H         1 UNK         0.0600 
    130 H130        4.6630  -19.2448  -49.9603 H         1 UNK         0.3000 
    131 H131        2.6884  -17.5813  -49.0811 H         1 UNK         0.0600 
    132 H132        5.2963  -16.7481  -50.4475 H         1 UNK         0.0800 
    133 H133        3.8465  -15.7897  -50.4026 H         1 UNK         0.0800 
    134 H134        2.8008  -15.4421  -52.4677 H         1 UNK         0.0800 
    135 H135        2.3878  -16.6132  -53.6860 H         1 UNK         0.0800 
    136 H136        0.3530  -17.9275  -53.5616 H         1 UNK         0.1150 
    137 H137       -2.4352  -17.1343  -50.4385 H         1 UNK         0.1150 
    138 H138        1.4837  -15.4041  -50.2827 H         1 UNK         0.1150 
    139 H139       -0.1741  -15.9967  -48.0823 H         1 UNK         0.0800 
    140 H140       -0.4464  -14.4860  -48.8943 H         1 UNK         0.0800 
    141 H141       -3.5783  -17.1359  -46.9059 H         1 UNK         0.0800 
    142 H142       -3.7454  -17.5016  -48.5892 H         1 UNK         0.0800 
    143 H143       -1.2179  -18.1666  -48.5628 H         1 UNK         0.0600 
    144 H144       -1.3664  -17.3179  -45.8705 H         1 UNK         0.3000 
    145 H145        1.4530  -19.2857  -44.7353 H         1 UNK         0.0600 
    146 H146        2.0269  -16.9692  -43.9538 H         1 UNK         0.0600 
    147 H147        2.3727  -17.2171  -45.6573 H         1 UNK         0.0600 
    148 H148        0.9533  -16.2967  -45.1779 H         1 UNK         0.0600 
    149 H149       -0.3248  -17.5527  -43.3285 H         1 UNK         0.3000 
    150 H150       -2.7325  -20.0455  -42.4189 H         1 UNK         0.0600 
    151 H151       -0.8695  -20.2559  -40.7725 H         1 UNK         0.0600 
    152 H152       -2.1398  -19.2021  -40.1682 H         1 UNK         0.0600 
    153 H153       -0.6415  -18.5135  -40.7889 H         1 UNK         0.0600 
    154 H154       -2.4240  -17.2203  -41.9046 H         1 UNK         0.3000 
    155 H155       -4.4328  -16.1151  -44.6384 H         1 UNK         0.0600 
    156 H156       -5.7177  -15.1101  -42.7756 H         1 UNK         0.0600 
    157 H157       -6.0449  -16.8332  -42.8659 H         1 UNK         0.0600 
    158 H158       -4.9688  -16.2122  -41.6198 H         1 UNK         0.0600 
    159 H159       -3.2032  -14.6889  -42.5097 H         1 UNK         0.3000 
    160 H160       -0.0085  -14.2097  -44.0329 H         1 UNK         0.0600 
    161 H161       -2.3607  -12.2881  -43.6162 H         1 UNK         0.0600 
    162 H162       -1.5330  -12.5668  -45.1438 H         1 UNK         0.0600 
    163 H163       -0.6652  -11.8375  -43.8025 H         1 UNK         0.0600 
    164 H164       -1.0001  -13.1067  -41.6612 H         1 UNK         0.3000 
    165 H165       -0.3672  -13.7328  -39.6753 H         1 UNK         0.0600 
    166 H166       -1.0313  -15.4552  -38.0334 H         1 UNK         0.0600 
    167 H167       -2.1578  -15.4622  -39.3813 H         1 UNK         0.0600 
    168 H168       -0.9326  -16.7188  -39.2554 H         1 UNK         0.0600 
    169 H169        1.4012  -16.0468  -39.2670 H         1 UNK         0.3000 
    170 H170        4.3721  -14.3303  -40.0717 H         1 UNK         0.0600 
    171 H171        4.0317  -13.5618  -37.7235 H         1 UNK         0.0600 
    172 H172        3.3853  -15.1373  -37.2817 H         1 UNK         0.0600 
    173 H173        5.0706  -14.9767  -37.7780 H         1 UNK         0.0600 
    174 H174        3.7395  -16.9156  -38.9440 H         1 UNK         0.3000 
    175 H175        4.3374  -18.7331  -40.2684 H         1 UNK         0.0600 
    176 H176        1.8608  -18.6061  -39.9663 H         1 UNK         0.0600 
    177 H177        1.6346  -18.4321  -41.7018 H         1 UNK         0.0600 
    178 H178        2.2518  -19.9429  -41.0379 H         1 UNK         0.0600 
    179 H179        4.0277  -18.1005  -43.1329 H         1 UNK         0.3000 
    180 H180        6.6752  -20.1212  -43.9864 H         1 UNK         0.0600 
    181 H181        3.8572  -21.0531  -44.7426 H         1 UNK         0.0600 
    182 H182        5.0931  -22.0609  -44.0013 H         1 UNK         0.0600 
    183 H183        5.3478  -21.4205  -45.6129 H         1 UNK         0.0600 
    184 H184        4.6473  -18.9094  -45.6271 H         1 UNK         0.3000 
    185 H185        4.8832  -15.9687  -45.4353 H         1 UNK         0.0600 
    186 H186        7.1920  -15.0766  -45.2708 H         1 UNK         0.0600 
    187 H187        7.7184  -16.1075  -46.5983 H         1 UNK         0.0600 
    188 H188        6.5649  -14.8056  -46.8869 H         1 UNK         0.0600 
    189 H189        5.6867  -17.9944  -47.4235 H         1 UNK         0.3000 
    190 H190       -2.9543  -19.6467  -45.8202 H         1 UNK         0.3000 
    191 H191       -4.1322  -21.7711  -47.2844 H         1 UNK         0.0600 
    192 H192       -3.2525  -21.6677  -44.3507 H         1 UNK         0.0600 
    193 H193       -4.3359  -22.8611  -45.0533 H         1 UNK         0.0600 
    194 H194       -4.8218  -21.1739  -44.9810 H         1 UNK         0.0600 
    195 H195       -0.9193  -21.5364  -45.6675 H         1 UNK         0.3000 
    196 H196       -0.0452  -24.1688  -46.2889 H         1 UNK         0.0600 
    197 H197        2.2075  -23.2744  -45.7123 H         1 UNK         0.0600 
    198 H198        1.0078  -22.7567  -44.5367 H         1 UNK         0.0600 
    199 H199        1.5895  -21.6307  -45.7607 H         1 UNK         0.0600 
    200 H200        0.2914  -21.0904  -48.0799 H         1 UNK         0.3000 
    201 H201        2.0100  -21.9706  -50.1139 H         1 UNK         0.0600 
    202 H202        1.4999  -19.5740  -49.6032 H         1 UNK         0.0600 
    203 H203       -0.1213  -19.7691  -50.2425 H         1 UNK         0.0600 
    204 H204        1.2697  -19.9280  -51.3060 H         1 UNK         0.0600 
    205 H205       -1.5911  -21.7287  -50.2025 H         1 UNK         0.3000 
    206 H206       -1.6809  -22.9697  -52.8626 H         1 UNK         0.0600 
    207 H207       -3.1974  -21.1647  -52.5094 H         1 UNK         0.0600 
    208 H208       -4.1907  -22.5979  -52.5048 H         1 UNK         0.0600 
    209 H209       -3.7797  -21.8188  -50.9787 H         1 UNK         0.0600 
    210 H210       -2.2073  -24.0234  -49.5310 H         1 UNK         0.3000 
    211 H211       -2.6895  -25.9184  -48.5380 H         1 UNK         0.0600 
    212 H212       -2.2906  -27.4143  -51.1728 H         1 UNK         0.0600 
    213 H213       -2.2570  -28.0886  -49.5526 H         1 UNK         0.0600 
    214 H214       -0.9965  -26.9759  -50.0568 H         1 UNK         0.0600 
    215 H215       -4.7565  -24.3612  -50.3165 H         1 UNK         0.3000 
    216 H216       -7.1651  -25.5028  -49.5018 H         1 UNK         0.0600 
    217 H217       -6.4429  -26.0658  -52.4535 H         1 UNK         0.0600 
    218 H218       -8.0302  -26.3238  -51.7346 H         1 UNK         0.0600 
    219 H219       -6.6844  -27.3055  -51.2298 H         1 UNK         0.0600 
    220 H220       -8.7934  -24.4949  -51.5535 H         1 UNK         0.3000 
    221 H221       -8.3149  -21.5908  -51.5349 H         1 UNK         0.0600 
    222 H222      -10.5746  -22.5255  -51.0140 H         1 UNK         0.0600 
    223 H223      -10.6485  -23.2532  -52.6194 H         1 UNK         0.0600 
    224 H224      -10.6136  -21.5027  -52.4385 H         1 UNK         0.0600 
    225 H225       -6.7281  -23.6760  -53.2142 H         1 UNK         0.3000 
    226 H226       -7.2134  -23.3252  -55.9718 H         1 UNK         0.0600 
    227 H227       -5.7973  -25.1418  -55.0276 H         1 UNK         0.0600 
    228 H228       -4.8760  -24.2026  -56.1912 H         1 UNK         0.0600 
    229 H229       -4.6114  -23.9630  -54.4697 H         1 UNK         0.0600 
    230 H230       -6.3928  -21.9444  -57.4961 H         1 UNK         0.3000 
    231 H231       -5.8627  -20.0185  -58.4432 H         1 UNK         0.0600 
    232 H232       -3.6548  -19.7632  -56.3318 H         1 UNK         0.0600 
    233 H233       -3.7085  -18.9571  -57.8921 H         1 UNK         0.0600 
    234 H234       -3.5281  -20.7016  -57.8187 H         1 UNK         0.0600 
    235 H235       -7.7984  -20.0393  -56.2346 H         1 UNK         0.3000 
    236 H236       -9.2748  -18.7973  -55.2342 H         1 UNK         0.0600 
    237 H237       -9.5303  -16.3808  -55.6041 H         1 UNK         0.0600 
    238 H238       -7.9299  -16.2667  -56.3151 H         1 UNK         0.0600 
    239 H239       -9.1985  -17.1792  -57.1335 H         1 UNK         0.0600 
    240 H240       -5.9099  -17.8549  -54.6756 H         1 UNK         0.3000 
    241 H241       -6.4119  -16.7312  -52.0652 H         1 UNK         0.0600 
    242 H242       -5.7825  -20.6774  -51.3961 H         1 UNK         0.3800 
    243 H243       -5.8467  -20.1118  -53.0479 H         1 UNK         0.3800 
    244 H244       -3.9636  -16.5249  -51.8771 H         1 UNK         0.0800 
    245 H245       -4.6094  -15.8102  -53.3067 H         1 UNK         0.0800 
    246 H246       -1.6618  -19.3398  -53.2272 H         1 UNK         0.0800 
    247 H247       -2.7838  -19.0015  -51.9374 H         1 UNK         0.0800 
@<TRIPOS>BOND
     1    1    2 1    
     2    1  127 1    
     3    1  128 1    
     4    1  129 1    
     5    2    3 2    
     6    2    4 am   BACKBONE|DICT|INTERRES
     7    4    5 1    
     8    4  130 1    
     9    5    6 1    
    10    5   65 1    
    11    5  131 1    
    12    6    7 1    
    13    6  132 1    
    14    6  133 1    
    15    7    8 1    
    16    8    9 1    
    17    8  134 1    
    18    8  135 1    
    19    9   10 ar   
    20    9   14 ar   
    21   10   11 ar   
    22   10  136 1    
    23   11   12 ar   
    24   11  126 1    
    25   12   13 ar   
    26   12  137 1    
    27   13   14 ar   
    28   13   15 1    
    29   14  138 1    
    30   15   16 1    
    31   15  139 1    
    32   15  140 1    
    33   16   17 1    
    34   17   18 1    
    35   17  141 1    
    36   17  142 1    
    37   18   19 1    
    38   18   67 1    
    39   18  143 1    
    40   19   20 am   BACKBONE|DICT|INTERRES
    41   19  144 1    
    42   20   21 2    
    43   20   22 1    
    44   22   23 1    
    45   22   24 1    
    46   22  145 1    
    47   23  146 1    
    48   23  147 1    
    49   23  148 1    
    50   24   25 am   BACKBONE|DICT|INTERRES
    51   24  149 1    
    52   25   26 2    
    53   25   27 1    
    54   27   28 1    
    55   27   29 1    
    56   27  150 1    
    57   28  151 1    
    58   28  152 1    
    59   28  153 1    
    60   29   30 am   BACKBONE|DICT|INTERRES
    61   29  154 1    
    62   30   31 2    
    63   30   32 1    
    64   32   33 1    
    65   32   34 1    
    66   32  155 1    
    67   33  156 1    
    68   33  157 1    
    69   33  158 1    
    70   34   35 am   BACKBONE|DICT|INTERRES
    71   34  159 1    
    72   35   36 2    
    73   35   37 1    
    74   37   38 1    
    75   37   39 1    
    76   37  160 1    
    77   38  161 1    
    78   38  162 1    
    79   38  163 1    
    80   39   40 am   BACKBONE|DICT|INTERRES
    81   39  164 1    
    82   40   41 2    
    83   40   42 1    
    84   42   43 1    
    85   42   44 1    
    86   42  165 1    
    87   43  166 1    
    88   43  167 1    
    89   43  168 1    
    90   44   45 am   BACKBONE|DICT|INTERRES
    91   44  169 1    
    92   45   46 2    
    93   45   47 1    
    94   47   48 1    
    95   47   49 1    
    96   47  170 1    
    97   48  171 1    
    98   48  172 1    
    99   48  173 1    
   100   49   50 am   BACKBONE|DICT|INTERRES
   101   49  174 1    
   102   50   51 2    
   103   50   52 1    
   104   52   53 1    
   105   52   54 1    
   106   52  175 1    
   107   53  176 1    
   108   53  177 1    
   109   53  178 1    
   110   54   55 am   BACKBONE|DICT|INTERRES
   111   54  179 1    
   112   55   56 2    
   113   55   57 1    
   114   57   58 1    
   115   57   59 1    
   116   57  180 1    
   117   58  181 1    
   118   58  182 1    
   119   58  183 1    
   120   59   60 am   BACKBONE|DICT|INTERRES
   121   59  184 1    
   122   60   61 2    
   123   60   62 1    
   124   62   63 1    
   125   62   64 1    
   126   62  185 1    
   127   63  186 1    
   128   63  187 1    
   129   63  188 1    
   130   64   65 am   BACKBONE|DICT|INTERRES
   131   64  189 1    
   132   65   66 2    
   133   67   68 2    
   134   67   69 am   BACKBONE|DICT|INTERRES
   135   69   70 1    
   136   69  190 1    
   137   70   71 1    
   138   70   72 1    
   139   70  191 1    
   140   71  192 1    
   141   71  193 1    
   142   71  194 1    
   143   72   73 2    
   144   72   74 am   BACKBONE|DICT|INTERRES
   145   74   75 1    
   146   74  195 1    
   147   75   76 1    
   148   75   77 1    
   149   75  196 1    
   150   76  197 1    
   151   76  198 1    
   152   76  199 1    
   153   77   78 2    
   154   77   79 am   BACKBONE|DICT|INTERRES
   155   79   80 1    
   156   79  200 1    
   157   80   81 1    
   158   80   82 1    
   159   80  201 1    
   160   81  202 1    
   161   81  203 1    
   162   81  204 1    
   163   82   83 2    
   164   82   84 am   BACKBONE|DICT|INTERRES
   165   84   85 1    
   166   84  205 1    
   167   85   86 1    
   168   85   87 1    
   169   85  206 1    
   170   86  207 1    
   171   86  208 1    
   172   86  209 1    
   173   87   88 2    
   174   87   89 am   BACKBONE|DICT|INTERRES
   175   89   90 1    
   176   89  210 1    
   177   90   91 1    
   178   90   92 1    
   179   90  211 1    
   180   91  212 1    
   181   91  213 1    
   182   91  214 1    
   183   92   93 2    
   184   92   94 am   BACKBONE|DICT|INTERRES
   185   94   95 1    
   186   94  215 1    
   187   95   96 1    
   188   95   97 1    
   189   95  216 1    
   190   96  217 1    
   191   96  218 1    
   192   96  219 1    
   193   97   98 2    
   194   97   99 am   BACKBONE|DICT|INTERRES
   195   99  100 1    
   196   99  220 1    
   197  100  101 1    
   198  100  102 1    
   199  100  221 1    
   200  101  222 1    
   201  101  223 1    
   202  101  224 1    
   203  102  103 2    
   204  102  104 am   BACKBONE|DICT|INTERRES
   205  104  105 1    
   206  104  225 1    
   207  105  106 1    
   208  105  107 1    
   209  105  226 1    
   210  106  227 1    
   211  106  228 1    
   212  106  229 1    
   213  107  108 2    
   214  107  109 am   BACKBONE|DICT|INTERRES
   215  109  110 1    
   216  109  230 1    
   217  110  111 1    
   218  110  112 1    
   219  110  231 1    
   220  111  232 1    
   221  111  233 1    
   222  111  234 1    
   223  112  113 2    
   224  112  114 am   BACKBONE|DICT|INTERRES
   225  114  115 1    
   226  114  235 1    
   227  115  116 1    
   228  115  117 1    
   229  115  236 1    
   230  116  237 1    
   231  116  238 1    
   232  116  239 1    
   233  117  118 2    
   234  117  119 am   BACKBONE|DICT|INTERRES
   235  119  120 1    
   236  119  240 1    
   237  120  121 1    
   238  120  124 1    
   239  120  241 1    
   240  121  122 am   BACKBONE|DICT|INTERRES
   241  121  123 2    
   242  122  242 1    
   243  122  243 1    
   244  124  125 1    
   245  124  244 1    
   246  124  245 1    
   247  125  126 1    
   248  126  246 1    
   249  126  247 1    
@<TRIPOS>SUBSTRUCTURE
     1 UNK         1 GROUP             0       ****    0 ROOT    
