@<TRIPOS>MOLECULE
3R540
247   249    1
SMALL
USER_CHARGES


@<TRIPOS>ATOM
      1 CA          3.0772  -12.6845  -52.5464 C.3       0 UNK        -0.1800 
      2 C           3.4732  -12.6785  -51.0769 C.2       0 UNK         0.5000 
      3 O           2.5932  -12.7298  -50.2193 O.2       0 UNK        -0.5000 
      4 N           4.7877  -12.6226  -50.8072 N.am      1 UNK        -0.5000 
      5 CA          5.4600  -12.6226  -49.4977 C.3       1 UNK         0.1400 
      6 C6          5.8320  -14.0485  -48.9829 C.3       23 UNK        -0.0398 
      7 S7          4.4497  -15.1906  -48.6192 S.3       23 UNK        -0.2404 
      8 C8          4.3699  -16.1593  -50.1602 C.3       23 UNK        -0.0205 
      9 C9          3.0772  -16.9563  -50.2629 C.ar      23 UNK        -0.0193 
     10 C10         1.8450  -16.3008  -50.1815 C.ar      23 UNK        -0.1150 
     11 C11         0.6484  -17.0115  -50.2852 C.ar      23 UNK        -0.0193 
     12 C12         0.6939  -18.3965  -50.4790 C.ar      23 UNK        -0.1150 
     13 C13         1.9165  -19.0672  -50.5819 C.ar      23 UNK        -0.0193 
     14 C14         3.1064  -18.3390  -50.4729 C.ar      23 UNK        -0.1150 
     15 C15         1.9378  -20.5716  -50.8411 C.3       23 UNK        -0.0205 
     16 S16         2.8806  -21.5179  -49.5978 S.3       23 UNK        -0.2404 
     17 C17         1.9853  -21.1129  -48.0634 C.3       23 UNK        -0.0398 
     18 CA          1.1122  -22.2655  -47.5108 C.3       11 UNK         0.1400 
     19 N           0.7985  -22.0540  -46.0940 N.am      11 UNK        -0.5000 
     20 C           0.1912  -22.9383  -45.2917 C.2       10 UNK         0.5000 
     21 O          -0.1143  -24.0766  -45.6421 O.2       10 UNK        -0.5000 
     22 CA         -0.1771  -22.4602  -43.8741 C.3       10 UNK         0.1400 
     23 CB          1.0111  -22.6273  -42.9160 C.3       10 UNK        -0.1800 
     24 N          -0.6459  -21.0735  -43.8470 N.am      10 UNK        -0.5000 
     25 C          -1.7697  -20.6383  -44.4360 C.2       9 UNK         0.5000 
     26 O          -2.5682  -21.3815  -45.0039 O.2       9 UNK        -0.5000 
     27 CA         -2.0102  -19.1153  -44.4534 C.3       9 UNK         0.1400 
     28 CB         -2.6210  -18.6356  -43.1294 C.3       9 UNK        -0.1800 
     29 N          -0.7908  -18.3578  -44.7417 N.am      9 UNK        -0.5000 
     30 C          -0.0871  -18.4799  -45.8767 C.2       8 UNK         0.5000 
     31 O          -0.4263  -19.2084  -46.8074 O.2       8 UNK        -0.5000 
     32 CA          1.2587  -17.7398  -45.9495 C.3       8 UNK         0.1400 
     33 CB          1.0746  -16.2755  -46.3546 C.3       8 UNK        -0.1800 
     34 N           1.9789  -17.8101  -44.6800 N.am      8 UNK        -0.5000 
     35 C           2.5758  -18.9175  -44.2201 C.2       7 UNK         0.5000 
     36 O           2.6134  -19.9793  -44.8409 O.2       7 UNK        -0.5000 
     37 CA          3.1991  -18.8347  -42.8147 C.3       7 UNK         0.1400 
     38 CB          4.5966  -18.2002  -42.8780 C.3       7 UNK        -0.1800 
     39 N           2.3673  -18.0826  -41.8741 N.am      7 UNK        -0.5000 
     40 C           1.1558  -18.4734  -41.4531 C.2       6 UNK         0.5000 
     41 O           0.6321  -19.5370  -41.7791 O.2       6 UNK        -0.5000 
     42 CA          0.3800  -17.4948  -40.5509 C.3       6 UNK         0.1400 
     43 CB          0.6905  -17.7666  -39.0717 C.3       6 UNK        -0.1800 
     44 N           0.6470  -16.0857  -40.8510 N.am      6 UNK        -0.5000 
     45 C           0.3891  -15.4885  -42.0223 C.2       5 UNK         0.5000 
     46 O          -0.0927  -16.0720  -42.9968 O.2       5 UNK        -0.5000 
     47 CA          0.8154  -14.0144  -42.1246 C.3       5 UNK         0.1400 
     48 CB          2.3267  -13.9214  -42.3920 C.3       5 UNK        -0.1800 
     49 N           0.0929  -13.2960  -43.1749 N.am      5 UNK        -0.5000 
     50 C          -1.1783  -12.8819  -43.0676 C.2       4 UNK         0.5000 
     51 O          -1.8675  -13.0797  -42.0652 O.2       4 UNK        -0.5000 
     52 CA         -1.7860  -12.0744  -44.2349 C.3       4 UNK         0.1400 
     53 CB         -1.9665  -10.6026  -43.8286 C.3       4 UNK        -0.1800 
     54 N          -0.9860  -12.1172  -45.4583 N.am      4 UNK        -0.5000 
     55 C          -1.0559  -13.0825  -46.3825 C.2       3 UNK         0.5000 
     56 O          -1.8541  -14.0186  -46.3264 O.2       3 UNK        -0.5000 
     57 CA         -0.0801  -12.9886  -47.5771 C.3       3 UNK         0.1400 
     58 CB         -0.7999  -12.4091  -48.8048 C.3       3 UNK        -0.1800 
     59 N           1.1502  -12.2172  -47.3508 N.am      3 UNK        -0.5000 
     60 C           2.0373  -12.4045  -46.3649 C.2       2 UNK         0.5000 
     61 O           1.8809  -13.2107  -45.4505 O.2       2 UNK        -0.5000 
     62 CA          3.3330  -11.5883  -46.4512 C.3       2 UNK         0.1400 
     63 CB          4.0758  -11.5015  -45.1054 C.3       2 UNK        -0.1800 
     64 N           4.1792  -12.2581  -47.4265 N.am      2 UNK        -0.5000 
     65 C           4.7865  -11.6835  -48.4669 C.2       1 UNK         0.5000 
     66 O           4.8194  -10.4647  -48.6522 O.2       1 UNK        -0.5000 
     67 C          -0.1677  -22.4862  -48.3491 C.2       11 UNK         0.5000 
     68 O          -0.2336  -23.4384  -49.1275 O.2       11 UNK        -0.5000 
     69 N          -1.1843  -21.6397  -48.1340 N.am      12 UNK        -0.5000 
     70 CA         -2.5078  -21.7667  -48.7442 C.3       12 UNK         0.1400 
     71 CB         -3.3234  -20.4986  -48.4699 C.3       12 UNK        -0.1800 
     72 C          -3.2701  -23.0217  -48.2804 C.2       12 UNK         0.5000 
     73 O          -3.9248  -23.6641  -49.1012 O.2       12 UNK        -0.5000 
     74 N          -3.1518  -23.3726  -46.9919 N.am      13 UNK        -0.5000 
     75 CA         -3.7237  -24.5878  -46.4081 C.3       13 UNK         0.1400 
     76 CB         -3.6165  -24.5394  -44.8775 C.3       13 UNK        -0.1800 
     77 C          -3.0802  -25.8722  -46.9608 C.2       13 UNK         0.5000 
     78 O          -3.7961  -26.8386  -47.2205 O.2       13 UNK        -0.5000 
     79 N          -1.7591  -25.8514  -47.1891 N.am      14 UNK        -0.5000 
     80 CA         -1.0107  -26.9251  -47.8506 C.3       14 UNK         0.1400 
     81 CB          0.4965  -26.6561  -47.7270 C.3       14 UNK        -0.1800 
     82 C          -1.4174  -27.1150  -49.3261 C.2       14 UNK         0.5000 
     83 O          -1.4050  -28.2424  -49.8203 O.2       14 UNK        -0.5000 
     84 N          -1.8236  -26.0197  -49.9822 N.am      15 UNK        -0.5000 
     85 CA         -2.4298  -26.0043  -51.3151 C.3       15 UNK         0.1400 
     86 CB         -2.1594  -24.6365  -51.9654 C.3       15 UNK        -0.1800 
     87 C          -3.9438  -26.3160  -51.2975 C.2       15 UNK         0.5000 
     88 O          -4.5785  -26.2542  -52.3511 O.2       15 UNK        -0.5000 
     89 N          -4.5120  -26.6040  -50.1143 N.am      16 UNK        -0.5000 
     90 CA         -5.9220  -26.9101  -49.8359 C.3       16 UNK         0.1400 
     91 CB         -6.3045  -28.2673  -50.4614 C.3       16 UNK        -0.1800 
     92 C          -6.8985  -25.7821  -50.2352 C.2       16 UNK         0.5000 
     93 O          -8.0740  -26.0522  -50.4865 O.2       16 UNK        -0.5000 
     94 N          -6.3831  -24.5462  -50.3258 N.am      17 UNK        -0.5000 
     95 CA         -7.0210  -23.3426  -50.8681 C.3       17 UNK         0.1400 
     96 CB         -8.1722  -22.8729  -49.9564 C.3       17 UNK        -0.1800 
     97 C          -7.4447  -23.4605  -52.3521 C.2       17 UNK         0.5000 
     98 O          -8.2130  -22.6238  -52.8284 O.2       17 UNK        -0.5000 
     99 N          -6.9252  -24.4673  -53.0738 N.am      18 UNK        -0.5000 
    100 CA        -7.1304  -24.6502  -54.5137 C.3       18 UNK         0.1400 
    101 CB        -6.8392  -26.1114  -54.8875 C.3       18 UNK        -0.1800 
    102 C         -6.2532  -23.6896  -55.3378 C.2       18 UNK         0.5000 
    103 O         -6.5955  -23.3683  -56.4764 O.2       18 UNK        -0.5000 
    104 N         -5.1588  -23.2289  -54.7259 N.am      19 UNK        -0.5000 
    105 CA        -4.3236  -22.1233  -55.1624 C.3       19 UNK         0.1400 
    106 CB        -2.9918  -22.6698  -55.7003 C.3       19 UNK        -0.1800 
    107 C         -4.0998  -21.2154  -53.9446 C.2       19 UNK         0.5000 
    108 O         -4.2230  -21.6752  -52.8035 O.2       19 UNK        -0.5000 
    109 N         -3.7676  -19.9478  -54.2165 N.am      20 UNK        -0.5000 
    110 CA        -3.5105  -18.8579  -53.2706 C.3       20 UNK         0.1400 
    111 CB        -2.3186  -19.1748  -52.3465 C.3       20 UNK        -0.1800 
    112 C         -4.7530  -18.4243  -52.4703 C.2       20 UNK         0.5000 
    113 O         -5.2450  -17.3155  -52.6803 O.2       20 UNK        -0.5000 
    114 N         -5.2175  -19.2966  -51.5634 N.am      21 UNK        -0.5000 
    115 CA        -6.3436  -19.1099  -50.6359 C.3       21 UNK         0.1400 
    116 CB        -7.6768  -19.0732  -51.4104 C.3       21 UNK        -0.1800 
    117 C         -6.1738  -17.9065  -49.6755 C.2       21 UNK         0.5000 
    118 O         -7.1667  -17.3248  -49.2339 O.2       21 UNK        -0.5000 
    119 N         -4.9169  -17.5511  -49.3828 N.am      22 UNK        -0.5000 
    120 CA        -4.5086  -16.4602  -48.4875 C.3       22 UNK         0.1400 
    121 C         -4.5067  -16.8659  -46.9781 C.2       22 UNK         0.5000 
    122 N         -3.8438  -16.1191  -46.1033 N.am      22 UNK        -0.7600 
    123 O         -5.1310  -17.8439  -46.5722 O.2       22 UNK        -0.5000 
    124 C124       -3.1910  -15.8133  -48.9924 C.3       23 UNK        -0.0398 
    125 S125       -1.7490  -16.9241  -48.8960 S.3       23 UNK        -0.2404 
    126 C126       -0.6818  -16.2714  -50.2135 C.3       23 UNK        -0.0205 
    127 H127        3.9460  -12.6376  -53.2032 H         1 UNK         0.0600 
    128 H128        2.4375  -11.8297  -52.7656 H         1 UNK         0.0600 
    129 H129        2.5238  -13.5945  -52.7788 H         1 UNK         0.0600 
    130 H130        5.4203  -12.5518  -51.5914 H         1 UNK         0.3000 
    131 H131        6.4166  -12.1371  -49.6976 H         1 UNK         0.0600 
    132 H132        6.4351  -13.9630  -48.0774 H         1 UNK         0.0800 
    133 H133        6.4894  -14.5278  -49.7094 H         1 UNK         0.0800 
    134 H134        4.4349  -15.4940  -51.0211 H         1 UNK         0.0800 
    135 H135        5.2386  -16.8175  -50.2084 H         1 UNK         0.0800 
    136 H136        1.8214  -15.2306  -50.0324 H         1 UNK         0.1150 
    137 H137       -0.2271  -18.9550  -50.5479 H         1 UNK         0.1150 
    138 H138        4.0541  -18.8525  -50.5550 H         1 UNK         0.1150 
    139 H139        0.9233  -20.9713  -50.8872 H         1 UNK         0.0800 
    140 H140        2.3790  -20.7489  -51.8225 H         1 UNK         0.0800 
    141 H141        1.3997  -20.2062  -48.2023 H         1 UNK         0.0800 
    142 H142        2.7519  -20.8540  -47.3327 H         1 UNK         0.0800 
    143 H143        1.6972  -23.1862  -47.5631 H         1 UNK         0.0600 
    144 H144        1.0527  -21.1526  -45.7077 H         1 UNK         0.3000 
    145 H145       -0.9899  -23.0913  -43.5109 H         1 UNK         0.0600 
    146 H146        1.3641  -23.6592  -42.9079 H         1 UNK         0.0600 
    147 H147        1.8519  -21.9945  -43.1999 H         1 UNK         0.0600 
    148 H148        0.7312  -22.3716  -41.8939 H         1 UNK         0.0600 
    149 H149       -0.0733  -20.4101  -43.3324 H         1 UNK         0.3000 
    150 H150       -2.7223  -18.9016  -45.2531 H         1 UNK         0.0600 
    151 H151       -2.7783  -17.5568  -43.1325 H         1 UNK         0.0600 
    152 H152       -1.9839  -18.8802  -42.2805 H         1 UNK         0.0600 
    153 H153       -3.5891  -19.1075  -42.9576 H         1 UNK         0.0600 
    154 H154       -0.4725  -17.6993  -44.0370 H         1 UNK         0.3000 
    155 H155        1.8660  -18.2208  -46.7194 H         1 UNK         0.0600 
    156 H156        0.5910  -16.2114  -47.3274 H         1 UNK         0.0600 
    157 H157        2.0342  -15.7656  -46.4388 H         1 UNK         0.0600 
    158 H158        0.4597  -15.7275  -45.6403 H         1 UNK         0.0600 
    159 H159        1.9317  -16.9939  -44.0880 H         1 UNK         0.3000 
    160 H160        3.3027  -19.8538  -42.4359 H         1 UNK         0.0600 
    161 H161        5.2434  -18.7503  -43.5628 H         1 UNK         0.0600 
    162 H162        5.0783  -18.2090  -41.9001 H         1 UNK         0.0600 
    163 H163        4.5561  -17.1664  -43.2237 H         1 UNK         0.0600 
    164 H164        2.7254  -17.1958  -41.5527 H         1 UNK         0.3000 
    165 H165       -0.6850  -17.6698  -40.7118 H         1 UNK         0.0600 
    166 H166        0.0819  -17.1405  -38.4189 H         1 UNK         0.0600 
    167 H167        0.4784  -18.8050  -38.8131 H         1 UNK         0.0600 
    168 H168        1.7390  -17.5777  -38.8381 H         1 UNK         0.0600 
    169 H169        1.0555  -15.5409  -40.1053 H         1 UNK         0.3000 
    170 H170        0.6057  -13.5254  -41.1709 H         1 UNK         0.0600 
    171 H171        2.6420  -12.8870  -42.5287 H         1 UNK         0.0600 
    172 H172        2.8994  -14.3259  -41.5568 H         1 UNK         0.0600 
    173 H173        2.6145  -14.4800  -43.2834 H         1 UNK         0.0600 
    174 H174        0.5911  -13.1699  -44.0517 H         1 UNK         0.3000 
    175 H175       -2.7748  -12.4915  -44.4379 H         1 UNK         0.0600 
    176 H176       -1.0109  -10.1269  -43.6048 H         1 UNK         0.0600 
    177 H177       -2.4494  -10.0310  -44.6214 H         1 UNK         0.0600 
    178 H178       -2.5931  -10.5145  -42.9401 H         1 UNK         0.0600 
    179 H179       -0.2996  -11.3877  -45.5799 H         1 UNK         0.3000 
    180 H180        0.2248  -14.0054  -47.8225 H         1 UNK         0.0600 
    181 H181       -0.1686  -12.4603  -49.6921 H         1 UNK         0.0600 
    182 H182       -1.0792  -11.3664  -48.6499 H         1 UNK         0.0600 
    183 H183       -1.7120  -12.9627  -49.0282 H         1 UNK         0.0600 
    184 H184        1.4059  -11.5845  -48.0960 H         1 UNK         0.3000 
    185 H185        3.0761  -10.5781  -46.7767 H         1 UNK         0.0600 
    186 H186        4.3740  -12.4860  -44.7420 H         1 UNK         0.0600 
    187 H187        4.9756  -10.8927  -45.1934 H         1 UNK         0.0600 
    188 H188        3.4456  -11.0449  -44.3414 H         1 UNK         0.0600 
    189 H189        4.1443  -13.2705  -47.4056 H         1 UNK         0.3000 
    190 H190       -1.0378  -20.8485  -47.5104 H         1 UNK         0.3000 
    191 H191       -2.3710  -21.8499  -49.8244 H         1 UNK         0.0600 
    192 H192       -3.4197  -20.2993  -47.4022 H         1 UNK         0.0600 
    193 H193       -4.3291  -20.5848  -48.8795 H         1 UNK         0.0600 
    194 H194       -2.8525  -19.6317  -48.9296 H         1 UNK         0.0600 
    195 H195       -2.6688  -22.7438  -46.3562 H         1 UNK         0.3000 
    196 H196       -4.7838  -24.6115  -46.6694 H         1 UNK         0.0600 
    197 H197       -4.0921  -25.4112  -44.4266 H         1 UNK         0.0600 
    198 H198       -4.1098  -23.6551  -44.4741 H         1 UNK         0.0600 
    199 H199       -2.5787  -24.5266  -44.5469 H         1 UNK         0.0600 
    200 H200       -1.2213  -25.0473  -46.8766 H         1 UNK         0.3000 
    201 H201       -1.2317  -27.8570  -47.3262 H         1 UNK         0.0600 
    202 H202        0.8003  -26.5904  -46.6822 H         1 UNK         0.0600 
    203 H203        0.7828  -25.7256  -48.2169 H         1 UNK         0.0600 
    204 H204        1.0753  -27.4594  -48.1844 H         1 UNK         0.0600 
    205 H205       -1.7596  -25.1268  -49.5088 H         1 UNK         0.3000 
    206 H206       -1.9514  -26.7690  -51.9301 H         1 UNK         0.0600 
    207 H207       -2.5160  -24.6177  -52.9953 H         1 UNK         0.0600 
    208 H208       -2.6599  -23.8270  -51.4344 H         1 UNK         0.0600 
    209 H209       -1.0929  -24.4119  -51.9871 H         1 UNK         0.0600 
    210 H210       -3.9181  -26.5987  -49.2940 H         1 UNK         0.3000 
    211 H211       -6.0074  -27.0093  -48.7535 H         1 UNK         0.0600 
    212 H212       -6.3108  -28.2228  -51.5510 H         1 UNK         0.0600 
    213 H213       -7.2983  -28.5821  -50.1411 H         1 UNK         0.0600 
    214 H214       -5.6069  -29.0493  -50.1614 H         1 UNK         0.0600 
    215 H215       -5.4139  -24.4202  -50.0418 H         1 UNK         0.3000 
    216 H216       -6.2512  -22.5698  -50.8454 H         1 UNK         0.0600 
    217 H217       -8.5515  -21.9004  -50.2718 H         1 UNK         0.0600 
    218 H218       -7.8384  -22.7689  -48.9240 H         1 UNK         0.0600 
    219 H219       -9.0103  -23.5698  -49.9708 H         1 UNK         0.0600 
    220 H220       -6.2796  -25.1111  -52.6282 H         1 UNK         0.3000 
    221 H221       -8.1754  -24.4395  -54.7503 H         1 UNK         0.0600 
    222 H222       -5.7911  -26.3677  -54.7300 H         1 UNK         0.0600 
    223 H223       -7.4454  -26.7990  -54.2975 H         1 UNK         0.0600 
    224 H224       -7.0655  -26.2956  -55.9384 H         1 UNK         0.0600 
    225 H225       -5.0016  -23.5047  -53.7651 H         1 UNK         0.3000 
    226 H226       -4.8285  -21.5479  -55.9412 H         1 UNK         0.0600 
    227 H227       -3.1555  -23.3506  -56.5359 H         1 UNK         0.0600 
    228 H228       -2.3537  -21.8616  -56.0593 H         1 UNK         0.0600 
    229 H229       -2.4366  -23.2095  -54.9330 H         1 UNK         0.0600 
    230 H230       -3.7139  -19.6778  -55.1889 H         1 UNK         0.3000 
    231 H231       -3.2209  -17.9988  -53.8782 H         1 UNK         0.0600 
    232 H232       -2.4660  -20.0786  -51.7562 H         1 UNK         0.0600 
    233 H233       -1.3988  -19.2968  -52.9183 H         1 UNK         0.0600 
    234 H234       -2.1621  -18.3592  -51.6439 H         1 UNK         0.0600 
    235 H235       -4.7764  -20.2111  -51.5555 H         1 UNK         0.3000 
    236 H236       -6.3653  -19.9970  -50.0021 H         1 UNK         0.0600 
    237 H237       -7.7665  -18.1728  -52.0186 H         1 UNK         0.0600 
    238 H238       -7.7718  -19.9348  -52.0713 H         1 UNK         0.0600 
    239 H239       -8.5277  -19.0946  -50.7288 H         1 UNK         0.0600 
    240 H240       -4.1631  -18.0978  -49.7684 H         1 UNK         0.3000 
    241 H241       -5.2735  -15.6850  -48.5580 H         1 UNK         0.0600 
    242 H242       -3.8715  -16.3847  -45.1337 H         1 UNK         0.3800 
    243 H243       -3.2465  -15.3438  -46.3779 H         1 UNK         0.3800 
    244 H244       -3.3212  -15.4969  -50.0283 H         1 UNK         0.0800 
    245 H245       -2.9756  -14.9016  -48.4394 H         1 UNK         0.0800 
    246 H246       -0.5183  -15.2083  -50.0320 H         1 UNK         0.0800 
    247 H247       -1.1873  -16.3436  -51.1762 H         1 UNK         0.0800 
@<TRIPOS>BOND
     1    1    2 1    
     2    1  127 1    
     3    1  128 1    
     4    1  129 1    
     5    2    3 2    
     6    2    4 am   BACKBONE|DICT|INTERRES
     7    4    5 1    
     8    4  130 1    
     9    5    6 1    
    10    5   65 1    
    11    5  131 1    
    12    6    7 1    
    13    6  132 1    
    14    6  133 1    
    15    7    8 1    
    16    8    9 1    
    17    8  134 1    
    18    8  135 1    
    19    9   10 ar   
    20    9   14 ar   
    21   10   11 ar   
    22   10  136 1    
    23   11   12 ar   
    24   11  126 1    
    25   12   13 ar   
    26   12  137 1    
    27   13   14 ar   
    28   13   15 1    
    29   14  138 1    
    30   15   16 1    
    31   15  139 1    
    32   15  140 1    
    33   16   17 1    
    34   17   18 1    
    35   17  141 1    
    36   17  142 1    
    37   18   19 1    
    38   18   67 1    
    39   18  143 1    
    40   19   20 am   BACKBONE|DICT|INTERRES
    41   19  144 1    
    42   20   21 2    
    43   20   22 1    
    44   22   23 1    
    45   22   24 1    
    46   22  145 1    
    47   23  146 1    
    48   23  147 1    
    49   23  148 1    
    50   24   25 am   BACKBONE|DICT|INTERRES
    51   24  149 1    
    52   25   26 2    
    53   25   27 1    
    54   27   28 1    
    55   27   29 1    
    56   27  150 1    
    57   28  151 1    
    58   28  152 1    
    59   28  153 1    
    60   29   30 am   BACKBONE|DICT|INTERRES
    61   29  154 1    
    62   30   31 2    
    63   30   32 1    
    64   32   33 1    
    65   32   34 1    
    66   32  155 1    
    67   33  156 1    
    68   33  157 1    
    69   33  158 1    
    70   34   35 am   BACKBONE|DICT|INTERRES
    71   34  159 1    
    72   35   36 2    
    73   35   37 1    
    74   37   38 1    
    75   37   39 1    
    76   37  160 1    
    77   38  161 1    
    78   38  162 1    
    79   38  163 1    
    80   39   40 am   BACKBONE|DICT|INTERRES
    81   39  164 1    
    82   40   41 2    
    83   40   42 1    
    84   42   43 1    
    85   42   44 1    
    86   42  165 1    
    87   43  166 1    
    88   43  167 1    
    89   43  168 1    
    90   44   45 am   BACKBONE|DICT|INTERRES
    91   44  169 1    
    92   45   46 2    
    93   45   47 1    
    94   47   48 1    
    95   47   49 1    
    96   47  170 1    
    97   48  171 1    
    98   48  172 1    
    99   48  173 1    
   100   49   50 am   BACKBONE|DICT|INTERRES
   101   49  174 1    
   102   50   51 2    
   103   50   52 1    
   104   52   53 1    
   105   52   54 1    
   106   52  175 1    
   107   53  176 1    
   108   53  177 1    
   109   53  178 1    
   110   54   55 am   BACKBONE|DICT|INTERRES
   111   54  179 1    
   112   55   56 2    
   113   55   57 1    
   114   57   58 1    
   115   57   59 1    
   116   57  180 1    
   117   58  181 1    
   118   58  182 1    
   119   58  183 1    
   120   59   60 am   BACKBONE|DICT|INTERRES
   121   59  184 1    
   122   60   61 2    
   123   60   62 1    
   124   62   63 1    
   125   62   64 1    
   126   62  185 1    
   127   63  186 1    
   128   63  187 1    
   129   63  188 1    
   130   64   65 am   BACKBONE|DICT|INTERRES
   131   64  189 1    
   132   65   66 2    
   133   67   68 2    
   134   67   69 am   BACKBONE|DICT|INTERRES
   135   69   70 1    
   136   69  190 1    
   137   70   71 1    
   138   70   72 1    
   139   70  191 1    
   140   71  192 1    
   141   71  193 1    
   142   71  194 1    
   143   72   73 2    
   144   72   74 am   BACKBONE|DICT|INTERRES
   145   74   75 1    
   146   74  195 1    
   147   75   76 1    
   148   75   77 1    
   149   75  196 1    
   150   76  197 1    
   151   76  198 1    
   152   76  199 1    
   153   77   78 2    
   154   77   79 am   BACKBONE|DICT|INTERRES
   155   79   80 1    
   156   79  200 1    
   157   80   81 1    
   158   80   82 1    
   159   80  201 1    
   160   81  202 1    
   161   81  203 1    
   162   81  204 1    
   163   82   83 2    
   164   82   84 am   BACKBONE|DICT|INTERRES
   165   84   85 1    
   166   84  205 1    
   167   85   86 1    
   168   85   87 1    
   169   85  206 1    
   170   86  207 1    
   171   86  208 1    
   172   86  209 1    
   173   87   88 2    
   174   87   89 am   BACKBONE|DICT|INTERRES
   175   89   90 1    
   176   89  210 1    
   177   90   91 1    
   178   90   92 1    
   179   90  211 1    
   180   91  212 1    
   181   91  213 1    
   182   91  214 1    
   183   92   93 2    
   184   92   94 am   BACKBONE|DICT|INTERRES
   185   94   95 1    
   186   94  215 1    
   187   95   96 1    
   188   95   97 1    
   189   95  216 1    
   190   96  217 1    
   191   96  218 1    
   192   96  219 1    
   193   97   98 2    
   194   97   99 am   BACKBONE|DICT|INTERRES
   195   99  100 1    
   196   99  220 1    
   197  100  101 1    
   198  100  102 1    
   199  100  221 1    
   200  101  222 1    
   201  101  223 1    
   202  101  224 1    
   203  102  103 2    
   204  102  104 am   BACKBONE|DICT|INTERRES
   205  104  105 1    
   206  104  225 1    
   207  105  106 1    
   208  105  107 1    
   209  105  226 1    
   210  106  227 1    
   211  106  228 1    
   212  106  229 1    
   213  107  108 2    
   214  107  109 am   BACKBONE|DICT|INTERRES
   215  109  110 1    
   216  109  230 1    
   217  110  111 1    
   218  110  112 1    
   219  110  231 1    
   220  111  232 1    
   221  111  233 1    
   222  111  234 1    
   223  112  113 2    
   224  112  114 am   BACKBONE|DICT|INTERRES
   225  114  115 1    
   226  114  235 1    
   227  115  116 1    
   228  115  117 1    
   229  115  236 1    
   230  116  237 1    
   231  116  238 1    
   232  116  239 1    
   233  117  118 2    
   234  117  119 am   BACKBONE|DICT|INTERRES
   235  119  120 1    
   236  119  240 1    
   237  120  121 1    
   238  120  124 1    
   239  120  241 1    
   240  121  122 am   BACKBONE|DICT|INTERRES
   241  121  123 2    
   242  122  242 1    
   243  122  243 1    
   244  124  125 1    
   245  124  244 1    
   246  124  245 1    
   247  125  126 1    
   248  126  246 1    
   249  126  247 1    
@<TRIPOS>SUBSTRUCTURE
     1 UNK         1 GROUP             0       ****    0 ROOT    
