@<TRIPOS>MOLECULE
3R540
247   249    1
SMALL
USER_CHARGES


@<TRIPOS>ATOM
      1 CA         -5.0666  -14.5002  -44.1193 C.3       0 UNK        -0.1800 
      2 C          -4.6742  -14.3549  -45.5827 C.2       0 UNK         0.5000 
      3 O          -5.1069  -13.4109  -46.2435 O.2       0 UNK        -0.5000 
      4 N          -3.8561  -15.2872  -46.0873 N.am      1 UNK        -0.5000 
      5 CA         -3.3547  -15.3291  -47.4687 C.3       1 UNK         0.1400 
      6 C6         -2.6163  -16.6541  -47.7868 C.3       23 UNK        -0.0398 
      7 S7         -3.5474  -18.1621  -47.3422 S.3       23 UNK        -0.2404 
      8 C8         -4.1401  -18.7556  -48.9586 C.3       23 UNK        -0.0205 
      9 C9         -2.9996  -19.0981  -49.9061 C.ar      23 UNK        -0.0193 
     10 C10        -2.7224  -18.2687  -50.9948 C.ar      23 UNK        -0.1150 
     11 C11        -1.6902  -18.5662  -51.8899 C.ar      23 UNK        -0.0193 
     12 C12        -0.9177  -19.7123  -51.6621 C.ar      23 UNK        -0.1150 
     13 C13        -1.1861  -20.5544  -50.5792 C.ar      23 UNK        -0.0193 
     14 C14        -2.2326  -20.2467  -49.7066 C.ar      23 UNK        -0.1150 
     15 C15        -0.3770  -21.8251  -50.3870 C.3       23 UNK        -0.0205 
     16 S16         1.2251  -21.5331  -49.5728 S.3       23 UNK        -0.2404 
     17 C17         0.7568  -21.1162  -47.8580 C.3       23 UNK        -0.0398 
     18 CA          0.6305  -22.3671  -46.9486 C.3       11 UNK         0.1400 
     19 N           1.1212  -22.1264  -45.5868 N.am      11 UNK        -0.5000 
     20 C           1.2861  -23.0833  -44.6612 C.2       10 UNK         0.5000 
     21 O           1.0574  -24.2746  -44.8634 O.2       10 UNK        -0.5000 
     22 CA          1.7233  -22.6365  -43.2556 C.3       10 UNK         0.1400 
     23 CB          3.2259  -22.3220  -43.2158 C.3       10 UNK        -0.1800 
     24 N           0.9536  -21.4917  -42.7705 N.am      10 UNK        -0.5000 
     25 C          -0.3707  -21.5130  -42.5582 C.2       9 UNK         0.5000 
     26 O          -1.0700  -22.5161  -42.6979 O.2       9 UNK        -0.5000 
     27 CA         -1.0365  -20.1832  -42.1669 C.3       9 UNK         0.1400 
     28 CB         -0.8796  -19.9227  -40.6616 C.3       9 UNK        -0.1800 
     29 N          -0.5215  -19.0422  -42.9245 N.am      9 UNK        -0.5000 
     30 C          -0.6017  -18.9112  -44.2570 C.2       8 UNK         0.5000 
     31 O          -1.1351  -19.7350  -44.9990 O.2       8 UNK        -0.5000 
     32 CA          0.0849  -17.6798  -44.8707 C.3       8 UNK         0.1400 
     33 CB         -0.7095  -16.4003  -44.5729 C.3       8 UNK        -0.1800 
     34 N           1.4584  -17.5187  -44.4016 N.am      8 UNK        -0.5000 
     35 C           2.4378  -18.4187  -44.5638 C.2       7 UNK         0.5000 
     36 O           2.3091  -19.4722  -45.1875 O.2       7 UNK        -0.5000 
     37 CA          3.7702  -18.1085  -43.8633 C.3       7 UNK         0.1400 
     38 CB          4.6175  -17.1380  -44.6998 C.3       7 UNK        -0.1800 
     39 N           3.5612  -17.5552  -42.5248 N.am      7 UNK        -0.5000 
     40 C           3.0872  -18.2549  -41.4842 C.2       6 UNK         0.5000 
     41 O           2.8017  -19.4512  -41.5363 O.2       6 UNK        -0.5000 
     42 CA          2.8602  -17.4746  -40.1767 C.3       6 UNK         0.1400 
     43 CB          4.1814  -17.2918  -39.4148 C.3       6 UNK        -0.1800 
     44 N           2.2419  -16.1667  -40.4016 N.am      6 UNK        -0.5000 
     45 C           0.9918  -15.9944  -40.8525 C.2       5 UNK         0.5000 
     46 O           0.2249  -16.9212  -41.1087 O.2       5 UNK        -0.5000 
     47 CA          0.5290  -14.5464  -41.0948 C.3       5 UNK         0.1400 
     48 CB         -0.0223  -13.9336  -39.7991 C.3       5 UNK        -0.1800 
     49 N           1.5568  -13.6608  -41.6472 N.am      5 UNK        -0.5000 
     50 C           2.2471  -13.8684  -42.7759 C.2       4 UNK         0.5000 
     51 O           2.1762  -14.9006  -43.4449 O.2       4 UNK        -0.5000 
     52 CA          3.1158  -12.6928  -43.2598 C.3       4 UNK         0.1400 
     53 CB          4.2173  -13.1429  -44.2356 C.3       4 UNK        -0.1800 
     54 N           2.2681  -11.7079  -43.9265 N.am      4 UNK        -0.5000 
     55 C           1.4557  -10.8372  -43.3110 C.2       3 UNK         0.5000 
     56 O           1.4468  -10.6579  -42.0920 O.2       3 UNK        -0.5000 
     57 CA          0.4650  -10.0620  -44.2036 C.3       3 UNK         0.1400 
     58 CB          1.0316   -8.6800  -44.5629 C.3       3 UNK        -0.1800 
     59 N           0.1172  -10.7751  -45.4381 N.am      3 UNK        -0.5000 
     60 C          -0.5800  -11.9184  -45.4888 C.2       2 UNK         0.5000 
     61 O          -1.0545  -12.4814  -44.4977 O.2       2 UNK        -0.5000 
     62 CA         -0.7375  -12.5534  -46.8777 C.3       2 UNK         0.1400 
     63 CB          0.6040  -13.1303  -47.3718 C.3       2 UNK        -0.1800 
     64 N          -1.7253  -13.6205  -46.7911 N.am      2 UNK        -0.5000 
     65 C          -2.4187  -14.1466  -47.8067 C.2       1 UNK         0.5000 
     66 O          -2.3265  -13.7581  -48.9717 O.2       1 UNK        -0.5000 
     67 C          -0.8107  -22.9167  -46.9476 C.2       11 UNK         0.5000 
     68 O          -1.0912  -23.9017  -47.6349 O.2       11 UNK        -0.5000 
     69 N          -1.6886  -22.2938  -46.1488 N.am      12 UNK        -0.5000 
     70 CA         -3.0845  -22.6915  -45.9681 C.3       12 UNK         0.1400 
     71 CB         -3.8010  -21.6648  -45.0794 C.3       12 UNK        -0.1800 
     72 C          -3.2471  -24.1122  -45.3960 C.2       12 UNK         0.5000 
     73 O          -4.1805  -24.8127  -45.7846 O.2       12 UNK        -0.5000 
     74 N          -2.3361  -24.5158  -44.5020 N.am      13 UNK        -0.5000 
     75 CA         -2.2848  -25.8585  -43.9325 C.3       13 UNK         0.1400 
     76 CB         -1.4871  -25.8258  -42.6191 C.3       13 UNK        -0.1800 
     77 C          -1.6871  -26.8883  -44.9080 C.2       13 UNK         0.5000 
     78 O          -2.2689  -27.9591  -45.0870 O.2       13 UNK        -0.5000 
     79 N          -0.5221  -26.5685  -45.4882 N.am      14 UNK        -0.5000 
     80 CA          0.2799  -27.5031  -46.2773 C.3       14 UNK         0.1400 
     81 CB          1.7354  -27.0127  -46.3322 C.3       14 UNK        -0.1800 
     82 C          -0.2552  -27.7359  -47.6986 C.2       14 UNK         0.5000 
     83 O          -0.2894  -28.8845  -48.1435 O.2       14 UNK        -0.5000 
     84 N          -0.6247  -26.6535  -48.3938 N.am      15 UNK        -0.5000 
     85 CA         -1.0108  -26.6791  -49.8054 C.3       15 UNK         0.1400 
     86 CB         -0.1274  -25.6947  -50.5878 C.3       15 UNK        -0.1800 
     87 C          -2.4974  -26.3542  -50.0027 C.2       15 UNK         0.5000 
     88 O          -3.1380  -26.9898  -50.8407 O.2       15 UNK        -0.5000 
     89 N          -3.0174  -25.3825  -49.2353 N.am      16 UNK        -0.5000 
     90 CA         -4.4097  -24.9072  -49.2506 C.3       16 UNK         0.1400 
     91 CB         -5.3611  -26.0051  -48.7275 C.3       16 UNK        -0.1800 
     92 C          -4.8535  -24.3425  -50.6204 C.2       16 UNK         0.5000 
     93 O          -6.0097  -24.5096  -51.0150 O.2       16 UNK        -0.5000 
     94 N          -3.9149  -23.7075  -51.3346 N.am      17 UNK        -0.5000 
     95 CA         -4.1132  -23.1609  -52.6761 C.3       17 UNK         0.1400 
     96 CB         -2.7399  -22.8877  -53.3029 C.3       17 UNK        -0.1800 
     97 C          -4.9783  -21.8856  -52.6884 C.2       17 UNK         0.5000 
     98 O          -5.1365  -21.2244  -51.6596 O.2       17 UNK        -0.5000 
     99 N          -5.5125  -21.5608  -53.8721 N.am      18 UNK        -0.5000 
    100 CA        -6.3091  -20.3623  -54.1208 C.3       18 UNK         0.1400 
    101 CB        -7.0680  -20.5300  -55.4463 C.3       18 UNK        -0.1800 
    102 C         -5.4264  -19.1049  -54.1739 C.2       18 UNK         0.5000 
    103 O         -4.3900  -19.1115  -54.8449 O.2       18 UNK        -0.5000 
    104 N         -5.8898  -18.0281  -53.5262 N.am      19 UNK        -0.5000 
    105 CA        -5.2150  -16.7278  -53.4418 C.3       19 UNK         0.1400 
    106 CB        -5.9676  -15.8372  -52.4419 C.3       19 UNK        -0.1800 
    107 C         -5.0270  -16.0062  -54.7896 C.2       19 UNK         0.5000 
    108 O         -4.1786  -15.1198  -54.8889 O.2       19 UNK        -0.5000 
    109 N         -5.8043  -16.4079  -55.8016 N.am      20 UNK        -0.5000 
    110 CA        -5.7361  -15.8976  -57.1672 C.3       20 UNK         0.1400 
    111 CB        -7.0109  -16.3272  -57.9110 C.3       20 UNK        -0.1800 
    112 C         -4.4847  -16.3493  -57.9480 C.2       20 UNK         0.5000 
    113 O         -4.1731  -15.7191  -58.9602 O.2       20 UNK        -0.5000 
    114 N         -3.8090  -17.4248  -57.5098 N.am      21 UNK        -0.5000 
    115 CA        -2.7042  -18.0285  -58.2627 C.3       21 UNK         0.1400 
    116 CB        -3.2720  -19.0719  -59.2425 C.3       21 UNK        -0.1800 
    117 C         -1.5913  -18.6523  -57.4037 C.2       21 UNK         0.5000 
    118 O         -0.4690  -18.7571  -57.9000 O.2       21 UNK        -0.5000 
    119 N         -1.8985  -19.0914  -56.1737 N.am      22 UNK        -0.5000 
    120 CA        -1.0090  -19.8926  -55.3048 C.3       22 UNK         0.1400 
    121 C         -0.7202  -21.3302  -55.8479 C.2       22 UNK         0.5000 
    122 N         -1.5002  -21.8563  -56.7853 N.am      22 UNK        -0.7600 
    123 O          0.2007  -22.0013  -55.3907 O.2       22 UNK        -0.5000 
    124 C124        0.3025  -19.1574  -54.8796 C.3       23 UNK        -0.0398 
    125 S125        0.1697  -17.6367  -53.8630 S.3       23 UNK        -0.2404 
    126 C126       -1.4889  -17.6422  -53.0955 C.3       23 UNK        -0.0205 
    127 H127       -4.6185  -15.3843  -43.6648 H         1 UNK         0.0600 
    128 H128       -6.1496  -14.5821  -44.0270 H         1 UNK         0.0600 
    129 H129       -4.7397  -13.6263  -43.5558 H         1 UNK         0.0600 
    130 H130       -3.5814  -16.0655  -45.5064 H         1 UNK         0.3000 
    131 H131       -4.2201  -15.2580  -48.1310 H         1 UNK         0.0600 
    132 H132       -2.3515  -16.6812  -48.8429 H         1 UNK         0.0800 
    133 H133       -1.6649  -16.6999  -47.2571 H         1 UNK         0.0800 
    134 H134       -4.7978  -18.0038  -49.3974 H         1 UNK         0.0800 
    135 H135       -4.7542  -19.6444  -48.8061 H         1 UNK         0.0800 
    136 H136       -3.3192  -17.3811  -51.1372 H         1 UNK         0.1150 
    137 H137       -0.1112  -19.9742  -52.3268 H         1 UNK         0.1150 
    138 H138       -2.4537  -20.8967  -48.8717 H         1 UNK         0.1150 
    139 H139       -0.9580  -22.5550  -49.8276 H         1 UNK         0.0800 
    140 H140       -0.1865  -22.2803  -51.3601 H         1 UNK         0.0800 
    141 H141       -0.1355  -20.4884  -47.8366 H         1 UNK         0.0800 
    142 H142        1.5584  -20.4748  -47.4919 H         1 UNK         0.0800 
    143 H143        1.2690  -23.1544  -47.3557 H         1 UNK         0.0600 
    144 H144        1.3518  -21.1662  -45.3458 H         1 UNK         0.3000 
    145 H145        1.5385  -23.4694  -42.5740 H         1 UNK         0.0600 
    146 H146        3.5519  -22.0879  -42.2023 H         1 UNK         0.0600 
    147 H147        3.8118  -23.1766  -43.5562 H         1 UNK         0.0600 
    148 H148        3.4811  -21.4754  -43.8524 H         1 UNK         0.0600 
    149 H149        1.4691  -20.6371  -42.5896 H         1 UNK         0.3000 
    150 H150       -2.1023  -20.2699  -42.3863 H         1 UNK         0.0600 
    151 H151       -1.2561  -20.7630  -40.0770 H         1 UNK         0.0600 
    152 H152       -1.4383  -19.0382  -40.3553 H         1 UNK         0.0600 
    153 H153        0.1648  -19.7706  -40.3865 H         1 UNK         0.0600 
    154 H154       -0.0883  -18.3008  -42.3799 H         1 UNK         0.3000 
    155 H155        0.1169  -17.8229  -45.9526 H         1 UNK         0.0600 
    156 H156       -0.6981  -16.1563  -43.5124 H         1 UNK         0.0600 
    157 H157       -1.7522  -16.5154  -44.8618 H         1 UNK         0.0600 
    158 H158       -0.3014  -15.5473  -45.1146 H         1 UNK         0.0600 
    159 H159        1.6750  -16.6540  -43.9116 H         1 UNK         0.3000 
    160 H160        4.3241  -19.0443  -43.7639 H         1 UNK         0.0600 
    161 H161        4.1113  -16.1845  -44.8511 H         1 UNK         0.0600 
    162 H162        4.8264  -17.5562  -45.6851 H         1 UNK         0.0600 
    163 H163        5.5763  -16.9373  -44.2217 H         1 UNK         0.0600 
    164 H164        3.6997  -16.5610  -42.4188 H         1 UNK         0.3000 
    165 H165        2.1865  -18.0648  -39.5515 H         1 UNK         0.0600 
    166 H166        4.0163  -16.8135  -38.4492 H         1 UNK         0.0600 
    167 H167        4.6564  -18.2547  -39.2222 H         1 UNK         0.0600 
    168 H168        4.8909  -16.6818  -39.9751 H         1 UNK         0.0600 
    169 H169        2.8076  -15.3504  -40.2217 H         1 UNK         0.3000 
    170 H170       -0.2851  -14.5800  -41.8207 H         1 UNK         0.0600 
    171 H171       -0.8093  -14.5586  -39.3746 H         1 UNK         0.0600 
    172 H172        0.7555  -13.8245  -39.0424 H         1 UNK         0.0600 
    173 H173       -0.4541  -12.9493  -39.9815 H         1 UNK         0.0600 
    174 H174        1.6382  -12.7497  -41.2141 H         1 UNK         0.3000 
    175 H175        3.5963  -12.2356  -42.3922 H         1 UNK         0.0600 
    176 H176        3.8017  -13.5797  -45.1448 H         1 UNK         0.0600 
    177 H177        4.8500  -12.3046  -44.5275 H         1 UNK         0.0600 
    178 H178        4.8629  -13.8922  -43.7758 H         1 UNK         0.0600 
    179 H179        2.1872  -11.7976  -44.9279 H         1 UNK         0.3000 
    180 H180       -0.4510   -9.9173  -43.6268 H         1 UNK         0.0600 
    181 H181        1.9419   -8.7600  -45.1585 H         1 UNK         0.0600 
    182 H182        1.2764   -8.1127  -43.6639 H         1 UNK         0.0600 
    183 H183        0.3091   -8.0921  -45.1292 H         1 UNK         0.0600 
    184 H184        0.4644  -10.3747  -46.2980 H         1 UNK         0.3000 
    185 H185       -1.0926  -11.7868  -47.5694 H         1 UNK         0.0600 
    186 H186        0.4997  -13.5958  -48.3519 H         1 UNK         0.0600 
    187 H187        1.3600  -12.3506  -47.4681 H         1 UNK         0.0600 
    188 H188        0.9936  -13.8836  -46.6852 H         1 UNK         0.0600 
    189 H189       -1.9089  -13.9323  -45.8454 H         1 UNK         0.3000 
    190 H190       -1.3888  -21.4660  -45.6370 H         1 UNK         0.3000 
    191 H191       -3.5571  -22.6700  -46.9506 H         1 UNK         0.0600 
    192 H192       -3.3551  -21.6139  -44.0861 H         1 UNK         0.0600 
    193 H193       -4.8538  -21.9210  -44.9556 H         1 UNK         0.0600 
    194 H194       -3.7586  -20.6673  -45.5166 H         1 UNK         0.0600 
    195 H195       -1.6379  -23.8542  -44.1803 H         1 UNK         0.3000 
    196 H196       -3.3026  -26.1752  -43.6944 H         1 UNK         0.0600 
    197 H197       -1.4306  -26.8182  -42.1701 H         1 UNK         0.0600 
    198 H198       -1.9578  -25.1652  -41.8909 H         1 UNK         0.0600 
    199 H199       -0.4660  -25.4750  -42.7740 H         1 UNK         0.0600 
    200 H200       -0.0905  -25.6709  -45.2783 H         1 UNK         0.3000 
    201 H201        0.2792  -28.4671  -45.7636 H         1 UNK         0.0600 
    202 H202        2.1554  -26.9116  -45.3313 H         1 UNK         0.0600 
    203 H203        1.8162  -26.0446  -46.8283 H         1 UNK         0.0600 
    204 H204        2.3648  -27.7154  -46.8797 H         1 UNK         0.0600 
    205 H205       -0.6162  -25.7445  -47.9408 H         1 UNK         0.3000 
    206 H206       -0.8453  -27.6702  -50.2328 H         1 UNK         0.0600 
    207 H207        0.9134  -26.0184  -50.5842 H         1 UNK         0.0600 
    208 H208       -0.4419  -25.6211  -51.6298 H         1 UNK         0.0600 
    209 H209       -0.1614  -24.6951  -50.1590 H         1 UNK         0.0600 
    210 H210       -2.3954  -24.9039  -48.5895 H         1 UNK         0.3000 
    211 H211       -4.4576  -24.0722  -48.5529 H         1 UNK         0.0600 
    212 H212       -5.4544  -26.8313  -49.4328 H         1 UNK         0.0600 
    213 H213       -6.3613  -25.6057  -48.5571 H         1 UNK         0.0600 
    214 H214       -5.0111  -26.4152  -47.7805 H         1 UNK         0.0600 
    215 H215       -3.0002  -23.5914  -50.9287 H         1 UNK         0.3000 
    216 H216       -4.6184  -23.9214  -53.2755 H         1 UNK         0.0600 
    217 H217       -2.8494  -22.6123  -54.3511 H         1 UNK         0.0600 
    218 H218       -2.0983  -23.7685  -53.2665 H         1 UNK         0.0600 
    219 H219       -2.2234  -22.0702  -52.8018 H         1 UNK         0.0600 
    220 H220       -5.3049  -22.1319  -54.6780 H         1 UNK         0.3000 
    221 H221       -7.0390  -20.2572  -53.3152 H         1 UNK         0.0600 
    222 H222       -6.3866  -20.6468  -56.2904 H         1 UNK         0.0600 
    223 H223       -7.7208  -21.4028  -55.4192 H         1 UNK         0.0600 
    224 H224       -7.6967  -19.6624  -55.6503 H         1 UNK         0.0600 
    225 H225       -6.7601  -18.1062  -53.0197 H         1 UNK         0.3000 
    226 H226       -4.2157  -16.9005  -53.0528 H         1 UNK         0.0600 
    227 H227       -6.0046  -16.2970  -51.4540 H         1 UNK         0.0600 
    228 H228       -5.4744  -14.8707  -52.3288 H         1 UNK         0.0600 
    229 H229       -6.9919  -15.6476  -52.7649 H         1 UNK         0.0600 
    230 H230       -6.4766  -17.1387  -55.6236 H         1 UNK         0.3000 
    231 H231       -5.7176  -14.8065  -57.1239 H         1 UNK         0.0600 
    232 H232       -7.9049  -15.9514  -57.4128 H         1 UNK         0.0600 
    233 H233       -7.0922  -17.4131  -57.9754 H         1 UNK         0.0600 
    234 H234       -7.0211  -15.9367  -58.9295 H         1 UNK         0.0600 
    235 H235       -4.1072  -17.8850  -56.6594 H         1 UNK         0.3000 
    236 H236       -2.2053  -17.2543  -58.8499 H         1 UNK         0.0600 
    237 H237       -2.4757  -19.5579  -59.8080 H         1 UNK         0.0600 
    238 H238       -3.8285  -19.8504  -58.7195 H         1 UNK         0.0600 
    239 H239       -3.9438  -18.6097  -59.9659 H         1 UNK         0.0600 
    240 H240       -2.8496  -19.0060  -55.8256 H         1 UNK         0.3000 
    241 H241       -1.5885  -20.0836  -54.4032 H         1 UNK         0.0600 
    242 H242       -1.3077  -22.7869  -57.1207 H         1 UNK         0.3800 
    243 H243       -2.2717  -21.3354  -57.1674 H         1 UNK         0.3800 
    244 H244        0.8979  -18.9110  -55.7584 H         1 UNK         0.0800 
    245 H245        0.9397  -19.8305  -54.3051 H         1 UNK         0.0800 
    246 H246       -2.2447  -17.8564  -53.8470 H         1 UNK         0.0800 
    247 H247       -1.6795  -16.6167  -52.7756 H         1 UNK         0.0800 
@<TRIPOS>BOND
     1    1    2 1    
     2    1  127 1    
     3    1  128 1    
     4    1  129 1    
     5    2    3 2    
     6    2    4 am   BACKBONE|DICT|INTERRES
     7    4    5 1    
     8    4  130 1    
     9    5    6 1    
    10    5   65 1    
    11    5  131 1    
    12    6    7 1    
    13    6  132 1    
    14    6  133 1    
    15    7    8 1    
    16    8    9 1    
    17    8  134 1    
    18    8  135 1    
    19    9   10 ar   
    20    9   14 ar   
    21   10   11 ar   
    22   10  136 1    
    23   11   12 ar   
    24   11  126 1    
    25   12   13 ar   
    26   12  137 1    
    27   13   14 ar   
    28   13   15 1    
    29   14  138 1    
    30   15   16 1    
    31   15  139 1    
    32   15  140 1    
    33   16   17 1    
    34   17   18 1    
    35   17  141 1    
    36   17  142 1    
    37   18   19 1    
    38   18   67 1    
    39   18  143 1    
    40   19   20 am   BACKBONE|DICT|INTERRES
    41   19  144 1    
    42   20   21 2    
    43   20   22 1    
    44   22   23 1    
    45   22   24 1    
    46   22  145 1    
    47   23  146 1    
    48   23  147 1    
    49   23  148 1    
    50   24   25 am   BACKBONE|DICT|INTERRES
    51   24  149 1    
    52   25   26 2    
    53   25   27 1    
    54   27   28 1    
    55   27   29 1    
    56   27  150 1    
    57   28  151 1    
    58   28  152 1    
    59   28  153 1    
    60   29   30 am   BACKBONE|DICT|INTERRES
    61   29  154 1    
    62   30   31 2    
    63   30   32 1    
    64   32   33 1    
    65   32   34 1    
    66   32  155 1    
    67   33  156 1    
    68   33  157 1    
    69   33  158 1    
    70   34   35 am   BACKBONE|DICT|INTERRES
    71   34  159 1    
    72   35   36 2    
    73   35   37 1    
    74   37   38 1    
    75   37   39 1    
    76   37  160 1    
    77   38  161 1    
    78   38  162 1    
    79   38  163 1    
    80   39   40 am   BACKBONE|DICT|INTERRES
    81   39  164 1    
    82   40   41 2    
    83   40   42 1    
    84   42   43 1    
    85   42   44 1    
    86   42  165 1    
    87   43  166 1    
    88   43  167 1    
    89   43  168 1    
    90   44   45 am   BACKBONE|DICT|INTERRES
    91   44  169 1    
    92   45   46 2    
    93   45   47 1    
    94   47   48 1    
    95   47   49 1    
    96   47  170 1    
    97   48  171 1    
    98   48  172 1    
    99   48  173 1    
   100   49   50 am   BACKBONE|DICT|INTERRES
   101   49  174 1    
   102   50   51 2    
   103   50   52 1    
   104   52   53 1    
   105   52   54 1    
   106   52  175 1    
   107   53  176 1    
   108   53  177 1    
   109   53  178 1    
   110   54   55 am   BACKBONE|DICT|INTERRES
   111   54  179 1    
   112   55   56 2    
   113   55   57 1    
   114   57   58 1    
   115   57   59 1    
   116   57  180 1    
   117   58  181 1    
   118   58  182 1    
   119   58  183 1    
   120   59   60 am   BACKBONE|DICT|INTERRES
   121   59  184 1    
   122   60   61 2    
   123   60   62 1    
   124   62   63 1    
   125   62   64 1    
   126   62  185 1    
   127   63  186 1    
   128   63  187 1    
   129   63  188 1    
   130   64   65 am   BACKBONE|DICT|INTERRES
   131   64  189 1    
   132   65   66 2    
   133   67   68 2    
   134   67   69 am   BACKBONE|DICT|INTERRES
   135   69   70 1    
   136   69  190 1    
   137   70   71 1    
   138   70   72 1    
   139   70  191 1    
   140   71  192 1    
   141   71  193 1    
   142   71  194 1    
   143   72   73 2    
   144   72   74 am   BACKBONE|DICT|INTERRES
   145   74   75 1    
   146   74  195 1    
   147   75   76 1    
   148   75   77 1    
   149   75  196 1    
   150   76  197 1    
   151   76  198 1    
   152   76  199 1    
   153   77   78 2    
   154   77   79 am   BACKBONE|DICT|INTERRES
   155   79   80 1    
   156   79  200 1    
   157   80   81 1    
   158   80   82 1    
   159   80  201 1    
   160   81  202 1    
   161   81  203 1    
   162   81  204 1    
   163   82   83 2    
   164   82   84 am   BACKBONE|DICT|INTERRES
   165   84   85 1    
   166   84  205 1    
   167   85   86 1    
   168   85   87 1    
   169   85  206 1    
   170   86  207 1    
   171   86  208 1    
   172   86  209 1    
   173   87   88 2    
   174   87   89 am   BACKBONE|DICT|INTERRES
   175   89   90 1    
   176   89  210 1    
   177   90   91 1    
   178   90   92 1    
   179   90  211 1    
   180   91  212 1    
   181   91  213 1    
   182   91  214 1    
   183   92   93 2    
   184   92   94 am   BACKBONE|DICT|INTERRES
   185   94   95 1    
   186   94  215 1    
   187   95   96 1    
   188   95   97 1    
   189   95  216 1    
   190   96  217 1    
   191   96  218 1    
   192   96  219 1    
   193   97   98 2    
   194   97   99 am   BACKBONE|DICT|INTERRES
   195   99  100 1    
   196   99  220 1    
   197  100  101 1    
   198  100  102 1    
   199  100  221 1    
   200  101  222 1    
   201  101  223 1    
   202  101  224 1    
   203  102  103 2    
   204  102  104 am   BACKBONE|DICT|INTERRES
   205  104  105 1    
   206  104  225 1    
   207  105  106 1    
   208  105  107 1    
   209  105  226 1    
   210  106  227 1    
   211  106  228 1    
   212  106  229 1    
   213  107  108 2    
   214  107  109 am   BACKBONE|DICT|INTERRES
   215  109  110 1    
   216  109  230 1    
   217  110  111 1    
   218  110  112 1    
   219  110  231 1    
   220  111  232 1    
   221  111  233 1    
   222  111  234 1    
   223  112  113 2    
   224  112  114 am   BACKBONE|DICT|INTERRES
   225  114  115 1    
   226  114  235 1    
   227  115  116 1    
   228  115  117 1    
   229  115  236 1    
   230  116  237 1    
   231  116  238 1    
   232  116  239 1    
   233  117  118 2    
   234  117  119 am   BACKBONE|DICT|INTERRES
   235  119  120 1    
   236  119  240 1    
   237  120  121 1    
   238  120  124 1    
   239  120  241 1    
   240  121  122 am   BACKBONE|DICT|INTERRES
   241  121  123 2    
   242  122  242 1    
   243  122  243 1    
   244  124  125 1    
   245  124  244 1    
   246  124  245 1    
   247  125  126 1    
   248  126  246 1    
   249  126  247 1    
@<TRIPOS>SUBSTRUCTURE
     1 UNK         1 GROUP             0       ****    0 ROOT    
