@<TRIPOS>MOLECULE
3R540
247   249    1
SMALL
USER_CHARGES


@<TRIPOS>ATOM
      1 CA          5.0371  -12.0388  -51.2725 C.3       0 UNK        -0.1800 
      2 C           5.4542  -12.9803  -50.1518 C.2       0 UNK         0.5000 
      3 O           6.4873  -12.7627  -49.5172 O.2       0 UNK        -0.5000 
      4 N           4.6516  -14.0197  -49.8953 N.am      1 UNK        -0.5000 
      5 CA          4.8696  -15.0440  -48.8650 C.3       1 UNK         0.1400 
      6 C6          4.1806  -16.3816  -49.2432 C.3       23 UNK        -0.0398 
      7 S7          4.9204  -17.1406  -50.7308 S.3       23 UNK        -0.2404 
      8 C8          3.6467  -16.8534  -52.0046 C.3       23 UNK        -0.0205 
      9 C9          2.3888  -17.6817  -51.7762 C.ar      23 UNK        -0.0193 
     10 C10         1.1569  -17.0553  -51.5658 C.ar      23 UNK        -0.1150 
     11 C11         0.0034  -17.8146  -51.3456 C.ar      23 UNK        -0.0193 
     12 C12         0.0818  -19.2089  -51.3549 C.ar      23 UNK        -0.1150 
     13 C13         1.3062  -19.8460  -51.5676 C.ar      23 UNK        -0.0193 
     14 C14         2.4539  -19.0781  -51.7842 C.ar      23 UNK        -0.1150 
     15 C15         1.3992  -21.3616  -51.5416 C.3       23 UNK        -0.0205 
     16 S16         1.6120  -21.9667  -49.8403 S.3       23 UNK        -0.2404 
     17 C17        -0.1201  -22.1851  -49.3137 C.3       23 UNK        -0.0398 
     18 CA         -0.1886  -22.9849  -47.9935 C.3       11 UNK         0.1400 
     19 N           0.0468  -22.1503  -46.8133 N.am      11 UNK        -0.5000 
     20 C           0.4525  -22.6497  -45.6386 C.2       10 UNK         0.5000 
     21 O           0.5984  -23.8537  -45.4222 O.2       10 UNK        -0.5000 
     22 CA          0.7201  -21.6409  -44.5109 C.3       10 UNK         0.1400 
     23 CB          1.9490  -20.7751  -44.8304 C.3       10 UNK        -0.1800 
     24 N          -0.4286  -20.7838  -44.2231 N.am      10 UNK        -0.5000 
     25 C          -1.6239  -21.2247  -43.8062 C.2       9 UNK         0.5000 
     26 O          -1.9095  -22.4134  -43.6666 O.2       9 UNK        -0.5000 
     27 CA         -2.6969  -20.1606  -43.5205 C.3       9 UNK         0.1400 
     28 CB         -2.4301  -19.4654  -42.1770 C.3       9 UNK        -0.1800 
     29 N          -2.8211  -19.1585  -44.5779 N.am      9 UNK        -0.5000 
     30 C          -3.1128  -19.4359  -45.8564 C.2       8 UNK         0.5000 
     31 O          -3.2603  -20.5735  -46.2981 O.2       8 UNK        -0.5000 
     32 CA         -3.2225  -18.2396  -46.8118 C.3       8 UNK         0.1400 
     33 CB         -4.4618  -17.3889  -46.4926 C.3       8 UNK        -0.1800 
     34 N          -2.0161  -17.4184  -46.8075 N.am      8 UNK        -0.5000 
     35 C          -0.7885  -17.8565  -47.1315 C.2       7 UNK         0.5000 
     36 O          -0.5388  -18.9923  -47.5404 O.2       7 UNK        -0.5000 
     37 CA          0.3622  -16.8620  -46.9014 C.3       7 UNK         0.1400 
     38 CB          0.3900  -15.8049  -48.0161 C.3       7 UNK        -0.1800 
     39 N           0.2595  -16.1926  -45.6057 N.am      7 UNK        -0.5000 
     40 C           0.2528  -16.7991  -44.4104 C.2       6 UNK         0.5000 
     41 O           0.3800  -18.0120  -44.2475 O.2       6 UNK        -0.5000 
     42 CA         -0.0036  -15.8984  -43.1917 C.3       6 UNK         0.1400 
     43 CB          1.2701  -15.1433  -42.7790 C.3       6 UNK        -0.1800 
     44 N          -1.0876  -14.9494  -43.4464 N.am      6 UNK        -0.5000 
     45 C          -2.3780  -15.2931  -43.5654 C.2       5 UNK         0.5000 
     46 O          -2.7941  -16.4431  -43.4276 O.2       5 UNK        -0.5000 
     47 CA         -3.3660  -14.1691  -43.9257 C.3       5 UNK         0.1400 
     48 CB         -3.8278  -13.4302  -42.6609 C.3       5 UNK        -0.1800 
     49 N          -2.8015  -13.2052  -44.8700 N.am      5 UNK        -0.5000 
     50 C          -2.5459  -13.4697  -46.1588 C.2       4 UNK         0.5000 
     51 O          -2.7905  -14.5488  -46.7005 O.2       4 UNK        -0.5000 
     52 CA         -1.8628  -12.3485  -46.9649 C.3       4 UNK         0.1400 
     53 CB         -2.9099  -11.3597  -47.4993 C.3       4 UNK        -0.1800 
     54 N          -0.8394  -11.6108  -46.2142 N.am      4 UNK        -0.5000 
     55 C           0.2439  -12.1677  -45.6576 C.2       3 UNK         0.5000 
     56 O           0.4537  -13.3807  -45.6451 O.2       3 UNK        -0.5000 
     57 CA          1.2289  -11.2215  -44.9477 C.3       3 UNK         0.1400 
     58 CB          0.7904  -10.9970  -43.4920 C.3       3 UNK        -0.1800 
     59 N           2.5899  -11.7613  -44.9501 N.am      3 UNK        -0.5000 
     60 C           3.3508  -11.9087  -46.0428 C.2       2 UNK         0.5000 
     61 O           3.0251  -11.4881  -47.1563 O.2       2 UNK        -0.5000 
     62 CA          4.7204  -12.6025  -45.8682 C.3       2 UNK         0.1400 
     63 CB          4.8664  -13.4106  -44.5574 C.3       2 UNK        -0.1800 
     64 N           5.0566  -13.4153  -47.0413 N.am      2 UNK        -0.5000 
     65 C           4.4349  -14.5213  -47.4754 C.2       1 UNK         0.5000 
     66 O           3.5539  -15.1045  -46.8443 O.2       1 UNK        -0.5000 
     67 C          -1.4697  -23.8326  -47.8795 C.2       11 UNK         0.5000 
     68 O          -1.4864  -24.9318  -48.4358 O.2       11 UNK        -0.5000 
     69 N          -2.4849  -23.3656  -47.1356 N.am      12 UNK        -0.5000 
     70 CA         -3.6753  -24.1594  -46.8231 C.3       12 UNK         0.1400 
     71 CB         -4.7843  -23.2680  -46.2473 C.3       12 UNK        -0.1800 
     72 C          -3.3613  -25.3234  -45.8656 C.2       12 UNK         0.5000 
     73 O          -3.8252  -26.4378  -46.1061 O.2       12 UNK        -0.5000 
     74 N          -2.5558  -25.0642  -44.8228 N.am      13 UNK        -0.5000 
     75 CA         -2.1083  -26.0717  -43.8554 C.3       13 UNK         0.1400 
     76 CB         -1.4277  -25.3869  -42.6611 C.3       13 UNK        -0.1800 
     77 C          -1.1730  -27.1228  -44.4787 C.2       13 UNK         0.5000 
     78 O          -1.2880  -28.3060  -44.1570 O.2       13 UNK        -0.5000 
     79 N          -0.2882  -26.6790  -45.3821 N.am      14 UNK        -0.5000 
     80 CA          0.5978  -27.5400  -46.1687 C.3       14 UNK         0.1400 
     81 CB          1.7042  -26.6742  -46.7916 C.3       14 UNK        -0.1800 
     82 C          -0.1350  -28.3314  -47.2717 C.2       14 UNK         0.5000 
     83 O           0.4296  -29.2952  -47.7903 O.2       14 UNK        -0.5000 
     84 N          -1.3533  -27.8933  -47.6272 N.am      15 UNK        -0.5000 
     85 CA         -2.1867  -28.3596  -48.7411 C.3       15 UNK         0.1400 
     86 CB         -2.6563  -29.8112  -48.5138 C.3       15 UNK        -0.1800 
     87 C          -1.5072  -28.1432  -50.1109 C.2       15 UNK         0.5000 
     88 O          -1.6649  -28.9553  -51.0244 O.2       15 UNK        -0.5000 
     89 N          -0.7499  -27.0445  -50.2173 N.am      16 UNK        -0.5000 
     90 CA         -0.0045  -26.6439  -51.4080 C.3       16 UNK         0.1400 
     91 CB          1.1807  -25.7689  -50.9721 C.3       16 UNK        -0.1800 
     92 C          -0.8875  -25.8908  -52.4176 C.2       16 UNK         0.5000 
     93 O          -0.6045  -25.9254  -53.6156 O.2       16 UNK        -0.5000 
     94 N          -1.9382  -25.2314  -51.9192 N.am      17 UNK        -0.5000 
     95 CA         -2.9195  -24.4661  -52.6771 C.3       17 UNK         0.1400 
     96 CB         -2.3086  -23.1201  -53.1191 C.3       17 UNK        -0.1800 
     97 C          -4.1453  -24.2396  -51.7815 C.2       17 UNK         0.5000 
     98 O          -4.0751  -24.4876  -50.5745 O.2       17 UNK        -0.5000 
     99 N          -5.2332  -23.7276  -52.3746 N.am      18 UNK        -0.5000 
    100 CA        -6.3993  -23.2204  -51.6411 C.3       18 UNK         0.1400 
    101 CB        -7.5329  -22.9026  -52.6279 C.3       18 UNK        -0.1800 
    102 C         -6.0426  -21.9788  -50.8001 C.2       18 UNK         0.5000 
    103 O         -6.5265  -21.8409  -49.6774 O.2       18 UNK        -0.5000 
    104 N         -5.1659  -21.1308  -51.3625 N.am      19 UNK        -0.5000 
    105 CA        -4.3720  -20.0599  -50.7458 C.3       19 UNK         0.1400 
    106 CB        -3.4077  -20.6692  -49.7165 C.3       19 UNK        -0.1800 
    107 C         -5.1494  -18.8623  -50.1582 C.2       19 UNK         0.5000 
    108 O         -4.5817  -17.7756  -50.0508 O.2       19 UNK        -0.5000 
    109 N         -6.4352  -19.0335  -49.8335 N.am      20 UNK        -0.5000 
    110 CA        -7.3336  -17.9967  -49.3127 C.3       20 UNK         0.1400 
    111 CB        -8.6761  -18.6467  -48.9469 C.3       20 UNK        -0.1800 
    112 C         -7.5499  -16.8073  -50.2730 C.2       20 UNK         0.5000 
    113 O         -7.9192  -15.7221  -49.8239 O.2       20 UNK        -0.5000 
    114 N         -7.2999  -17.0288  -51.5704 N.am      21 UNK        -0.5000 
    115 CA        -7.3305  -16.0161  -52.6239 C.3       21 UNK         0.1400 
    116 CB        -7.4088  -16.7297  -53.9829 C.3       21 UNK        -0.1800 
    117 C         -6.1267  -15.0503  -52.5950 C.2       21 UNK         0.5000 
    118 O         -6.2186  -13.9778  -53.1946 O.2       21 UNK        -0.5000 
    119 N         -5.0296  -15.4356  -51.9291 N.am      22 UNK        -0.5000 
    120 CA        -3.7810  -14.6594  -51.8359 C.3       22 UNK         0.1400 
    121 C         -3.3066  -14.3881  -50.3822 C.2       22 UNK         0.5000 
    122 N         -3.6916  -15.1785  -49.3894 N.am      22 UNK        -0.7600 
    123 O         -2.5757  -13.4295  -50.1539 O.2       22 UNK        -0.5000 
    124 C124       -2.6444  -15.2527  -52.7156 C.3       23 UNK        -0.0398 
    125 S125       -2.3797  -17.0541  -52.5331 S.3       23 UNK        -0.2404 
    126 C126       -1.3210  -17.1332  -51.0555 C.3       23 UNK        -0.0205 
    127 H127        4.1147  -12.3647  -51.7539 H         1 UNK         0.0600 
    128 H128        5.8179  -11.9901  -52.0316 H         1 UNK         0.0600 
    129 H129        4.8791  -11.0347  -50.8786 H         1 UNK         0.0600 
    130 H130        3.7992  -14.1180  -50.4260 H         1 UNK         0.3000 
    131 H131        5.9416  -15.2418  -48.7934 H         1 UNK         0.0600 
    132 H132        3.1084  -16.2410  -49.3846 H         1 UNK         0.0800 
    133 H133        4.2848  -17.1065  -48.4339 H         1 UNK         0.0800 
    134 H134        3.4141  -15.7888  -52.0496 H         1 UNK         0.0800 
    135 H135        4.0630  -17.1148  -52.9783 H         1 UNK         0.0800 
    136 H136        1.0959  -15.9761  -51.5577 H         1 UNK         0.1150 
    137 H137       -0.8083  -19.7960  -51.1817 H         1 UNK         0.1150 
    138 H138        3.4053  -19.5666  -51.9424 H         1 UNK         0.1150 
    139 H139        0.5176  -21.8084  -52.0033 H         1 UNK         0.0800 
    140 H140        2.2513  -21.6914  -52.1378 H         1 UNK         0.0800 
    141 H141       -0.6466  -22.7036  -50.1171 H         1 UNK         0.0800 
    142 H142       -0.5921  -21.2090  -49.2038 H         1 UNK         0.0800 
    143 H143        0.6174  -23.7214  -48.0259 H         1 UNK         0.0600 
    144 H144       -0.0828  -21.1505  -46.9189 H         1 UNK         0.3000 
    145 H145        0.9377  -22.2121  -43.6061 H         1 UNK         0.0600 
    146 H146        2.2202  -20.1498  -43.9797 H         1 UNK         0.0600 
    147 H147        2.8150  -21.3943  -45.0677 H         1 UNK         0.0600 
    148 H148        1.7695  -20.1176  -45.6824 H         1 UNK         0.0600 
    149 H149       -0.2771  -19.7813  -44.3109 H         1 UNK         0.3000 
    150 H150       -3.6567  -20.6762  -43.4487 H         1 UNK         0.0600 
    151 H151       -3.2473  -18.7944  -41.9122 H         1 UNK         0.0600 
    152 H152       -1.5114  -18.8783  -42.2036 H         1 UNK         0.0600 
    153 H153       -2.3333  -20.1938  -41.3709 H         1 UNK         0.0600 
    154 H154       -2.7122  -18.1886  -44.2952 H         1 UNK         0.3000 
    155 H155       -3.3447  -18.6281  -47.8187 H         1 UNK         0.0600 
    156 H156       -5.3590  -18.0080  -46.4611 H         1 UNK         0.0600 
    157 H157       -4.3765  -16.8875  -45.5297 H         1 UNK         0.0600 
    158 H158       -4.6255  -16.6260  -47.2517 H         1 UNK         0.0600 
    159 H159       -2.1274  -16.4534  -46.5161 H         1 UNK         0.3000 
    160 H160        1.3053  -17.4118  -46.9174 H         1 UNK         0.0600 
    161 H161        1.1428  -15.0407  -47.8283 H         1 UNK         0.0600 
    162 H162       -0.5697  -15.2994  -48.1264 H         1 UNK         0.0600 
    163 H163        0.6314  -16.2676  -48.9699 H         1 UNK         0.0600 
    164 H164        0.2072  -15.1757  -45.6296 H         1 UNK         0.3000 
    165 H165       -0.3005  -16.5385  -42.3582 H         1 UNK         0.0600 
    166 H166        1.0963  -14.5289  -41.8956 H         1 UNK         0.0600 
    167 H167        2.0721  -15.8417  -42.5370 H         1 UNK         0.0600 
    168 H168        1.6355  -14.4935  -43.5738 H         1 UNK         0.0600 
    169 H169       -0.8190  -13.9983  -43.6486 H         1 UNK         0.3000 
    170 H170       -4.2409  -14.6298  -44.3893 H         1 UNK         0.0600 
    171 H171       -2.9991  -12.9266  -42.1614 H         1 UNK         0.0600 
    172 H172       -4.5839  -12.6809  -42.8962 H         1 UNK         0.0600 
    173 H173       -4.2707  -14.1235  -41.9446 H         1 UNK         0.0600 
    174 H174       -2.5687  -12.2915  -44.5103 H         1 UNK         0.3000 
    175 H175       -1.3665  -12.8180  -47.8164 H         1 UNK         0.0600 
    176 H176       -2.4573  -10.6343  -48.1754 H         1 UNK         0.0600 
    177 H177       -3.3984  -10.8118  -46.6928 H         1 UNK         0.0600 
    178 H178       -3.6873  -11.8805  -48.0603 H         1 UNK         0.0600 
    179 H179       -0.9535  -10.6085  -46.1682 H         1 UNK         0.3000 
    180 H180        1.2354  -10.2623  -45.4695 H         1 UNK         0.0600 
    181 H181        0.7752  -11.9297  -42.9264 H         1 UNK         0.0600 
    182 H182       -0.2114  -10.5681  -43.4446 H         1 UNK         0.0600 
    183 H183        1.4610  -10.3062  -42.9805 H         1 UNK         0.0600 
    184 H184        2.9190  -12.1527  -44.0807 H         1 UNK         0.3000 
    185 H185        5.4599  -11.8012  -45.8408 H         1 UNK         0.0600 
    186 H186        4.0830  -14.1612  -44.4468 H         1 UNK         0.0600 
    187 H187        5.8258  -13.9268  -44.5220 H         1 UNK         0.0600 
    188 H188        4.8257  -12.7585  -43.6844 H         1 UNK         0.0600 
    189 H189        5.7297  -13.0013  -47.6789 H         1 UNK         0.3000 
    190 H190       -2.4361  -22.4375  -46.7277 H         1 UNK         0.3000 
    191 H191       -4.0485  -24.5880  -47.7559 H         1 UNK         0.0600 
    192 H192       -5.0741  -22.4940  -46.9585 H         1 UNK         0.0600 
    193 H193       -5.6780  -23.8520  -46.0245 H         1 UNK         0.0600 
    194 H194       -4.4712  -22.7806  -45.3232 H         1 UNK         0.0600 
    195 H195       -2.2333  -24.1141  -44.6634 H         1 UNK         0.3000 
    196 H196       -2.9920  -26.5950  -43.4845 H         1 UNK         0.0600 
    197 H197       -1.0873  -26.1211  -41.9298 H         1 UNK         0.0600 
    198 H198       -2.1159  -24.7146  -42.1488 H         1 UNK         0.0600 
    199 H199       -0.5593  -24.8049  -42.9723 H         1 UNK         0.0600 
    200 H200       -0.2009  -25.6776  -45.5298 H         1 UNK         0.3000 
    201 H201        1.0646  -28.2627  -45.4964 H         1 UNK         0.0600 
    202 H202        2.2607  -26.1320  -46.0269 H         1 UNK         0.0600 
    203 H203        1.2949  -25.9444  -47.4903 H         1 UNK         0.0600 
    204 H204        2.4196  -27.2873  -47.3410 H         1 UNK         0.0600 
    205 H205       -1.7136  -27.0850  -47.1378 H         1 UNK         0.3000 
    206 H206       -3.0725  -27.7226  -48.7403 H         1 UNK         0.0600 
    207 H207       -3.1292  -29.9225  -47.5380 H         1 UNK         0.0600 
    208 H208       -3.3902  -30.1056  -49.2648 H         1 UNK         0.0600 
    209 H209       -1.8300  -30.5201  -48.5699 H         1 UNK         0.0600 
    210 H210       -0.7563  -26.3904  -49.4397 H         1 UNK         0.3000 
    211 H211        0.3893  -27.5344  -51.9024 H         1 UNK         0.0600 
    212 H212        0.8454  -24.8717  -50.4521 H         1 UNK         0.0600 
    213 H213        1.7708  -25.4496  -51.8320 H         1 UNK         0.0600 
    214 H214        1.8472  -26.3132  -50.3028 H         1 UNK         0.0600 
    215 H215       -2.1380  -25.2827  -50.9260 H         1 UNK         0.3000 
    216 H216       -3.2289  -25.0431  -53.5508 H         1 UNK         0.0600 
    217 H217       -3.0186  -22.5355  -53.7045 H         1 UNK         0.0600 
    218 H218       -1.4275  -23.2661  -53.7439 H         1 UNK         0.0600 
    219 H219       -2.0114  -22.5138  -52.2631 H         1 UNK         0.0600 
    220 H220       -5.2274  -23.5816  -53.3739 H         1 UNK         0.3000 
    221 H221       -6.7436  -24.0008  -50.9590 H         1 UNK         0.0600 
    222 H222       -7.2411  -22.1385  -53.3494 H         1 UNK         0.0600 
    223 H223       -7.8321  -23.7918  -53.1830 H         1 UNK         0.0600 
    224 H224       -8.4159  -22.5371  -52.1018 H         1 UNK         0.0600 
    225 H225       -4.9074  -21.3342  -52.3167 H         1 UNK         0.3000 
    226 H226       -3.7642  -19.6531  -51.5551 H         1 UNK         0.0600 
    227 H227       -2.9013  -21.5439  -50.1224 H         1 UNK         0.0600 
    228 H228       -2.6361  -19.9555  -49.4309 H         1 UNK         0.0600 
    229 H229       -3.9318  -20.9846  -48.8143 H         1 UNK         0.0600 
    230 H230       -6.7961  -19.9819  -49.8740 H         1 UNK         0.3000 
    231 H231       -6.8858  -17.5968  -48.4014 H         1 UNK         0.0600 
    232 H232       -9.1587  -19.0883  -49.8198 H         1 UNK         0.0600 
    233 H233       -9.3650  -17.9137  -48.5248 H         1 UNK         0.0600 
    234 H234       -8.5434  -19.4328  -48.2033 H         1 UNK         0.0600 
    235 H235       -7.0110  -17.9565  -51.8425 H         1 UNK         0.3000 
    236 H236       -8.2350  -15.4170  -52.4996 H         1 UNK         0.0600 
    237 H237       -8.2919  -17.3660  -54.0451 H         1 UNK         0.0600 
    238 H238       -7.4711  -16.0097  -54.8001 H         1 UNK         0.0600 
    239 H239       -6.5311  -17.3526  -54.1609 H         1 UNK         0.0600 
    240 H240       -5.0269  -16.3239  -51.4427 H         1 UNK         0.3000 
    241 H241       -3.9700  -13.6585  -52.2280 H         1 UNK         0.0600 
    242 H242       -3.3793  -14.9703  -48.4464 H         1 UNK         0.3800 
    243 H243       -4.1772  -16.0508  -49.5759 H         1 UNK         0.3800 
    244 H244       -2.8939  -15.0796  -53.7630 H         1 UNK         0.0800 
    245 H245       -1.7017  -14.7255  -52.5573 H         1 UNK         0.0800 
    246 H246       -1.8481  -17.6725  -50.2672 H         1 UNK         0.0800 
    247 H247       -1.1369  -16.1351  -50.6600 H         1 UNK         0.0800 
@<TRIPOS>BOND
     1    1    2 1    
     2    1  127 1    
     3    1  128 1    
     4    1  129 1    
     5    2    3 2    
     6    2    4 am   BACKBONE|DICT|INTERRES
     7    4    5 1    
     8    4  130 1    
     9    5    6 1    
    10    5   65 1    
    11    5  131 1    
    12    6    7 1    
    13    6  132 1    
    14    6  133 1    
    15    7    8 1    
    16    8    9 1    
    17    8  134 1    
    18    8  135 1    
    19    9   10 ar   
    20    9   14 ar   
    21   10   11 ar   
    22   10  136 1    
    23   11   12 ar   
    24   11  126 1    
    25   12   13 ar   
    26   12  137 1    
    27   13   14 ar   
    28   13   15 1    
    29   14  138 1    
    30   15   16 1    
    31   15  139 1    
    32   15  140 1    
    33   16   17 1    
    34   17   18 1    
    35   17  141 1    
    36   17  142 1    
    37   18   19 1    
    38   18   67 1    
    39   18  143 1    
    40   19   20 am   BACKBONE|DICT|INTERRES
    41   19  144 1    
    42   20   21 2    
    43   20   22 1    
    44   22   23 1    
    45   22   24 1    
    46   22  145 1    
    47   23  146 1    
    48   23  147 1    
    49   23  148 1    
    50   24   25 am   BACKBONE|DICT|INTERRES
    51   24  149 1    
    52   25   26 2    
    53   25   27 1    
    54   27   28 1    
    55   27   29 1    
    56   27  150 1    
    57   28  151 1    
    58   28  152 1    
    59   28  153 1    
    60   29   30 am   BACKBONE|DICT|INTERRES
    61   29  154 1    
    62   30   31 2    
    63   30   32 1    
    64   32   33 1    
    65   32   34 1    
    66   32  155 1    
    67   33  156 1    
    68   33  157 1    
    69   33  158 1    
    70   34   35 am   BACKBONE|DICT|INTERRES
    71   34  159 1    
    72   35   36 2    
    73   35   37 1    
    74   37   38 1    
    75   37   39 1    
    76   37  160 1    
    77   38  161 1    
    78   38  162 1    
    79   38  163 1    
    80   39   40 am   BACKBONE|DICT|INTERRES
    81   39  164 1    
    82   40   41 2    
    83   40   42 1    
    84   42   43 1    
    85   42   44 1    
    86   42  165 1    
    87   43  166 1    
    88   43  167 1    
    89   43  168 1    
    90   44   45 am   BACKBONE|DICT|INTERRES
    91   44  169 1    
    92   45   46 2    
    93   45   47 1    
    94   47   48 1    
    95   47   49 1    
    96   47  170 1    
    97   48  171 1    
    98   48  172 1    
    99   48  173 1    
   100   49   50 am   BACKBONE|DICT|INTERRES
   101   49  174 1    
   102   50   51 2    
   103   50   52 1    
   104   52   53 1    
   105   52   54 1    
   106   52  175 1    
   107   53  176 1    
   108   53  177 1    
   109   53  178 1    
   110   54   55 am   BACKBONE|DICT|INTERRES
   111   54  179 1    
   112   55   56 2    
   113   55   57 1    
   114   57   58 1    
   115   57   59 1    
   116   57  180 1    
   117   58  181 1    
   118   58  182 1    
   119   58  183 1    
   120   59   60 am   BACKBONE|DICT|INTERRES
   121   59  184 1    
   122   60   61 2    
   123   60   62 1    
   124   62   63 1    
   125   62   64 1    
   126   62  185 1    
   127   63  186 1    
   128   63  187 1    
   129   63  188 1    
   130   64   65 am   BACKBONE|DICT|INTERRES
   131   64  189 1    
   132   65   66 2    
   133   67   68 2    
   134   67   69 am   BACKBONE|DICT|INTERRES
   135   69   70 1    
   136   69  190 1    
   137   70   71 1    
   138   70   72 1    
   139   70  191 1    
   140   71  192 1    
   141   71  193 1    
   142   71  194 1    
   143   72   73 2    
   144   72   74 am   BACKBONE|DICT|INTERRES
   145   74   75 1    
   146   74  195 1    
   147   75   76 1    
   148   75   77 1    
   149   75  196 1    
   150   76  197 1    
   151   76  198 1    
   152   76  199 1    
   153   77   78 2    
   154   77   79 am   BACKBONE|DICT|INTERRES
   155   79   80 1    
   156   79  200 1    
   157   80   81 1    
   158   80   82 1    
   159   80  201 1    
   160   81  202 1    
   161   81  203 1    
   162   81  204 1    
   163   82   83 2    
   164   82   84 am   BACKBONE|DICT|INTERRES
   165   84   85 1    
   166   84  205 1    
   167   85   86 1    
   168   85   87 1    
   169   85  206 1    
   170   86  207 1    
   171   86  208 1    
   172   86  209 1    
   173   87   88 2    
   174   87   89 am   BACKBONE|DICT|INTERRES
   175   89   90 1    
   176   89  210 1    
   177   90   91 1    
   178   90   92 1    
   179   90  211 1    
   180   91  212 1    
   181   91  213 1    
   182   91  214 1    
   183   92   93 2    
   184   92   94 am   BACKBONE|DICT|INTERRES
   185   94   95 1    
   186   94  215 1    
   187   95   96 1    
   188   95   97 1    
   189   95  216 1    
   190   96  217 1    
   191   96  218 1    
   192   96  219 1    
   193   97   98 2    
   194   97   99 am   BACKBONE|DICT|INTERRES
   195   99  100 1    
   196   99  220 1    
   197  100  101 1    
   198  100  102 1    
   199  100  221 1    
   200  101  222 1    
   201  101  223 1    
   202  101  224 1    
   203  102  103 2    
   204  102  104 am   BACKBONE|DICT|INTERRES
   205  104  105 1    
   206  104  225 1    
   207  105  106 1    
   208  105  107 1    
   209  105  226 1    
   210  106  227 1    
   211  106  228 1    
   212  106  229 1    
   213  107  108 2    
   214  107  109 am   BACKBONE|DICT|INTERRES
   215  109  110 1    
   216  109  230 1    
   217  110  111 1    
   218  110  112 1    
   219  110  231 1    
   220  111  232 1    
   221  111  233 1    
   222  111  234 1    
   223  112  113 2    
   224  112  114 am   BACKBONE|DICT|INTERRES
   225  114  115 1    
   226  114  235 1    
   227  115  116 1    
   228  115  117 1    
   229  115  236 1    
   230  116  237 1    
   231  116  238 1    
   232  116  239 1    
   233  117  118 2    
   234  117  119 am   BACKBONE|DICT|INTERRES
   235  119  120 1    
   236  119  240 1    
   237  120  121 1    
   238  120  124 1    
   239  120  241 1    
   240  121  122 am   BACKBONE|DICT|INTERRES
   241  121  123 2    
   242  122  242 1    
   243  122  243 1    
   244  124  125 1    
   245  124  244 1    
   246  124  245 1    
   247  125  126 1    
   248  126  246 1    
   249  126  247 1    
@<TRIPOS>SUBSTRUCTURE
     1 UNK         1 GROUP             0       ****    0 ROOT    
