@<TRIPOS>MOLECULE
3R540
247   249    1
SMALL
USER_CHARGES


@<TRIPOS>ATOM
      1 CA          3.0005   -9.7036  -52.0392 C.3       0 UNK        -0.1800 
      2 C           3.9954  -10.4175  -51.1353 C.2       0 UNK         0.5000 
      3 O           4.9744   -9.8106  -50.7008 O.2       0 UNK        -0.5000 
      4 N           3.7486  -11.7024  -50.8504 N.am      1 UNK        -0.5000 
      5 CA          4.5778  -12.5476  -49.9805 C.3       1 UNK         0.1400 
      6 C6          4.3285  -14.0525  -50.2398 C.3       23 UNK        -0.0398 
      7 S7          2.5993  -14.5698  -49.9612 S.3       23 UNK        -0.2404 
      8 C8          2.5883  -16.1581  -50.8396 C.3       23 UNK        -0.0205 
      9 C9          1.2461  -16.8495  -50.6806 C.ar      23 UNK        -0.0193 
     10 C10         0.2172  -16.6099  -51.5952 C.ar      23 UNK        -0.1150 
     11 C11        -1.0217  -17.2385  -51.4465 C.ar      23 UNK        -0.0193 
     12 C12        -1.2242  -18.1094  -50.3718 C.ar      23 UNK        -0.1150 
     13 C13        -0.2019  -18.3634  -49.4509 C.ar      23 UNK        -0.0193 
     14 C14         1.0320  -17.7278  -49.6155 C.ar      23 UNK        -0.1150 
     15 C15        -0.3838  -19.3475  -48.2998 C.3       23 UNK        -0.0205 
     16 S16        -2.0428  -19.3149  -47.5366 S.3       23 UNK        -0.2404 
     17 C17        -1.6825  -19.9746  -45.8738 C.3       23 UNK        -0.0398 
     18 CA         -1.1424  -21.4256  -45.8675 C.3       11 UNK         0.1400 
     19 N          -0.3880  -21.7151  -44.6448 N.am      11 UNK        -0.5000 
     20 C           0.3111  -22.8342  -44.4059 C.2       10 UNK         0.5000 
     21 O           0.3774  -23.7798  -45.1913 O.2       10 UNK        -0.5000 
     22 CA          1.0084  -22.9294  -43.0410 C.3       10 UNK         0.1400 
     23 CB          2.3100  -22.1125  -43.0305 C.3       10 UNK        -0.1800 
     24 N           0.1192  -22.4632  -41.9782 N.am      10 UNK        -0.5000 
     25 C          -0.8302  -23.2195  -41.4093 C.2       9 UNK         0.5000 
     26 O          -0.9855  -24.4166  -41.6514 O.2       9 UNK        -0.5000 
     27 CA         -1.7824  -22.5213  -40.4180 C.3       9 UNK         0.1400 
     28 CB         -1.2261  -22.6045  -38.9887 C.3       9 UNK        -0.1800 
     29 N          -2.0439  -21.1189  -40.7492 N.am      9 UNK        -0.5000 
     30 C          -2.6955  -20.7018  -41.8437 C.2       8 UNK         0.5000 
     31 O          -3.1628  -21.4592  -42.6921 O.2       8 UNK        -0.5000 
     32 CA         -2.7934  -19.1802  -42.0570 C.3       8 UNK         0.1400 
     33 CB         -4.0319  -18.6150  -41.3473 C.3       8 UNK        -0.1800 
     34 N          -1.6084  -18.4323  -41.6293 N.am      8 UNK        -0.5000 
     35 C          -0.3510  -18.6486  -42.0362 C.2       7 UNK         0.5000 
     36 O          -0.0285  -19.5790  -42.7767 O.2       7 UNK        -0.5000 
     37 CA          0.7066  -17.6413  -41.5429 C.3       7 UNK         0.1400 
     38 CB          2.1414  -18.1543  -41.7575 C.3       7 UNK        -0.1800 
     39 N           0.5558  -16.3575  -42.2246 N.am      7 UNK        -0.5000 
     40 C          -0.4323  -15.4742  -42.0257 C.2       6 UNK         0.5000 
     41 O          -1.2710  -15.5805  -41.1289 O.2       6 UNK        -0.5000 
     42 CA         -0.5241  -14.2962  -43.0144 C.3       6 UNK         0.1400 
     43 CB          0.2797  -13.0947  -42.4983 C.3       6 UNK        -0.1800 
     44 N          -0.0741  -14.6418  -44.3654 N.am      6 UNK        -0.5000 
     45 C          -0.6774  -15.5290  -45.1721 C.2       5 UNK         0.5000 
     46 O          -1.7067  -16.1357  -44.8748 O.2       5 UNK        -0.5000 
     47 CA         -0.0099  -15.7930  -46.5319 C.3       5 UNK         0.1400 
     48 CB         -0.4712  -14.7681  -47.5787 C.3       5 UNK        -0.1800 
     49 N           1.4488  -15.7686  -46.4303 N.am      5 UNK        -0.5000 
     50 C           2.1869  -16.8006  -45.9994 C.2       4 UNK         0.5000 
     51 O           1.7208  -17.8983  -45.6981 O.2       4 UNK        -0.5000 
     52 CA          3.7026  -16.5643  -45.8608 C.3       4 UNK         0.1400 
     53 CB          4.4187  -16.8390  -47.1904 C.3       4 UNK        -0.1800 
     54 N           4.0361  -15.2166  -45.3950 N.am      4 UNK        -0.5000 
     55 C           3.7387  -14.7528  -44.1733 C.2       3 UNK         0.5000 
     56 O           3.1527  -15.4131  -43.3167 O.2       3 UNK        -0.5000 
     57 CA          4.1288  -13.2969  -43.8614 C.3       3 UNK         0.1400 
     58 CB          5.5668  -13.2320  -43.3258 C.3       3 UNK        -0.1800 
     59 N           3.9963  -12.3719  -44.9885 N.am      3 UNK        -0.5000 
     60 C           2.8979  -12.1643  -45.7278 C.2       2 UNK         0.5000 
     61 O           1.8569  -12.8123  -45.6088 O.2       2 UNK        -0.5000 
     62 CA          2.9713  -11.0422  -46.7813 C.3       2 UNK         0.1400 
     63 CB          3.8929   -9.8726  -46.3711 C.3       2 UNK        -0.1800 
     64 N           3.3304  -11.5379  -48.1114 N.am      2 UNK        -0.5000 
     65 C           4.4400  -12.1982  -48.4802 C.2       1 UNK         0.5000 
     66 O           5.3381  -12.5278  -47.7040 O.2       1 UNK        -0.5000 
     67 C          -2.2455  -22.4652  -46.1575 C.2       11 UNK         0.5000 
     68 O          -2.4732  -22.7976  -47.3226 O.2       11 UNK        -0.5000 
     69 N          -2.8640  -23.0059  -45.0976 N.am      12 UNK        -0.5000 
     70 CA         -3.8206  -24.1149  -45.1280 C.3       12 UNK         0.1400 
     71 CB         -4.2975  -24.4101  -43.6985 C.3       12 UNK        -0.1800 
     72 C          -3.2789  -25.3980  -45.7868 C.2       12 UNK         0.5000 
     73 O          -4.0556  -26.1268  -46.4033 O.2       12 UNK        -0.5000 
     74 N          -1.9679  -25.6406  -45.6657 N.am      13 UNK        -0.5000 
     75 CA         -1.2749  -26.7490  -46.3162 C.3       13 UNK         0.1400 
     76 CB         -0.1893  -27.2906  -45.3725 C.3       13 UNK        -0.1800 
     77 C          -0.6599  -26.3103  -47.6554 C.2       13 UNK         0.5000 
     78 O          -0.7646  -27.0439  -48.6386 O.2       13 UNK        -0.5000 
     79 N          -0.0160  -25.1347  -47.6669 N.am      14 UNK        -0.5000 
     80 CA          0.7808  -24.6384  -48.7889 C.3       14 UNK         0.1400 
     81 CB          1.6665  -23.4783  -48.3090 C.3       14 UNK        -0.1800 
     82 C          -0.0397  -24.2120  -50.0190 C.2       14 UNK         0.5000 
     83 O           0.4307  -24.4084  -51.1405 O.2       14 UNK        -0.5000 
     84 N          -1.2253  -23.6260  -49.8039 N.am      15 UNK        -0.5000 
     85 CA         -2.0549  -23.0571  -50.8702 C.3       15 UNK         0.1400 
     86 CB         -1.6901  -21.5760  -51.0688 C.3       15 UNK        -0.1800 
     87 C          -3.5589  -23.2377  -50.6105 C.2       15 UNK         0.5000 
     88 O          -4.3613  -22.4920  -51.1781 O.2       15 UNK        -0.5000 
     89 N          -3.9247  -24.2002  -49.7511 N.am      16 UNK        -0.5000 
     90 CA         -5.2973  -24.5240  -49.3382 C.3       16 UNK         0.1400 
     91 CB         -6.0880  -25.1189  -50.5234 C.3       16 UNK        -0.1800 
     92 C          -6.0265  -23.3390  -48.6633 C.2       16 UNK         0.5000 
     93 O          -7.2377  -23.1919  -48.8223 O.2       16 UNK        -0.5000 
     94 N          -5.2617  -22.5081  -47.9382 N.am      17 UNK        -0.5000 
     95 CA         -5.6589  -21.2358  -47.3250 C.3       17 UNK         0.1400 
     96 CB         -6.7445  -21.4312  -46.2452 C.3       17 UNK        -0.1800 
     97 C          -6.0228  -20.1842  -48.3919 C.2       17 UNK         0.5000 
     98 O          -7.0526  -19.5159  -48.2871 O.2       17 UNK        -0.5000 
     99 N          -5.1476  -20.0775  -49.4026 N.am      18 UNK        -0.5000 
    100 CA        -5.2283  -19.1970  -50.5700 C.3       18 UNK         0.1400 
    101 CB        -5.1618  -17.7125  -50.1519 C.3       18 UNK        -0.1800 
    102 C         -6.4273  -19.5235  -51.4832 C.2       18 UNK         0.5000 
    103 O         -7.1171  -18.6139  -51.9477 O.2       18 UNK        -0.5000 
    104 N         -6.6448  -20.8214  -51.7273 N.am      19 UNK        -0.5000 
    105 CA        -7.7277  -21.3470  -52.5623 C.3       19 UNK         0.1400 
    106 CB        -8.7224  -22.1070  -51.6702 C.3       19 UNK        -0.1800 
    107 C         -7.2193  -22.2485  -53.7031 C.2       19 UNK         0.5000 
    108 O         -8.0265  -22.6392  -54.5476 O.2       19 UNK        -0.5000 
    109 N         -5.9193  -22.5803  -53.7131 N.am      20 UNK        -0.5000 
    110 CA        -5.2702  -23.3978  -54.7381 C.3       20 UNK         0.1400 
    111 CB        -4.0384  -24.0863  -54.1173 C.3       20 UNK        -0.1800 
    112 C         -4.9474  -22.5611  -55.9965 C.2       20 UNK         0.5000 
    113 O         -5.8600  -22.1931  -56.7367 O.2       20 UNK        -0.5000 
    114 N         -3.6578  -22.2857  -56.2353 N.am      21 UNK        -0.5000 
    115 CA        -3.1588  -21.5394  -57.3955 C.3       21 UNK         0.1400 
    116 CB        -1.6590  -21.8347  -57.5570 C.3       21 UNK        -0.1800 
    117 C         -3.4003  -20.0179  -57.3111 C.2       21 UNK         0.5000 
    118 O         -3.2994  -19.3342  -58.3310 O.2       21 UNK        -0.5000 
    119 N         -3.6821  -19.5172  -56.1028 N.am      22 UNK        -0.5000 
    120 CA        -3.9423  -18.1057  -55.7850 C.3       22 UNK         0.1400 
    121 C         -5.1842  -17.5302  -56.5223 C.2       22 UNK         0.5000 
    122 N         -5.1120  -16.2964  -57.0032 N.am      22 UNK        -0.7600 
    123 O         -6.2266  -18.1736  -56.6202 O.2       22 UNK        -0.5000 
    124 C124       -4.0905  -17.9021  -54.2573 C.3       23 UNK        -0.0398 
    125 S125       -2.6274  -18.4782  -53.3296 S.3       23 UNK        -0.2404 
    126 C126       -2.1474  -16.9690  -52.4334 C.3       23 UNK        -0.0205 
    127 H127        2.5673   -8.8492  -51.5192 H         1 UNK         0.0600 
    128 H128        2.1879  -10.3618  -52.3477 H         1 UNK         0.0600 
    129 H129        3.5022   -9.3398  -52.9360 H         1 UNK         0.0600 
    130 H130        2.9298  -12.1523  -51.2362 H         1 UNK         0.3000 
    131 H131        5.6208  -12.3521  -50.2392 H         1 UNK         0.0600 
    132 H132        4.5974  -14.2843  -51.2714 H         1 UNK         0.0800 
    133 H133        4.9883  -14.6627  -49.6209 H         1 UNK         0.0800 
    134 H134        3.3863  -16.7950  -50.4546 H         1 UNK         0.0800 
    135 H135        2.8034  -15.9940  -51.8967 H         1 UNK         0.0800 
    136 H136        0.3817  -15.9288  -52.4183 H         1 UNK         0.1150 
    137 H137       -2.1802  -18.5992  -50.2648 H         1 UNK         0.1150 
    138 H138        1.8309  -17.9150  -48.9120 H         1 UNK         0.1150 
    139 H139       -0.1809  -20.3509  -48.6744 H         1 UNK         0.0800 
    140 H140        0.3603  -19.1510  -47.5282 H         1 UNK         0.0800 
    141 H141       -2.5835  -19.8937  -45.2650 H         1 UNK         0.0800 
    142 H142       -0.9556  -19.2999  -45.4170 H         1 UNK         0.0800 
    143 H143       -0.4162  -21.5215  -46.6723 H         1 UNK         0.0600 
    144 H144       -0.3521  -20.9730  -43.9493 H         1 UNK         0.3000 
    145 H145        1.2674  -23.9757  -42.8644 H         1 UNK         0.0600 
    146 H146        2.8140  -22.1876  -42.0669 H         1 UNK         0.0600 
    147 H147        3.0026  -22.4784  -43.7894 H         1 UNK         0.0600 
    148 H148        2.1333  -21.0560  -43.2339 H         1 UNK         0.0600 
    149 H149        0.1373  -21.4708  -41.7808 H         1 UNK         0.3000 
    150 H150       -2.7346  -23.0554  -40.4464 H         1 UNK         0.0600 
    151 H151       -1.0426  -23.6406  -38.7009 H         1 UNK         0.0600 
    152 H152       -1.9288  -22.1880  -38.2667 H         1 UNK         0.0600 
    153 H153       -0.2833  -22.0647  -38.8912 H         1 UNK         0.0600 
    154 H154       -1.6853  -20.4239  -40.1112 H         1 UNK         0.3000 
    155 H155       -2.9112  -19.0056  -43.1271 H         1 UNK         0.0600 
    156 H156       -3.9567  -18.7168  -40.2640 H         1 UNK         0.0600 
    157 H157       -4.9366  -19.1352  -41.6652 H         1 UNK         0.0600 
    158 H158       -4.1688  -17.5579  -41.5765 H         1 UNK         0.0600 
    159 H159       -1.7776  -17.5939  -41.0845 H         1 UNK         0.3000 
    160 H160        0.5579  -17.4938  -40.4713 H         1 UNK         0.0600 
    161 H161        2.3690  -18.2822  -42.8170 H         1 UNK         0.0600 
    162 H162        2.2914  -19.1179  -41.2691 H         1 UNK         0.0600 
    163 H163        2.8730  -17.4614  -41.3418 H         1 UNK         0.0600 
    164 H164        1.2385  -16.1566  -42.9466 H         1 UNK         0.3000 
    165 H165       -1.5731  -14.0008  -43.0813 H         1 UNK         0.0600 
    166 H166        0.2292  -12.2541  -43.1907 H         1 UNK         0.0600 
    167 H167       -0.1082  -12.7515  -41.5385 H         1 UNK         0.0600 
    168 H168        1.3281  -13.3508  -42.3528 H         1 UNK         0.0600 
    169 H169        0.7359  -14.1413  -44.7187 H         1 UNK         0.3000 
    170 H170       -0.3289  -16.7801  -46.8702 H         1 UNK         0.0600 
    171 H171       -1.5589  -14.7534  -47.6565 H         1 UNK         0.0600 
    172 H172       -0.1431  -13.7582  -47.3304 H         1 UNK         0.0600 
    173 H173       -0.0823  -15.0154  -48.5662 H         1 UNK         0.0600 
    174 H174        1.9001  -14.8812  -46.6064 H         1 UNK         0.3000 
    175 H175        4.0784  -17.2758  -45.1222 H         1 UNK         0.0600 
    176 H176        5.4997  -16.7477  -47.0847 H         1 UNK         0.0600 
    177 H177        4.2098  -17.8490  -47.5456 H         1 UNK         0.0600 
    178 H178        4.0967  -16.1464  -47.9656 H         1 UNK         0.0600 
    179 H179        4.5072  -14.6016  -46.0439 H         1 UNK         0.3000 
    180 H180        3.4636  -12.9399  -43.0746 H         1 UNK         0.0600 
    181 H181        5.6960  -13.8958  -42.4697 H         1 UNK         0.0600 
    182 H182        5.8200  -12.2247  -42.9945 H         1 UNK         0.0600 
    183 H183        6.2919  -13.5288  -44.0846 H         1 UNK         0.0600 
    184 H184        4.8168  -11.8288  -45.2159 H         1 UNK         0.3000 
    185 H185        1.9600  -10.6417  -46.8663 H         1 UNK         0.0600 
    186 H186        3.6304   -9.4949  -45.3820 H         1 UNK         0.0600 
    187 H187        4.9453  -10.1567  -46.3487 H         1 UNK         0.0600 
    188 H188        3.7951   -9.0409  -47.0690 H         1 UNK         0.0600 
    189 H189        2.6496  -11.3580  -48.8352 H         1 UNK         0.3000 
    190 H190       -2.6791  -22.6091  -44.1806 H         1 UNK         0.3000 
    191 H191       -4.6867  -23.7968  -45.7054 H         1 UNK         0.0600 
    192 H192       -3.4650  -24.6662  -43.0423 H         1 UNK         0.0600 
    193 H193       -4.9995  -25.2448  -43.6823 H         1 UNK         0.0600 
    194 H194       -4.8110  -23.5496  -43.2695 H         1 UNK         0.0600 
    195 H195       -1.3878  -24.9702  -45.1764 H         1 UNK         0.3000 
    196 H196       -1.9742  -27.5634  -46.5179 H         1 UNK         0.0600 
    197 H197        0.3406  -28.1283  -45.8277 H         1 UNK         0.0600 
    198 H198       -0.6243  -27.6495  -44.4395 H         1 UNK         0.0600 
    199 H199        0.5514  -26.5298  -45.1236 H         1 UNK         0.0600 
    200 H200        0.0530  -24.6093  -46.7988 H         1 UNK         0.3000 
    201 H201        1.4414  -25.4487  -49.1052 H         1 UNK         0.0600 
    202 H202        2.2949  -23.7801  -47.4707 H         1 UNK         0.0600 
    203 H203        1.0726  -22.6227  -47.9917 H         1 UNK         0.0600 
    204 H204        2.3288  -23.1377  -49.1059 H         1 UNK         0.0600 
    205 H205       -1.5468  -23.4714  -48.8513 H         1 UNK         0.3000 
    206 H206       -1.8581  -23.5850  -51.8048 H         1 UNK         0.0600 
    207 H207       -0.6221  -21.4430  -51.2409 H         1 UNK         0.0600 
    208 H208       -2.2091  -21.1538  -51.9296 H         1 UNK         0.0600 
    209 H209       -1.9676  -20.9867  -50.1960 H         1 UNK         0.0600 
    210 H210       -3.1961  -24.7604  -49.3324 H         1 UNK         0.3000 
    211 H211       -5.2191  -25.3017  -48.5795 H         1 UNK         0.0600 
    212 H212       -6.2483  -24.3873  -51.3151 H         1 UNK         0.0600 
    213 H213       -7.0682  -25.4740  -50.2035 H         1 UNK         0.0600 
    214 H214       -5.5633  -25.9695  -50.9580 H         1 UNK         0.0600 
    215 H215       -4.2701  -22.7236  -47.8727 H         1 UNK         0.3000 
    216 H216       -4.7724  -20.8526  -46.8184 H         1 UNK         0.0600 
    217 H217       -6.9353  -20.4968  -45.7164 H         1 UNK         0.0600 
    218 H218       -6.4372  -22.1645  -45.5005 H         1 UNK         0.0600 
    219 H219       -7.6923  -21.7605  -46.6710 H         1 UNK         0.0600 
    220 H220       -4.3669  -20.7173  -49.4063 H         1 UNK         0.3000 
    221 H221       -4.3390  -19.4116  -51.1615 H         1 UNK         0.0600 
    222 H222       -6.0315  -17.4149  -49.5662 H         1 UNK         0.0600 
    223 H223       -4.2717  -17.5085  -49.5568 H         1 UNK         0.0600 
    224 H224       -5.1269  -17.0624  -51.0261 H         1 UNK         0.0600 
    225 H225       -6.0082  -21.5008  -51.3202 H         1 UNK         0.3000 
    226 H226       -8.2668  -20.5277  -53.0417 H         1 UNK         0.0600 
    227 H227       -9.0673  -21.4864  -50.8429 H         1 UNK         0.0600 
    228 H228       -9.6022  -22.4128  -52.2374 H         1 UNK         0.0600 
    229 H229       -8.2768  -23.0080  -51.2500 H         1 UNK         0.0600 
    230 H230       -5.3268  -22.2553  -52.9586 H         1 UNK         0.3000 
    231 H231       -5.9589  -24.1858  -55.0501 H         1 UNK         0.0600 
    232 H232       -4.3305  -24.7220  -53.2811 H         1 UNK         0.0600 
    233 H233       -3.3115  -23.3643  -53.7452 H         1 UNK         0.0600 
    234 H234       -3.5361  -24.7273  -54.8431 H         1 UNK         0.0600 
    235 H235       -2.9623  -22.6301  -55.5897 H         1 UNK         0.3000 
    236 H236       -3.6743  -21.9014  -58.2876 H         1 UNK         0.0600 
    237 H237       -1.2520  -21.3275  -58.4328 H         1 UNK         0.0600 
    238 H238       -1.0878  -21.5009  -56.6898 H         1 UNK         0.0600 
    239 H239       -1.4783  -22.9016  -57.6894 H         1 UNK         0.0600 
    240 H240       -3.7379  -20.1594  -55.3279 H         1 UNK         0.3000 
    241 H241       -3.0665  -17.5440  -56.1159 H         1 UNK         0.0600 
    242 H242       -5.9162  -15.9057  -57.4697 H         1 UNK         0.3800 
    243 H243       -4.2697  -15.7463  -56.9302 H         1 UNK         0.3800 
    244 H244       -4.9630  -18.4421  -53.8869 H         1 UNK         0.0800 
    245 H245       -4.2691  -16.8494  -54.0312 H         1 UNK         0.0800 
    246 H246       -3.0035  -16.5718  -51.8888 H         1 UNK         0.0800 
    247 H247       -1.8563  -16.2047  -53.1556 H         1 UNK         0.0800 
@<TRIPOS>BOND
     1    1    2 1    
     2    1  127 1    
     3    1  128 1    
     4    1  129 1    
     5    2    3 2    
     6    2    4 am   BACKBONE|DICT|INTERRES
     7    4    5 1    
     8    4  130 1    
     9    5    6 1    
    10    5   65 1    
    11    5  131 1    
    12    6    7 1    
    13    6  132 1    
    14    6  133 1    
    15    7    8 1    
    16    8    9 1    
    17    8  134 1    
    18    8  135 1    
    19    9   10 ar   
    20    9   14 ar   
    21   10   11 ar   
    22   10  136 1    
    23   11   12 ar   
    24   11  126 1    
    25   12   13 ar   
    26   12  137 1    
    27   13   14 ar   
    28   13   15 1    
    29   14  138 1    
    30   15   16 1    
    31   15  139 1    
    32   15  140 1    
    33   16   17 1    
    34   17   18 1    
    35   17  141 1    
    36   17  142 1    
    37   18   19 1    
    38   18   67 1    
    39   18  143 1    
    40   19   20 am   BACKBONE|DICT|INTERRES
    41   19  144 1    
    42   20   21 2    
    43   20   22 1    
    44   22   23 1    
    45   22   24 1    
    46   22  145 1    
    47   23  146 1    
    48   23  147 1    
    49   23  148 1    
    50   24   25 am   BACKBONE|DICT|INTERRES
    51   24  149 1    
    52   25   26 2    
    53   25   27 1    
    54   27   28 1    
    55   27   29 1    
    56   27  150 1    
    57   28  151 1    
    58   28  152 1    
    59   28  153 1    
    60   29   30 am   BACKBONE|DICT|INTERRES
    61   29  154 1    
    62   30   31 2    
    63   30   32 1    
    64   32   33 1    
    65   32   34 1    
    66   32  155 1    
    67   33  156 1    
    68   33  157 1    
    69   33  158 1    
    70   34   35 am   BACKBONE|DICT|INTERRES
    71   34  159 1    
    72   35   36 2    
    73   35   37 1    
    74   37   38 1    
    75   37   39 1    
    76   37  160 1    
    77   38  161 1    
    78   38  162 1    
    79   38  163 1    
    80   39   40 am   BACKBONE|DICT|INTERRES
    81   39  164 1    
    82   40   41 2    
    83   40   42 1    
    84   42   43 1    
    85   42   44 1    
    86   42  165 1    
    87   43  166 1    
    88   43  167 1    
    89   43  168 1    
    90   44   45 am   BACKBONE|DICT|INTERRES
    91   44  169 1    
    92   45   46 2    
    93   45   47 1    
    94   47   48 1    
    95   47   49 1    
    96   47  170 1    
    97   48  171 1    
    98   48  172 1    
    99   48  173 1    
   100   49   50 am   BACKBONE|DICT|INTERRES
   101   49  174 1    
   102   50   51 2    
   103   50   52 1    
   104   52   53 1    
   105   52   54 1    
   106   52  175 1    
   107   53  176 1    
   108   53  177 1    
   109   53  178 1    
   110   54   55 am   BACKBONE|DICT|INTERRES
   111   54  179 1    
   112   55   56 2    
   113   55   57 1    
   114   57   58 1    
   115   57   59 1    
   116   57  180 1    
   117   58  181 1    
   118   58  182 1    
   119   58  183 1    
   120   59   60 am   BACKBONE|DICT|INTERRES
   121   59  184 1    
   122   60   61 2    
   123   60   62 1    
   124   62   63 1    
   125   62   64 1    
   126   62  185 1    
   127   63  186 1    
   128   63  187 1    
   129   63  188 1    
   130   64   65 am   BACKBONE|DICT|INTERRES
   131   64  189 1    
   132   65   66 2    
   133   67   68 2    
   134   67   69 am   BACKBONE|DICT|INTERRES
   135   69   70 1    
   136   69  190 1    
   137   70   71 1    
   138   70   72 1    
   139   70  191 1    
   140   71  192 1    
   141   71  193 1    
   142   71  194 1    
   143   72   73 2    
   144   72   74 am   BACKBONE|DICT|INTERRES
   145   74   75 1    
   146   74  195 1    
   147   75   76 1    
   148   75   77 1    
   149   75  196 1    
   150   76  197 1    
   151   76  198 1    
   152   76  199 1    
   153   77   78 2    
   154   77   79 am   BACKBONE|DICT|INTERRES
   155   79   80 1    
   156   79  200 1    
   157   80   81 1    
   158   80   82 1    
   159   80  201 1    
   160   81  202 1    
   161   81  203 1    
   162   81  204 1    
   163   82   83 2    
   164   82   84 am   BACKBONE|DICT|INTERRES
   165   84   85 1    
   166   84  205 1    
   167   85   86 1    
   168   85   87 1    
   169   85  206 1    
   170   86  207 1    
   171   86  208 1    
   172   86  209 1    
   173   87   88 2    
   174   87   89 am   BACKBONE|DICT|INTERRES
   175   89   90 1    
   176   89  210 1    
   177   90   91 1    
   178   90   92 1    
   179   90  211 1    
   180   91  212 1    
   181   91  213 1    
   182   91  214 1    
   183   92   93 2    
   184   92   94 am   BACKBONE|DICT|INTERRES
   185   94   95 1    
   186   94  215 1    
   187   95   96 1    
   188   95   97 1    
   189   95  216 1    
   190   96  217 1    
   191   96  218 1    
   192   96  219 1    
   193   97   98 2    
   194   97   99 am   BACKBONE|DICT|INTERRES
   195   99  100 1    
   196   99  220 1    
   197  100  101 1    
   198  100  102 1    
   199  100  221 1    
   200  101  222 1    
   201  101  223 1    
   202  101  224 1    
   203  102  103 2    
   204  102  104 am   BACKBONE|DICT|INTERRES
   205  104  105 1    
   206  104  225 1    
   207  105  106 1    
   208  105  107 1    
   209  105  226 1    
   210  106  227 1    
   211  106  228 1    
   212  106  229 1    
   213  107  108 2    
   214  107  109 am   BACKBONE|DICT|INTERRES
   215  109  110 1    
   216  109  230 1    
   217  110  111 1    
   218  110  112 1    
   219  110  231 1    
   220  111  232 1    
   221  111  233 1    
   222  111  234 1    
   223  112  113 2    
   224  112  114 am   BACKBONE|DICT|INTERRES
   225  114  115 1    
   226  114  235 1    
   227  115  116 1    
   228  115  117 1    
   229  115  236 1    
   230  116  237 1    
   231  116  238 1    
   232  116  239 1    
   233  117  118 2    
   234  117  119 am   BACKBONE|DICT|INTERRES
   235  119  120 1    
   236  119  240 1    
   237  120  121 1    
   238  120  124 1    
   239  120  241 1    
   240  121  122 am   BACKBONE|DICT|INTERRES
   241  121  123 2    
   242  122  242 1    
   243  122  243 1    
   244  124  125 1    
   245  124  244 1    
   246  124  245 1    
   247  125  126 1    
   248  126  246 1    
   249  126  247 1    
@<TRIPOS>SUBSTRUCTURE
     1 UNK         1 GROUP             0       ****    0 ROOT    
