@<TRIPOS>MOLECULE
3R540
247   249    1
SMALL
USER_CHARGES


@<TRIPOS>ATOM
      1 CA          8.1123  -13.0547  -45.8854 C.3       0 UNK        -0.1800 
      2 C           6.6303  -13.3352  -45.6868 C.2       0 UNK         0.5000 
      3 O           6.1430  -13.2871  -44.5589 O.2       0 UNK        -0.5000 
      4 N           5.9018  -13.6078  -46.7773 N.am      1 UNK        -0.5000 
      5 CA          4.4650  -13.9219  -46.7740 C.3       1 UNK         0.1400 
      6 C6          4.0046  -14.4353  -48.1614 C.3       23 UNK        -0.0398 
      7 S7          2.6157  -15.6059  -48.0424 S.3       23 UNK        -0.2404 
      8 C8          1.8176  -15.3596  -49.6579 C.3       23 UNK        -0.0205 
      9 C9          0.7886  -16.4475  -49.9115 C.ar      23 UNK        -0.0193 
     10 C10        -0.5751  -16.2008  -49.7325 C.ar      23 UNK        -0.1150 
     11 C11        -1.5088  -17.2252  -49.9172 C.ar      23 UNK        -0.0193 
     12 C12        -1.0690  -18.5036  -50.2741 C.ar      23 UNK        -0.1150 
     13 C13         0.2922  -18.7595  -50.4653 C.ar      23 UNK        -0.0193 
     14 C14         1.2120  -17.7196  -50.3017 C.ar      23 UNK        -0.1150 
     15 C15         0.7637  -20.1654  -50.8217 C.3       23 UNK        -0.0205 
     16 S16         2.1642  -20.7489  -49.7996 S.3       23 UNK        -0.2404 
     17 C17         1.5534  -20.4766  -48.0978 C.3       23 UNK        -0.0398 
     18 CA          0.9959  -21.7493  -47.4249 C.3       11 UNK         0.1400 
     19 N           0.8114  -21.5538  -45.9867 N.am      11 UNK        -0.5000 
     20 C           0.4839  -22.5200  -45.1180 C.2       10 UNK         0.5000 
     21 O           0.3567  -23.7057  -45.4243 O.2       10 UNK        -0.5000 
     22 CA          0.2023  -22.0760  -43.6727 C.3       10 UNK         0.1400 
     23 CB          1.5145  -21.8691  -42.9019 C.3       10 UNK        -0.1800 
     24 N          -0.6089  -20.8584  -43.6106 N.am      10 UNK        -0.5000 
     25 C          -1.8693  -20.7683  -44.0607 C.2       9 UNK         0.5000 
     26 O          -2.4924  -21.7171  -44.5362 O.2       9 UNK        -0.5000 
     27 CA         -2.5354  -19.3816  -44.0101 C.3       9 UNK         0.1400 
     28 CB         -3.0261  -19.0634  -42.5904 C.3       9 UNK        -0.1800 
     29 N          -1.6578  -18.3100  -44.4808 N.am      9 UNK        -0.5000 
     30 C          -1.1687  -18.2146  -45.7255 C.2       8 UNK         0.5000 
     31 O          -1.4223  -19.0149  -46.6235 O.2       8 UNK        -0.5000 
     32 CA         -0.1895  -17.0614  -45.9994 C.3       8 UNK         0.1400 
     33 CB         -0.9363  -15.7380  -46.2233 C.3       8 UNK        -0.1800 
     34 N           0.7830  -16.8981  -44.9208 N.am      8 UNK        -0.5000 
     35 C           1.7109  -17.8063  -44.5897 C.2       7 UNK         0.5000 
     36 O           1.8729  -18.8749  -45.1804 O.2       7 UNK        -0.5000 
     37 CA          2.5578  -17.4848  -43.3469 C.3       7 UNK         0.1400 
     38 CB          3.6530  -16.4593  -43.6786 C.3       7 UNK        -0.1800 
     39 N           1.7340  -16.9890  -42.2425 N.am      7 UNK        -0.5000 
     40 C           0.8428  -17.7402  -41.5764 C.2       6 UNK         0.5000 
     41 O           0.6504  -18.9331  -41.8068 O.2       6 UNK        -0.5000 
     42 CA         -0.0080  -17.0414  -40.4985 C.3       6 UNK         0.1400 
     43 CB          0.7095  -17.0786  -39.1411 C.3       6 UNK        -0.1800 
     44 N          -0.3374  -15.6557  -40.8277 N.am      6 UNK        -0.5000 
     45 C          -1.0228  -15.2558  -41.9082 C.2       5 UNK         0.5000 
     46 O          -1.5199  -16.0305  -42.7246 O.2       5 UNK        -0.5000 
     47 CA         -1.1346  -13.7360  -42.1397 C.3       5 UNK         0.1400 
     48 CB         -2.5083  -13.2237  -41.6825 C.3       5 UNK        -0.1800 
     49 N          -0.0837  -12.9573  -41.4735 N.am      5 UNK        -0.5000 
     50 C           1.2239  -13.0454  -41.7502 C.2       4 UNK         0.5000 
     51 O           1.6988  -13.8146  -42.5885 O.2       4 UNK        -0.5000 
     52 CA          2.1617  -12.1818  -40.9029 C.3       4 UNK         0.1400 
     53 CB          2.7132  -12.9919  -39.7147 C.3       4 UNK        -0.1800 
     54 N           3.2511  -11.7149  -41.7503 N.am      4 UNK        -0.5000 
     55 C           4.0379  -10.6656  -41.4882 C.2       3 UNK         0.5000 
     56 O           3.9573   -9.9899  -40.4612 O.2       3 UNK        -0.5000 
     57 CA          5.0838  -10.2928  -42.5548 C.3       3 UNK         0.1400 
     58 CB          6.4214  -10.9888  -42.2614 C.3       3 UNK        -0.1800 
     59 N           4.6545  -10.5988  -43.9236 N.am      3 UNK        -0.5000 
     60 C           3.7026   -9.9146  -44.5793 C.2       2 UNK         0.5000 
     61 O           3.0637   -8.9934  -44.0687 O.2       2 UNK        -0.5000 
     62 CA          3.4246  -10.2770  -46.0530 C.3       2 UNK         0.1400 
     63 CB          3.8853   -9.1407  -46.9805 C.3       2 UNK        -0.1800 
     64 N           4.0741  -11.5138  -46.4834 N.am      2 UNK        -0.5000 
     65 C           3.5878  -12.7457  -46.2827 C.2       1 UNK         0.5000 
     66 O           2.5155  -12.9686  -45.7221 O.2       1 UNK        -0.5000 
     67 C          -0.3010  -22.2415  -48.0988 C.2       11 UNK         0.5000 
     68 O          -0.2610  -23.2321  -48.8270 O.2       11 UNK        -0.5000 
     69 N          -1.4301  -21.5773  -47.8123 N.am      12 UNK        -0.5000 
     70 CA         -2.7583  -21.9434  -48.3032 C.3       12 UNK         0.1400 
     71 CB         -3.7894  -20.9072  -47.8394 C.3       12 UNK        -0.1800 
     72 C          -3.1890  -23.3548  -47.8740 C.2       12 UNK         0.5000 
     73 O          -3.7151  -24.0975  -48.7014 O.2       12 UNK        -0.5000 
     74 N          -2.9278  -23.7126  -46.6091 N.am      13 UNK        -0.5000 
     75 CA         -3.1773  -25.0438  -46.0578 C.3       13 UNK         0.1400 
     76 CB         -2.9471  -25.0284  -44.5392 C.3       13 UNK        -0.1800 
     77 C          -2.3250  -26.1327  -46.7339 C.2       13 UNK         0.5000 
     78 O          -2.8624  -27.1792  -47.0974 O.2       13 UNK        -0.5000 
     79 N          -1.0270  -25.8556  -46.9249 N.am      14 UNK        -0.5000 
     80 CA         -0.0779  -26.7432  -47.6008 C.3       14 UNK         0.1400 
     81 CB          1.3480  -26.2006  -47.4208 C.3       14 UNK        -0.1800 
     82 C          -0.3999  -26.9449  -49.0938 C.2       14 UNK         0.5000 
     83 O          -0.2993  -28.0662  -49.5929 O.2       14 UNK        -0.5000 
     84 N          -0.8023  -25.8623  -49.7714 N.am      15 UNK        -0.5000 
     85 CA         -1.1971  -25.8526  -51.1804 C.3       15 UNK         0.1400 
     86 CB         -1.0810  -24.4150  -51.7140 C.3       15 UNK        -0.1800 
     87 C          -2.6193  -26.3917  -51.4301 C.2       15 UNK         0.5000 
     88 O          -2.9873  -26.5713  -52.5911 O.2       15 UNK        -0.5000 
     89 N          -3.4093  -26.5857  -50.3627 N.am      16 UNK        -0.5000 
     90 CA         -4.8346  -26.9415  -50.3633 C.3       16 UNK         0.1400 
     91 CB         -5.0359  -28.3877  -50.8604 C.3       16 UNK        -0.1800 
     92 C          -5.6893  -25.9067  -51.1299 C.2       16 UNK         0.5000 
     93 O          -6.5490  -26.2739  -51.9318 O.2       16 UNK        -0.5000 
     94 N          -5.3831  -24.6238  -50.8882 N.am      17 UNK        -0.5000 
     95 CA         -5.8986  -23.4172  -51.5457 C.3       17 UNK         0.1400 
     96 CB         -7.4182  -23.2654  -51.3312 C.3       17 UNK        -0.1800 
     97 C          -5.4977  -23.2776  -53.0314 C.2       17 UNK         0.5000 
     98 O          -6.0490  -22.4203  -53.7217 O.2       17 UNK        -0.5000 
     99 N          -4.5372  -24.0905  -53.5003 N.am      18 UNK        -0.5000 
    100 CA        -3.9837  -24.1147  -54.8577 C.3       18 UNK         0.1400 
    101 CB        -3.0989  -22.8681  -55.0877 C.3       18 UNK        -0.1800 
    102 C         -5.0754  -24.3175  -55.9338 C.2       18 UNK         0.5000 
    103 O         -5.9957  -25.1123  -55.7287 O.2       18 UNK        -0.5000 
    104 N         -4.9805  -23.5889  -57.0526 N.am      19 UNK        -0.5000 
    105 CA        -5.9614  -23.5676  -58.1389 C.3       19 UNK         0.1400 
    106 CB        -5.2330  -23.2193  -59.4501 C.3       19 UNK        -0.1800 
    107 C         -7.1235  -22.6001  -57.8236 C.2       19 UNK         0.5000 
    108 O         -7.3902  -21.6828  -58.6022 O.2       19 UNK        -0.5000 
    109 N         -7.7751  -22.8157  -56.6709 N.am      20 UNK        -0.5000 
    110 CA        -8.8621  -22.0138  -56.0948 C.3       20 UNK         0.1400 
    111 CB       -10.1439  -22.1385  -56.9452 C.3       20 UNK        -0.1800 
    112 C         -8.4435  -20.5505  -55.8317 C.2       20 UNK         0.5000 
    113 O         -9.1522  -19.6149  -56.2105 O.2       20 UNK        -0.5000 
    114 N         -7.2794  -20.3924  -55.1942 N.am      21 UNK        -0.5000 
    115 CA        -6.7068  -19.1249  -54.7552 C.3       21 UNK         0.1400 
    116 CB        -5.1798  -19.1941  -54.9578 C.3       21 UNK        -0.1800 
    117 C         -7.0971  -18.8453  -53.2878 C.2       21 UNK         0.5000 
    118 O         -8.0928  -19.3812  -52.7925 O.2       21 UNK        -0.5000 
    119 N         -6.3140  -17.9924  -52.6183 N.am      22 UNK        -0.5000 
    120 CA        -6.4111  -17.7038  -51.1808 C.3       22 UNK         0.1400 
    121 C         -6.1091  -18.9337  -50.2747 C.2       22 UNK         0.5000 
    122 N         -6.6446  -18.9540  -49.0611 N.am      22 UNK        -0.7600 
    123 O         -5.3751  -19.8478  -50.6430 O.2       22 UNK        -0.5000 
    124 C124       -5.5511  -16.4711  -50.7913 C.3       23 UNK        -0.0398 
    125 S125       -3.7987  -16.5758  -51.3054 S.3       23 UNK        -0.2404 
    126 C126       -2.9918  -16.9583  -49.7216 C.3       23 UNK        -0.0205 
    127 H127        8.7077  -13.7805  -45.3316 H         1 UNK         0.0600 
    128 H128        8.3574  -12.0588  -45.5162 H         1 UNK         0.0600 
    129 H129        8.3987  -13.1092  -46.9359 H         1 UNK         0.0600 
    130 H130        6.3565  -13.6256  -47.6794 H         1 UNK         0.3000 
    131 H131        4.3397  -14.7308  -46.0517 H         1 UNK         0.0600 
    132 H132        3.7508  -13.6092  -48.8288 H         1 UNK         0.0800 
    133 H133        4.8145  -14.9763  -48.6530 H         1 UNK         0.0800 
    134 H134        2.5702  -15.3798  -50.4477 H         1 UNK         0.0800 
    135 H135        1.3545  -14.3722  -49.6894 H         1 UNK         0.0800 
    136 H136       -0.9090  -15.2157  -49.4385 H         1 UNK         0.1150 
    137 H137       -1.7916  -19.2982  -50.3995 H         1 UNK         0.1150 
    138 H138        2.2674  -17.9097  -50.4378 H         1 UNK         0.1150 
    139 H139       -0.0559  -20.8800  -50.7323 H         1 UNK         0.0800 
    140 H140        1.0659  -20.1772  -51.8694 H         1 UNK         0.0800 
    141 H141        0.8227  -19.6687  -48.0632 H         1 UNK         0.0800 
    142 H142        2.4073  -20.1132  -47.5249 H         1 UNK         0.0800 
    143 H143        1.7406  -22.5402  -47.5391 H         1 UNK         0.0600 
    144 H144        0.9270  -20.6059  -45.6418 H         1 UNK         0.3000 
    145 H145       -0.3566  -22.8760  -43.1830 H         1 UNK         0.0600 
    146 H146        1.3227  -21.6548  -41.8505 H         1 UNK         0.0600 
    147 H147        2.1379  -22.7631  -42.9428 H         1 UNK         0.0600 
    148 H148        2.0960  -21.0419  -43.3107 H         1 UNK         0.0600 
    149 H149       -0.1732  -20.0446  -43.1864 H         1 UNK         0.3000 
    150 H150       -3.4048  -19.4072  -44.6700 H         1 UNK         0.0600 
    151 H151       -3.7224  -19.8256  -42.2387 H         1 UNK         0.0600 
    152 H152       -3.5465  -18.1060  -42.5575 H         1 UNK         0.0600 
    153 H153       -2.2007  -19.0206  -41.8803 H         1 UNK         0.0600 
    154 H154       -1.4376  -17.5748  -43.8139 H         1 UNK         0.3000 
    155 H155        0.3555  -17.3045  -46.9138 H         1 UNK         0.0600 
    156 H156       -1.4542  -15.4046  -45.3242 H         1 UNK         0.0600 
    157 H157       -1.6841  -15.8412  -47.0093 H         1 UNK         0.0600 
    158 H158       -0.2495  -14.9479  -46.5283 H         1 UNK         0.0600 
    159 H159        0.7088  -16.0595  -44.3635 H         1 UNK         0.3000 
    160 H160        3.0431  -18.4082  -43.0234 H         1 UNK         0.0600 
    161 H161        3.2309  -15.5089  -44.0066 H         1 UNK         0.0600 
    162 H162        4.2987  -16.8240  -44.4784 H         1 UNK         0.0600 
    163 H163        4.2858  -16.2619  -42.8133 H         1 UNK         0.0600 
    164 H164        1.7968  -15.9995  -42.0382 H         1 UNK         0.3000 
    165 H165       -0.9455  -17.5922  -40.4051 H         1 UNK         0.0600 
    166 H166        0.0825  -16.6641  -38.3515 H         1 UNK         0.0600 
    167 H167        0.9531  -18.1032  -38.8566 H         1 UNK         0.0600 
    168 H168        1.6420  -16.5129  -39.1624 H         1 UNK         0.0600 
    169 H169        0.0250  -14.9461  -40.2093 H         1 UNK         0.3000 
    170 H170       -1.0455  -13.5662  -43.2148 H         1 UNK         0.0600 
    171 H171       -3.3131  -13.7658  -42.1811 H         1 UNK         0.0600 
    172 H172       -2.6465  -13.3466  -40.6076 H         1 UNK         0.0600 
    173 H173       -2.6351  -12.1673  -41.9201 H         1 UNK         0.0600 
    174 H174       -0.3912  -12.3131  -40.7588 H         1 UNK         0.3000 
    175 H175        1.6053  -11.3189  -40.5306 H         1 UNK         0.0600 
    176 H176        3.2943  -13.8515  -40.0515 H         1 UNK         0.0600 
    177 H177        3.3567  -12.3821  -39.0806 H         1 UNK         0.0600 
    178 H178        1.9045  -13.3668  -39.0863 H         1 UNK         0.0600 
    179 H179        3.3545  -12.2159  -42.6244 H         1 UNK         0.3000 
    180 H180        5.2495   -9.2152  -42.4900 H         1 UNK         0.0600 
    181 H181        6.3127  -12.0732  -42.2290 H         1 UNK         0.0600 
    182 H182        6.8177  -10.6743  -41.2952 H         1 UNK         0.0600 
    183 H183        7.1706  -10.7466  -43.0153 H         1 UNK         0.0600 
    184 H184        5.1146  -11.3772  -44.3799 H         1 UNK         0.3000 
    185 H185        2.3434  -10.3853  -46.1626 H         1 UNK         0.0600 
    186 H186        3.3932   -8.2012  -46.7255 H         1 UNK         0.0600 
    187 H187        4.9615   -8.9763  -46.9121 H         1 UNK         0.0600 
    188 H188        3.6438   -9.3584  -48.0211 H         1 UNK         0.0600 
    189 H189        4.9699  -11.4199  -46.9399 H         1 UNK         0.3000 
    190 H190       -1.3812  -20.7407  -47.2338 H         1 UNK         0.3000 
    191 H191       -2.7240  -21.9240  -49.3944 H         1 UNK         0.0600 
    192 H192       -3.8329  -20.8356  -46.7529 H         1 UNK         0.0600 
    193 H193       -4.7867  -21.1697  -48.1930 H         1 UNK         0.0600 
    194 H194       -3.5541  -19.9186  -48.2307 H         1 UNK         0.0600 
    195 H195       -2.5423  -23.0198  -45.9732 H         1 UNK         0.3000 
    196 H196       -4.2269  -25.2855  -46.2374 H         1 UNK         0.0600 
    197 H197       -3.1402  -26.0097  -44.1043 H         1 UNK         0.0600 
    198 H198       -3.6125  -24.3181  -44.0481 H         1 UNK         0.0600 
    199 H199       -1.9226  -24.7528  -44.2883 H         1 UNK         0.0600 
    200 H200       -0.6543  -24.9798  -46.5693 H         1 UNK         0.3000 
    201 H201       -0.1317  -27.7201  -47.1160 H         1 UNK         0.0600 
    202 H202        1.6141  -26.1360  -46.3656 H         1 UNK         0.0600 
    203 H203        1.4581  -25.2057  -47.8537 H         1 UNK         0.0600 
    204 H204        2.0787  -26.8519  -47.9018 H         1 UNK         0.0600 
    205 H205       -0.7897  -24.9594  -49.3011 H         1 UNK         0.3000 
    206 H206       -0.5041  -26.4821  -51.7422 H         1 UNK         0.0600 
    207 H207       -0.0740  -24.0213  -51.5745 H         1 UNK         0.0600 
    208 H208       -1.2986  -24.3744  -52.7816 H         1 UNK         0.0600 
    209 H209       -1.7760  -23.7422  -51.2095 H         1 UNK         0.0600 
    210 H210       -3.0206  -26.3666  -49.4548 H         1 UNK         0.3000 
    211 H211       -5.1610  -26.8996  -49.3231 H         1 UNK         0.0600 
    212 H212       -4.7713  -28.4968  -51.9125 H         1 UNK         0.0600 
    213 H213       -6.0762  -28.6962  -50.7513 H         1 UNK         0.0600 
    214 H214       -4.4281  -29.0880  -50.2874 H         1 UNK         0.0600 
    215 H215       -4.6790  -24.4495  -50.1711 H         1 UNK         0.3000 
    216 H216       -5.4161  -22.5831  -51.0348 H         1 UNK         0.0600 
    217 H217       -7.7613  -22.2847  -51.6644 H         1 UNK         0.0600 
    218 H218       -7.6791  -23.3565  -50.2770 H         1 UNK         0.0600 
    219 H219       -7.9837  -24.0139  -51.8865 H         1 UNK         0.0600 
    220 H220       -4.1937  -24.8216  -52.8902 H         1 UNK         0.3000 
    221 H221       -3.3402  -24.9939  -54.9083 H         1 UNK         0.0600 
    222 H222       -3.6895  -21.9529  -55.1358 H         1 UNK         0.0600 
    223 H223       -2.3750  -22.7471  -54.2821 H         1 UNK         0.0600 
    224 H224       -2.5294  -22.9495  -56.0140 H         1 UNK         0.0600 
    225 H225       -4.2182  -22.9315  -57.1311 H         1 UNK         0.3000 
    226 H226       -6.3932  -24.5637  -58.2567 H         1 UNK         0.0600 
    227 H227       -4.4445  -23.9404  -59.6658 H         1 UNK         0.0600 
    228 H228       -5.9216  -23.2320  -60.2959 H         1 UNK         0.0600 
    229 H229       -4.7792  -22.2284  -59.4089 H         1 UNK         0.0600 
    230 H230       -7.4419  -23.5811  -56.0951 H         1 UNK         0.3000 
    231 H231       -9.0747  -22.4473  -55.1164 H         1 UNK         0.0600 
    232 H232      -10.4250  -23.1825  -57.0831 H         1 UNK         0.0600 
    233 H233      -10.0232  -21.6904  -57.9318 H         1 UNK         0.0600 
    234 H234      -10.9830  -21.6385  -56.4601 H         1 UNK         0.0600 
    235 H235       -6.8147  -21.2212  -54.8256 H         1 UNK         0.3000 
    236 H236       -7.0984  -18.3091  -55.3657 H         1 UNK         0.0600 
    237 H237       -4.7151  -19.8923  -54.2599 H         1 UNK         0.0600 
    238 H238       -4.9311  -19.5193  -55.9684 H         1 UNK         0.0600 
    239 H239       -4.7118  -18.2199  -54.8143 H         1 UNK         0.0600 
    240 H240       -5.4956  -17.6197  -53.0765 H         1 UNK         0.3000 
    241 H241       -7.4534  -17.4367  -50.9951 H         1 UNK         0.0600 
    242 H242       -6.4573  -19.7395  -48.4603 H         1 UNK         0.3800 
    243 H243       -7.2529  -18.2189  -48.7360 H         1 UNK         0.3800 
    244 H244       -5.9715  -15.5841  -51.2669 H         1 UNK         0.0800 
    245 H245       -5.6135  -16.2756  -49.7194 H         1 UNK         0.0800 
    246 H246       -3.4654  -17.8293  -49.2687 H         1 UNK         0.0800 
    247 H247       -3.1414  -16.1292  -49.0287 H         1 UNK         0.0800 
@<TRIPOS>BOND
     1    1    2 1    
     2    1  127 1    
     3    1  128 1    
     4    1  129 1    
     5    2    3 2    
     6    2    4 am   BACKBONE|DICT|INTERRES
     7    4    5 1    
     8    4  130 1    
     9    5    6 1    
    10    5   65 1    
    11    5  131 1    
    12    6    7 1    
    13    6  132 1    
    14    6  133 1    
    15    7    8 1    
    16    8    9 1    
    17    8  134 1    
    18    8  135 1    
    19    9   10 ar   
    20    9   14 ar   
    21   10   11 ar   
    22   10  136 1    
    23   11   12 ar   
    24   11  126 1    
    25   12   13 ar   
    26   12  137 1    
    27   13   14 ar   
    28   13   15 1    
    29   14  138 1    
    30   15   16 1    
    31   15  139 1    
    32   15  140 1    
    33   16   17 1    
    34   17   18 1    
    35   17  141 1    
    36   17  142 1    
    37   18   19 1    
    38   18   67 1    
    39   18  143 1    
    40   19   20 am   BACKBONE|DICT|INTERRES
    41   19  144 1    
    42   20   21 2    
    43   20   22 1    
    44   22   23 1    
    45   22   24 1    
    46   22  145 1    
    47   23  146 1    
    48   23  147 1    
    49   23  148 1    
    50   24   25 am   BACKBONE|DICT|INTERRES
    51   24  149 1    
    52   25   26 2    
    53   25   27 1    
    54   27   28 1    
    55   27   29 1    
    56   27  150 1    
    57   28  151 1    
    58   28  152 1    
    59   28  153 1    
    60   29   30 am   BACKBONE|DICT|INTERRES
    61   29  154 1    
    62   30   31 2    
    63   30   32 1    
    64   32   33 1    
    65   32   34 1    
    66   32  155 1    
    67   33  156 1    
    68   33  157 1    
    69   33  158 1    
    70   34   35 am   BACKBONE|DICT|INTERRES
    71   34  159 1    
    72   35   36 2    
    73   35   37 1    
    74   37   38 1    
    75   37   39 1    
    76   37  160 1    
    77   38  161 1    
    78   38  162 1    
    79   38  163 1    
    80   39   40 am   BACKBONE|DICT|INTERRES
    81   39  164 1    
    82   40   41 2    
    83   40   42 1    
    84   42   43 1    
    85   42   44 1    
    86   42  165 1    
    87   43  166 1    
    88   43  167 1    
    89   43  168 1    
    90   44   45 am   BACKBONE|DICT|INTERRES
    91   44  169 1    
    92   45   46 2    
    93   45   47 1    
    94   47   48 1    
    95   47   49 1    
    96   47  170 1    
    97   48  171 1    
    98   48  172 1    
    99   48  173 1    
   100   49   50 am   BACKBONE|DICT|INTERRES
   101   49  174 1    
   102   50   51 2    
   103   50   52 1    
   104   52   53 1    
   105   52   54 1    
   106   52  175 1    
   107   53  176 1    
   108   53  177 1    
   109   53  178 1    
   110   54   55 am   BACKBONE|DICT|INTERRES
   111   54  179 1    
   112   55   56 2    
   113   55   57 1    
   114   57   58 1    
   115   57   59 1    
   116   57  180 1    
   117   58  181 1    
   118   58  182 1    
   119   58  183 1    
   120   59   60 am   BACKBONE|DICT|INTERRES
   121   59  184 1    
   122   60   61 2    
   123   60   62 1    
   124   62   63 1    
   125   62   64 1    
   126   62  185 1    
   127   63  186 1    
   128   63  187 1    
   129   63  188 1    
   130   64   65 am   BACKBONE|DICT|INTERRES
   131   64  189 1    
   132   65   66 2    
   133   67   68 2    
   134   67   69 am   BACKBONE|DICT|INTERRES
   135   69   70 1    
   136   69  190 1    
   137   70   71 1    
   138   70   72 1    
   139   70  191 1    
   140   71  192 1    
   141   71  193 1    
   142   71  194 1    
   143   72   73 2    
   144   72   74 am   BACKBONE|DICT|INTERRES
   145   74   75 1    
   146   74  195 1    
   147   75   76 1    
   148   75   77 1    
   149   75  196 1    
   150   76  197 1    
   151   76  198 1    
   152   76  199 1    
   153   77   78 2    
   154   77   79 am   BACKBONE|DICT|INTERRES
   155   79   80 1    
   156   79  200 1    
   157   80   81 1    
   158   80   82 1    
   159   80  201 1    
   160   81  202 1    
   161   81  203 1    
   162   81  204 1    
   163   82   83 2    
   164   82   84 am   BACKBONE|DICT|INTERRES
   165   84   85 1    
   166   84  205 1    
   167   85   86 1    
   168   85   87 1    
   169   85  206 1    
   170   86  207 1    
   171   86  208 1    
   172   86  209 1    
   173   87   88 2    
   174   87   89 am   BACKBONE|DICT|INTERRES
   175   89   90 1    
   176   89  210 1    
   177   90   91 1    
   178   90   92 1    
   179   90  211 1    
   180   91  212 1    
   181   91  213 1    
   182   91  214 1    
   183   92   93 2    
   184   92   94 am   BACKBONE|DICT|INTERRES
   185   94   95 1    
   186   94  215 1    
   187   95   96 1    
   188   95   97 1    
   189   95  216 1    
   190   96  217 1    
   191   96  218 1    
   192   96  219 1    
   193   97   98 2    
   194   97   99 am   BACKBONE|DICT|INTERRES
   195   99  100 1    
   196   99  220 1    
   197  100  101 1    
   198  100  102 1    
   199  100  221 1    
   200  101  222 1    
   201  101  223 1    
   202  101  224 1    
   203  102  103 2    
   204  102  104 am   BACKBONE|DICT|INTERRES
   205  104  105 1    
   206  104  225 1    
   207  105  106 1    
   208  105  107 1    
   209  105  226 1    
   210  106  227 1    
   211  106  228 1    
   212  106  229 1    
   213  107  108 2    
   214  107  109 am   BACKBONE|DICT|INTERRES
   215  109  110 1    
   216  109  230 1    
   217  110  111 1    
   218  110  112 1    
   219  110  231 1    
   220  111  232 1    
   221  111  233 1    
   222  111  234 1    
   223  112  113 2    
   224  112  114 am   BACKBONE|DICT|INTERRES
   225  114  115 1    
   226  114  235 1    
   227  115  116 1    
   228  115  117 1    
   229  115  236 1    
   230  116  237 1    
   231  116  238 1    
   232  116  239 1    
   233  117  118 2    
   234  117  119 am   BACKBONE|DICT|INTERRES
   235  119  120 1    
   236  119  240 1    
   237  120  121 1    
   238  120  124 1    
   239  120  241 1    
   240  121  122 am   BACKBONE|DICT|INTERRES
   241  121  123 2    
   242  122  242 1    
   243  122  243 1    
   244  124  125 1    
   245  124  244 1    
   246  124  245 1    
   247  125  126 1    
   248  126  246 1    
   249  126  247 1    
@<TRIPOS>SUBSTRUCTURE
     1 UNK         1 GROUP             0       ****    0 ROOT    
