@<TRIPOS>MOLECULE
3R540
247   249    1
SMALL
USER_CHARGES


@<TRIPOS>ATOM
      1 CA          1.0840  -15.2023  -51.3304 C.3       0 UNK        -0.1800 
      2 C           2.0511  -15.0914  -50.1622 C.2       0 UNK         0.5000 
      3 O           2.7002  -14.0592  -49.9941 O.2       0 UNK        -0.5000 
      4 N           2.1423  -16.1509  -49.3487 N.am      1 UNK        -0.5000 
      5 CA          3.0351  -16.2377  -48.1836 C.3       1 UNK         0.1400 
      6 C6          3.3028  -17.6987  -47.7412 C.3       23 UNK        -0.0398 
      7 S7          3.9998  -18.7328  -49.0769 S.3       23 UNK        -0.2404 
      8 C8          2.6994  -19.9822  -49.3335 C.3       23 UNK        -0.0205 
      9 C9          1.4479  -19.3883  -49.9617 C.ar      23 UNK        -0.0193 
     10 C10         1.3510  -19.2493  -51.3477 C.ar      23 UNK        -0.1150 
     11 C11         0.2155  -18.6741  -51.9244 C.ar      23 UNK        -0.0193 
     12 C12        -0.8273  -18.2402  -51.1003 C.ar      23 UNK        -0.1150 
     13 C13        -0.7493  -18.3729  -49.7104 C.ar      23 UNK        -0.0193 
     14 C14         0.3908  -18.9666  -49.1532 C.ar      23 UNK        -0.1150 
     15 C15        -1.8905  -17.8053  -48.8639 C.3       23 UNK        -0.0205 
     16 S16        -1.7451  -18.0543  -47.0586 S.3       23 UNK        -0.2404 
     17 C17        -2.6506  -19.6189  -46.8173 C.3       23 UNK        -0.0398 
     18 CA         -1.7659  -20.8854  -46.9056 C.3       11 UNK         0.1400 
     19 N          -0.6440  -20.8855  -45.9574 N.am      11 UNK        -0.5000 
     20 C           0.3238  -21.8173  -45.9182 C.2       10 UNK         0.5000 
     21 O           0.3612  -22.7845  -46.6802 O.2       10 UNK        -0.5000 
     22 CA          1.4095  -21.6844  -44.8337 C.3       10 UNK         0.1400 
     23 CB          2.6721  -21.0395  -45.4221 C.3       10 UNK        -0.1800 
     24 N           0.9734  -20.9220  -43.6633 N.am      10 UNK        -0.5000 
     25 C           0.0349  -21.3320  -42.7942 C.2       9 UNK         0.5000 
     26 O          -0.5284  -22.4240  -42.8710 O.2       9 UNK        -0.5000 
     27 CA         -0.3813  -20.3468  -41.6807 C.3       9 UNK         0.1400 
     28 CB          0.3721  -20.6565  -40.3795 C.3       9 UNK        -0.1800 
     29 N          -0.1654  -18.9430  -42.0369 N.am      9 UNK        -0.5000 
     30 C          -0.7442  -18.3197  -43.0732 C.2       8 UNK         0.5000 
     31 O          -1.6092  -18.8451  -43.7718 O.2       8 UNK        -0.5000 
     32 CA         -0.2432  -16.9060  -43.4296 C.3       8 UNK         0.1400 
     33 CB         -1.2758  -15.8512  -43.0046 C.3       8 UNK        -0.1800 
     34 N           1.0590  -16.5638  -42.8496 N.am      8 UNK        -0.5000 
     35 C           2.2205  -17.1919  -43.0868 C.2       7 UNK         0.5000 
     36 O           2.3319  -18.1472  -43.8550 O.2       7 UNK        -0.5000 
     37 CA          3.4412  -16.7188  -42.2752 C.3       7 UNK         0.1400 
     38 CB          4.2083  -15.6101  -43.0083 C.3       7 UNK        -0.1800 
     39 N           3.0603  -16.2357  -40.9475 N.am      7 UNK        -0.5000 
     40 C           2.7961  -17.0266  -39.8986 C.2       6 UNK         0.5000 
     41 O           2.8623  -18.2547  -39.9366 O.2       6 UNK        -0.5000 
     42 CA          2.3755  -16.3280  -38.5915 C.3       6 UNK         0.1400 
     43 CB          3.6109  -15.9659  -37.7533 C.3       6 UNK        -0.1800 
     44 N           1.5853  -15.1191  -38.8292 N.am      6 UNK        -0.5000 
     45 C           0.3182  -15.1194  -39.2656 C.2       5 UNK         0.5000 
     46 O          -0.3377  -16.1434  -39.4569 O.2       5 UNK        -0.5000 
     47 CA         -0.3095  -13.7446  -39.5729 C.3       5 UNK         0.1400 
     48 CB         -1.0184  -13.1873  -38.3295 C.3       5 UNK        -0.1800 
     49 N           0.6472  -12.7482  -40.0714 N.am      5 UNK        -0.5000 
     50 C           1.3531  -12.8732  -41.2019 C.2       4 UNK         0.5000 
     51 O           1.3134  -13.8747  -41.9226 O.2       4 UNK        -0.5000 
     52 CA          2.2867  -11.7141  -41.5747 C.3       4 UNK         0.1400 
     53 CB          3.5773  -11.7538  -40.7385 C.3       4 UNK        -0.1800 
     54 N           2.6125  -11.8591  -42.9859 N.am      4 UNK        -0.5000 
     55 C           2.9519  -10.8922  -43.8433 C.2       3 UNK         0.5000 
     56 O           3.1060   -9.7134  -43.5216 O.2       3 UNK        -0.5000 
     57 CA          3.1449  -11.3173  -45.3139 C.3       3 UNK         0.1400 
     58 CB          4.6384  -11.4834  -45.6333 C.3       3 UNK        -0.1800 
     59 N           2.4566  -12.5710  -45.6320 N.am      3 UNK        -0.5000 
     60 C           1.1377  -12.7118  -45.8045 C.2       2 UNK         0.5000 
     61 O           0.3559  -11.7595  -45.8156 O.2       2 UNK        -0.5000 
     62 CA          0.6120  -14.1575  -45.9678 C.3       2 UNK         0.1400 
     63 CB         -0.9050  -14.2094  -46.2238 C.3       2 UNK        -0.1800 
     64 N           1.2859  -14.9315  -47.0144 N.am      2 UNK        -0.5000 
     65 C           2.5405  -15.4035  -46.9814 C.2       1 UNK         0.5000 
     66 O           3.3086  -15.2008  -46.0424 O.2       1 UNK        -0.5000 
     67 C          -2.6522  -22.1389  -46.7703 C.2       11 UNK         0.5000 
     68 O          -3.1953  -22.5953  -47.7743 O.2       11 UNK        -0.5000 
     69 N          -2.7483  -22.7052  -45.5589 N.am      12 UNK        -0.5000 
     70 CA         -3.4951  -23.9325  -45.2743 C.3       12 UNK         0.1400 
     71 CB         -3.5169  -24.1646  -43.7563 C.3       12 UNK        -0.1800 
     72 C          -2.9458  -25.1759  -46.0031 C.2       12 UNK         0.5000 
     73 O          -3.7105  -26.1066  -46.2569 O.2       12 UNK        -0.5000 
     74 N          -1.6477  -25.1626  -46.3333 N.am      13 UNK        -0.5000 
     75 CA         -0.9746  -26.2104  -47.0943 C.3       13 UNK         0.1400 
     76 CB          0.3879  -26.5041  -46.4456 C.3       13 UNK        -0.1800 
     77 C          -0.7949  -25.8013  -48.5649 C.2       13 UNK         0.5000 
     78 O          -1.0661  -26.6090  -49.4536 O.2       13 UNK        -0.5000 
     79 N          -0.3154  -24.5711  -48.7959 N.am      14 UNK        -0.5000 
     80 CA          0.0804  -24.0774  -50.1140 C.3       14 UNK         0.1400 
     81 CB          0.9764  -22.8454  -49.9380 C.3       14 UNK        -0.1800 
     82 C          -1.1066  -23.7495  -51.0332 C.2       14 UNK         0.5000 
     83 O          -1.0800  -24.1220  -52.2067 O.2       14 UNK        -0.5000 
     84 N          -2.1136  -23.0552  -50.4902 N.am      15 UNK        -0.5000 
     85 CA         -3.3207  -22.6659  -51.2139 C.3       15 UNK         0.1400 
     86 CB         -3.7373  -21.2422  -50.8098 C.3       15 UNK        -0.1800 
     87 C          -4.4481  -23.6727  -50.9525 C.2       15 UNK         0.5000 
     88 O          -5.1039  -24.1110  -51.8980 O.2       15 UNK        -0.5000 
     89 N          -4.6647  -24.0096  -49.6721 N.am      16 UNK        -0.5000 
     90 CA         -5.6216  -24.9980  -49.1536 C.3       16 UNK         0.1400 
     91 CB         -5.1508  -26.4191  -49.5235 C.3       16 UNK        -0.1800 
     92 C          -7.0912  -24.7430  -49.5649 C.2       16 UNK         0.5000 
     93 O          -7.8929  -25.6779  -49.5847 O.2       16 UNK        -0.5000 
     94 N          -7.4037  -23.4850  -49.9166 N.am      17 UNK        -0.5000 
     95 CA         -8.6579  -22.9983  -50.5058 C.3       17 UNK         0.1400 
     96 CB         -9.8230  -23.1313  -49.5030 C.3       17 UNK        -0.1800 
     97 C          -8.9884  -23.6150  -51.8874 C.2       17 UNK         0.5000 
     98 O         -10.1445  -23.5613  -52.3104 O.2       17 UNK        -0.5000 
     99 N          -7.9802  -24.1763  -52.5705 N.am      18 UNK        -0.5000 
    100 CA        -8.1111  -24.8571  -53.8606 C.3       18 UNK         0.1400 
    101 CB        -7.7803  -26.3471  -53.6762 C.3       18 UNK        -0.1800 
    102 C         -7.1933  -24.2274  -54.9195 C.2       18 UNK         0.5000 
    103 O         -7.6294  -24.0075  -56.0496 O.2       18 UNK        -0.5000 
    104 N         -5.9500  -23.9231  -54.5287 N.am      19 UNK        -0.5000 
    105 CA        -4.9187  -23.2957  -55.3565 C.3       19 UNK         0.1400 
    106 CB        -3.6106  -24.0893  -55.1966 C.3       19 UNK        -0.1800 
    107 C         -4.7283  -21.8080  -54.9990 C.2       19 UNK         0.5000 
    108 O         -3.7446  -21.2026  -55.4230 O.2       19 UNK        -0.5000 
    109 N         -5.6821  -21.2318  -54.2494 N.am      20 UNK        -0.5000 
    110 CA        -5.7057  -19.8484  -53.7537 C.3       20 UNK         0.1400 
    111 CB        -6.9496  -19.6667  -52.8701 C.3       20 UNK        -0.1800 
    112 C         -5.6399  -18.7514  -54.8367 C.2       20 UNK         0.5000 
    113 O         -5.3376  -17.6007  -54.5154 O.2       20 UNK        -0.5000 
    114 N         -5.8577  -19.1318  -56.1032 N.am      21 UNK        -0.5000 
    115 CA        -5.6244  -18.3251  -57.3026 C.3       21 UNK         0.1400 
    116 CB        -6.0407  -19.1450  -58.5337 C.3       21 UNK        -0.1800 
    117 C         -4.1724  -17.8175  -57.4558 C.2       21 UNK         0.5000 
    118 O         -3.9545  -16.8633  -58.2040 O.2       21 UNK        -0.5000 
    119 N         -3.2146  -18.4267  -56.7379 N.am      22 UNK        -0.5000 
    120 CA        -1.8454  -17.9130  -56.5773 C.3       22 UNK         0.1400 
    121 C         -1.7354  -16.5467  -55.8313 C.2       22 UNK         0.5000 
    122 N         -2.7457  -16.1047  -55.0891 N.am      22 UNK        -0.7600 
    123 O         -0.7143  -15.8731  -55.9376 O.2       22 UNK        -0.5000 
    124 C124       -0.8865  -18.9807  -55.9832 C.3       23 UNK        -0.0398 
    125 S125       -1.1759  -19.4135  -54.2258 S.3       23 UNK        -0.2404 
    126 C126        0.1497  -18.4523  -53.4283 C.3       23 UNK        -0.0205 
    127 H127        0.9576  -14.2374  -51.8219 H         1 UNK         0.0600 
    128 H128        1.4607  -15.9123  -52.0663 H         1 UNK         0.0600 
    129 H129        0.1044  -15.5368  -50.9900 H         1 UNK         0.0600 
    130 H130        1.6089  -16.9853  -49.5557 H         1 UNK         0.3000 
    131 H131        3.9964  -15.8090  -48.4752 H         1 UNK         0.0600 
    132 H132        4.0215  -17.7156  -46.9195 H         1 UNK         0.0800 
    133 H133        2.3974  -18.1540  -47.3422 H         1 UNK         0.0800 
    134 H134        3.0964  -20.7643  -49.9821 H         1 UNK         0.0800 
    135 H135        2.4602  -20.4680  -48.3870 H         1 UNK         0.0800 
    136 H136        2.1720  -19.5693  -51.9739 H         1 UNK         0.1150 
    137 H137       -1.6942  -17.7731  -51.5471 H         1 UNK         0.1150 
    138 H138        0.4807  -19.0877  -48.0851 H         1 UNK         0.1150 
    139 H139       -1.9307  -16.7296  -49.0404 H         1 UNK         0.0800 
    140 H140       -2.8410  -18.2043  -49.2200 H         1 UNK         0.0800 
    141 H141       -3.4637  -19.6665  -47.5438 H         1 UNK         0.0800 
    142 H142       -3.1346  -19.5671  -45.8407 H         1 UNK         0.0800 
    143 H143       -1.3354  -20.9196  -47.9080 H         1 UNK         0.0600 
    144 H144       -0.6434  -20.1378  -45.2743 H         1 UNK         0.3000 
    145 H145        1.6657  -22.6927  -44.5021 H         1 UNK         0.0600 
    146 H146        3.4625  -20.9632  -44.6753 H         1 UNK         0.0600 
    147 H147        3.0636  -21.6317  -46.2501 H         1 UNK         0.0600 
    148 H148        2.4713  -20.0371  -45.7997 H         1 UNK         0.0600 
    149 H149        1.3825  -20.0005  -43.5500 H         1 UNK         0.3000 
    150 H150       -1.4495  -20.4839  -41.5015 H         1 UNK         0.0600 
    151 H151        0.1786  -21.6782  -40.0503 H         1 UNK         0.0600 
    152 H152        0.0624  -19.9905  -39.5737 H         1 UNK         0.0600 
    153 H153        1.4503  -20.5516  -40.5060 H         1 UNK         0.0600 
    154 H154        0.5321  -18.4410  -41.5063 H         1 UNK         0.3000 
    155 H155       -0.1373  -16.8692  -44.5154 H         1 UNK         0.0600 
    156 H156       -0.9431  -14.8423  -43.2465 H         1 UNK         0.0600 
    157 H157       -1.4687  -15.8898  -41.9326 H         1 UNK         0.0600 
    158 H158       -2.2265  -16.0111  -43.5147 H         1 UNK         0.0600 
    159 H159        1.0790  -15.7434  -42.2513 H         1 UNK         0.3000 
    160 H160        4.1147  -17.5706  -42.1578 H         1 UNK         0.0600 
    161 H161        3.5654  -14.7656  -43.2565 H         1 UNK         0.0600 
    162 H162        4.6321  -15.9894  -43.9382 H         1 UNK         0.0600 
    163 H163        5.0374  -15.2363  -42.4075 H         1 UNK         0.0600 
    164 H164        2.9259  -15.2402  -40.8507 H         1 UNK         0.3000 
    165 H165        1.7685  -17.0319  -38.0178 H         1 UNK         0.0600 
    166 H166        4.2523  -15.2490  -38.2676 H         1 UNK         0.0600 
    167 H167        3.3239  -15.5331  -36.7949 H         1 UNK         0.0600 
    168 H168        4.2118  -16.8514  -37.5418 H         1 UNK         0.0600 
    169 H169        2.0456  -14.2326  -38.6849 H         1 UNK         0.3000 
    170 H170       -1.0599  -13.8977  -40.3512 H         1 UNK         0.0600 
    171 H171       -1.7542  -13.8969  -37.9482 H         1 UNK         0.0600 
    172 H172       -0.3139  -12.9797  -37.5232 H         1 UNK         0.0600 
    173 H173       -1.5496  -12.2633  -38.5587 H         1 UNK         0.0600 
    174 H174        0.7411  -11.9039  -39.5251 H         1 UNK         0.3000 
    175 H175        1.7596  -10.7718  -41.4123 H         1 UNK         0.0600 
    176 H176        3.3616  -11.6520  -39.6744 H         1 UNK         0.0600 
    177 H177        4.2481  -10.9388  -41.0109 H         1 UNK         0.0600 
    178 H178        4.1181  -12.6908  -40.8783 H         1 UNK         0.0600 
    179 H179        2.4469  -12.7910  -43.3430 H         1 UNK         0.3000 
    180 H180        2.7417  -10.5243  -45.9471 H         1 UNK         0.0600 
    181 H181        5.0916  -12.2745  -45.0343 H         1 UNK         0.0600 
    182 H182        5.1867  -10.5622  -45.4318 H         1 UNK         0.0600 
    183 H183        4.7913  -11.7293  -46.6843 H         1 UNK         0.0600 
    184 H184        3.0230  -13.4156  -45.6682 H         1 UNK         0.3000 
    185 H185        0.8038  -14.6526  -45.0150 H         1 UNK         0.0600 
    186 H186       -1.2696  -15.2357  -46.2285 H         1 UNK         0.0600 
    187 H187       -1.4562  -13.6798  -45.4458 H         1 UNK         0.0600 
    188 H188       -1.1668  -13.7554  -47.1802 H         1 UNK         0.0600 
    189 H189        0.7439  -15.1195  -47.8445 H         1 UNK         0.3000 
    190 H190       -2.2427  -22.2933  -44.7863 H         1 UNK         0.3000 
    191 H191       -4.5225  -23.7830  -45.6127 H         1 UNK         0.0600 
    192 H192       -3.9583  -23.3167  -43.2323 H         1 UNK         0.0600 
    193 H193       -4.1082  -25.0459  -43.5042 H         1 UNK         0.0600 
    194 H194       -2.5127  -24.3190  -43.3595 H         1 UNK         0.0600 
    195 H195       -1.1005  -24.3401  -46.1150 H         1 UNK         0.3000 
    196 H196       -1.5591  -27.1327  -47.0728 H         1 UNK         0.0600 
    197 H197        0.9234  -27.2790  -46.9956 H         1 UNK         0.0600 
    198 H198        0.2660  -26.8577  -45.4217 H         1 UNK         0.0600 
    199 H199        1.0250  -25.6190  -46.4190 H         1 UNK         0.0600 
    200 H200       -0.0953  -23.9670  -48.0076 H         1 UNK         0.3000 
    201 H201        0.6736  -24.8531  -50.6032 H         1 UNK         0.0600 
    202 H202        1.8700  -23.0858  -49.3620 H         1 UNK         0.0600 
    203 H203        0.4506  -22.0430  -49.4200 H         1 UNK         0.0600 
    204 H204        1.3026  -22.4564  -50.9034 H         1 UNK         0.0600 
    205 H205       -2.0960  -22.8527  -49.4989 H         1 UNK         0.3000 
    206 H206       -3.1312  -22.6512  -52.2886 H         1 UNK         0.0600 
    207 H207       -4.7051  -20.9854  -51.2368 H         1 UNK         0.0600 
    208 H208       -3.8256  -21.1203  -49.7320 H         1 UNK         0.0600 
    209 H209       -3.0141  -20.5089  -51.1679 H         1 UNK         0.0600 
    210 H210       -4.1018  -23.5425  -48.9623 H         1 UNK         0.3000 
    211 H211       -5.5923  -24.9095  -48.0670 H         1 UNK         0.0600 
    212 H212       -5.2108  -26.5972  -50.5977 H         1 UNK         0.0600 
    213 H213       -5.7588  -27.1773  -49.0290 H         1 UNK         0.0600 
    214 H214       -4.1185  -26.5831  -49.2132 H         1 UNK         0.0600 
    215 H215       -6.6642  -22.8008  -49.8490 H         1 UNK         0.3000 
    216 H216       -8.5077  -21.9335  -50.6880 H         1 UNK         0.0600 
    217 H217       -9.5680  -22.6872  -48.5408 H         1 UNK         0.0600 
    218 H218      -10.0938  -24.1732  -49.3309 H         1 UNK         0.0600 
    219 H219      -10.7146  -22.6197  -49.8673 H         1 UNK         0.0600 
    220 H220       -7.0540  -24.1725  -52.1557 H         1 UNK         0.3000 
    221 H221       -9.1339  -24.7822  -54.2352 H         1 UNK         0.0600 
    222 H222       -6.7697  -26.4920  -53.2917 H         1 UNK         0.0600 
    223 H223       -8.4721  -26.8173  -52.9770 H         1 UNK         0.0600 
    224 H224       -7.8554  -26.8858  -54.6216 H         1 UNK         0.0600 
    225 H225       -5.6690  -24.1214  -53.5696 H         1 UNK         0.3000 
    226 H226       -5.2048  -23.3317  -56.4093 H         1 UNK         0.0600 
    227 H227       -3.7448  -25.1286  -55.4966 H         1 UNK         0.0600 
    228 H228       -2.8161  -23.6747  -55.8183 H         1 UNK         0.0600 
    229 H229       -3.2573  -24.0852  -54.1656 H         1 UNK         0.0600 
    230 H230       -6.4619  -21.8123  -53.9799 H         1 UNK         0.3000 
    231 H231       -4.8169  -19.7100  -53.1365 H         1 UNK         0.0600 
    232 H232       -6.9847  -18.6633  -52.4434 H         1 UNK         0.0600 
    233 H233       -6.9527  -20.3705  -52.0381 H         1 UNK         0.0600 
    234 H234       -7.8690  -19.8143  -53.4380 H         1 UNK         0.0600 
    235 H235       -6.0905  -20.1007  -56.2599 H         1 UNK         0.3000 
    236 H236       -6.2689  -17.4463  -57.2384 H         1 UNK         0.0600 
    237 H237       -5.9142  -18.5673  -59.4504 H         1 UNK         0.0600 
    238 H238       -5.4427  -20.0520  -58.6320 H         1 UNK         0.0600 
    239 H239       -7.0895  -19.4371  -58.4785 H         1 UNK         0.0600 
    240 H240       -3.4569  -19.2320  -56.1708 H         1 UNK         0.3000 
    241 H241       -1.4851  -17.7128  -57.5882 H         1 UNK         0.0600 
    242 H242       -2.6620  -15.2173  -54.6201 H         1 UNK         0.3800 
    243 H243       -3.5910  -16.6532  -54.9745 H         1 UNK         0.3800 
    244 H244        0.1478  -18.6570  -56.1093 H         1 UNK         0.0800 
    245 H245       -0.9686  -19.9002  -56.5643 H         1 UNK         0.0800 
    246 H246        1.1037  -18.7097  -53.8910 H         1 UNK         0.0800 
    247 H247       -0.0072  -17.3900  -53.6170 H         1 UNK         0.0800 
@<TRIPOS>BOND
     1    1    2 1    
     2    1  127 1    
     3    1  128 1    
     4    1  129 1    
     5    2    3 2    
     6    2    4 am   BACKBONE|DICT|INTERRES
     7    4    5 1    
     8    4  130 1    
     9    5    6 1    
    10    5   65 1    
    11    5  131 1    
    12    6    7 1    
    13    6  132 1    
    14    6  133 1    
    15    7    8 1    
    16    8    9 1    
    17    8  134 1    
    18    8  135 1    
    19    9   10 ar   
    20    9   14 ar   
    21   10   11 ar   
    22   10  136 1    
    23   11   12 ar   
    24   11  126 1    
    25   12   13 ar   
    26   12  137 1    
    27   13   14 ar   
    28   13   15 1    
    29   14  138 1    
    30   15   16 1    
    31   15  139 1    
    32   15  140 1    
    33   16   17 1    
    34   17   18 1    
    35   17  141 1    
    36   17  142 1    
    37   18   19 1    
    38   18   67 1    
    39   18  143 1    
    40   19   20 am   BACKBONE|DICT|INTERRES
    41   19  144 1    
    42   20   21 2    
    43   20   22 1    
    44   22   23 1    
    45   22   24 1    
    46   22  145 1    
    47   23  146 1    
    48   23  147 1    
    49   23  148 1    
    50   24   25 am   BACKBONE|DICT|INTERRES
    51   24  149 1    
    52   25   26 2    
    53   25   27 1    
    54   27   28 1    
    55   27   29 1    
    56   27  150 1    
    57   28  151 1    
    58   28  152 1    
    59   28  153 1    
    60   29   30 am   BACKBONE|DICT|INTERRES
    61   29  154 1    
    62   30   31 2    
    63   30   32 1    
    64   32   33 1    
    65   32   34 1    
    66   32  155 1    
    67   33  156 1    
    68   33  157 1    
    69   33  158 1    
    70   34   35 am   BACKBONE|DICT|INTERRES
    71   34  159 1    
    72   35   36 2    
    73   35   37 1    
    74   37   38 1    
    75   37   39 1    
    76   37  160 1    
    77   38  161 1    
    78   38  162 1    
    79   38  163 1    
    80   39   40 am   BACKBONE|DICT|INTERRES
    81   39  164 1    
    82   40   41 2    
    83   40   42 1    
    84   42   43 1    
    85   42   44 1    
    86   42  165 1    
    87   43  166 1    
    88   43  167 1    
    89   43  168 1    
    90   44   45 am   BACKBONE|DICT|INTERRES
    91   44  169 1    
    92   45   46 2    
    93   45   47 1    
    94   47   48 1    
    95   47   49 1    
    96   47  170 1    
    97   48  171 1    
    98   48  172 1    
    99   48  173 1    
   100   49   50 am   BACKBONE|DICT|INTERRES
   101   49  174 1    
   102   50   51 2    
   103   50   52 1    
   104   52   53 1    
   105   52   54 1    
   106   52  175 1    
   107   53  176 1    
   108   53  177 1    
   109   53  178 1    
   110   54   55 am   BACKBONE|DICT|INTERRES
   111   54  179 1    
   112   55   56 2    
   113   55   57 1    
   114   57   58 1    
   115   57   59 1    
   116   57  180 1    
   117   58  181 1    
   118   58  182 1    
   119   58  183 1    
   120   59   60 am   BACKBONE|DICT|INTERRES
   121   59  184 1    
   122   60   61 2    
   123   60   62 1    
   124   62   63 1    
   125   62   64 1    
   126   62  185 1    
   127   63  186 1    
   128   63  187 1    
   129   63  188 1    
   130   64   65 am   BACKBONE|DICT|INTERRES
   131   64  189 1    
   132   65   66 2    
   133   67   68 2    
   134   67   69 am   BACKBONE|DICT|INTERRES
   135   69   70 1    
   136   69  190 1    
   137   70   71 1    
   138   70   72 1    
   139   70  191 1    
   140   71  192 1    
   141   71  193 1    
   142   71  194 1    
   143   72   73 2    
   144   72   74 am   BACKBONE|DICT|INTERRES
   145   74   75 1    
   146   74  195 1    
   147   75   76 1    
   148   75   77 1    
   149   75  196 1    
   150   76  197 1    
   151   76  198 1    
   152   76  199 1    
   153   77   78 2    
   154   77   79 am   BACKBONE|DICT|INTERRES
   155   79   80 1    
   156   79  200 1    
   157   80   81 1    
   158   80   82 1    
   159   80  201 1    
   160   81  202 1    
   161   81  203 1    
   162   81  204 1    
   163   82   83 2    
   164   82   84 am   BACKBONE|DICT|INTERRES
   165   84   85 1    
   166   84  205 1    
   167   85   86 1    
   168   85   87 1    
   169   85  206 1    
   170   86  207 1    
   171   86  208 1    
   172   86  209 1    
   173   87   88 2    
   174   87   89 am   BACKBONE|DICT|INTERRES
   175   89   90 1    
   176   89  210 1    
   177   90   91 1    
   178   90   92 1    
   179   90  211 1    
   180   91  212 1    
   181   91  213 1    
   182   91  214 1    
   183   92   93 2    
   184   92   94 am   BACKBONE|DICT|INTERRES
   185   94   95 1    
   186   94  215 1    
   187   95   96 1    
   188   95   97 1    
   189   95  216 1    
   190   96  217 1    
   191   96  218 1    
   192   96  219 1    
   193   97   98 2    
   194   97   99 am   BACKBONE|DICT|INTERRES
   195   99  100 1    
   196   99  220 1    
   197  100  101 1    
   198  100  102 1    
   199  100  221 1    
   200  101  222 1    
   201  101  223 1    
   202  101  224 1    
   203  102  103 2    
   204  102  104 am   BACKBONE|DICT|INTERRES
   205  104  105 1    
   206  104  225 1    
   207  105  106 1    
   208  105  107 1    
   209  105  226 1    
   210  106  227 1    
   211  106  228 1    
   212  106  229 1    
   213  107  108 2    
   214  107  109 am   BACKBONE|DICT|INTERRES
   215  109  110 1    
   216  109  230 1    
   217  110  111 1    
   218  110  112 1    
   219  110  231 1    
   220  111  232 1    
   221  111  233 1    
   222  111  234 1    
   223  112  113 2    
   224  112  114 am   BACKBONE|DICT|INTERRES
   225  114  115 1    
   226  114  235 1    
   227  115  116 1    
   228  115  117 1    
   229  115  236 1    
   230  116  237 1    
   231  116  238 1    
   232  116  239 1    
   233  117  118 2    
   234  117  119 am   BACKBONE|DICT|INTERRES
   235  119  120 1    
   236  119  240 1    
   237  120  121 1    
   238  120  124 1    
   239  120  241 1    
   240  121  122 am   BACKBONE|DICT|INTERRES
   241  121  123 2    
   242  122  242 1    
   243  122  243 1    
   244  124  125 1    
   245  124  244 1    
   246  124  245 1    
   247  125  126 1    
   248  126  246 1    
   249  126  247 1    
@<TRIPOS>SUBSTRUCTURE
     1 UNK         1 GROUP             0       ****    0 ROOT    
