@<TRIPOS>MOLECULE
3R540
247   249    1
SMALL
USER_CHARGES


@<TRIPOS>ATOM
      1 CA          4.2981  -13.9976  -48.5212 C.3       0 UNK        -0.1800 
      2 C           2.9511  -14.0192  -47.8132 C.2       0 UNK         0.5000 
      3 O           2.9047  -14.1537  -46.5924 O.2       0 UNK        -0.5000 
      4 N           1.8598  -13.8885  -48.5770 N.am      1 UNK        -0.5000 
      5 CA          0.4812  -13.8955  -48.0705 C.3       1 UNK         0.1400 
      6 C6         -0.5220  -14.3759  -49.1499 C.3       23 UNK        -0.0398 
      7 S7         -0.3595  -16.1575  -49.4895 S.3       23 UNK        -0.2404 
      8 C8          0.7490  -16.1761  -50.9314 C.3       23 UNK        -0.0205 
      9 C9          1.1246  -17.6071  -51.2682 C.ar      23 UNK        -0.0193 
     10 C10         0.4266  -18.3181  -52.2477 C.ar      23 UNK        -0.1150 
     11 C11         0.7214  -19.6640  -52.5021 C.ar      23 UNK        -0.0193 
     12 C12         1.7225  -20.2903  -51.7525 C.ar      23 UNK        -0.1150 
     13 C13         2.4190  -19.5914  -50.7609 C.ar      23 UNK        -0.0193 
     14 C14         2.1345  -18.2420  -50.5443 C.ar      23 UNK        -0.1150 
     15 C15         3.4047  -20.3201  -49.8558 C.3       23 UNK        -0.0205 
     16 S16         2.9130  -20.2528  -48.0944 S.3       23 UNK        -0.2404 
     17 C17         1.1566  -20.7570  -48.1515 C.3       23 UNK        -0.0398 
     18 CA          0.8853  -22.0681  -47.3833 C.3       11 UNK         0.1400 
     19 N           0.8392  -21.8676  -45.9339 N.am      11 UNK        -0.5000 
     20 C           0.7258  -22.8491  -45.0287 C.2       10 UNK         0.5000 
     21 O           0.7182  -24.0471  -45.3135 O.2       10 UNK        -0.5000 
     22 CA          0.5271  -22.4180  -43.5648 C.3       10 UNK         0.1400 
     23 CB          1.8595  -21.9940  -42.9296 C.3       10 UNK        -0.1800 
     24 N          -0.4580  -21.3427  -43.4273 N.am      10 UNK        -0.5000 
     25 C          -1.7538  -21.4615  -43.7530 C.2       9 UNK         0.5000 
     26 O          -2.2606  -22.5058  -44.1626 O.2       9 UNK        -0.5000 
     27 CA         -2.6273  -20.1996  -43.6356 C.3       9 UNK         0.1400 
     28 CB         -3.0618  -19.9724  -42.1802 C.3       9 UNK        -0.1800 
     29 N          -1.9701  -18.9970  -44.1469 N.am      9 UNK        -0.5000 
     30 C          -1.6007  -18.8079  -45.4223 C.2       8 UNK         0.5000 
     31 O          -1.7981  -19.6241  -46.3216 O.2       8 UNK        -0.5000 
     32 CA         -0.8269  -17.5119  -45.7309 C.3       8 UNK         0.1400 
     33 CB         -1.7761  -16.3031  -45.7653 C.3       8 UNK        -0.1800 
     34 N           0.2476  -17.2683  -44.7674 N.am      8 UNK        -0.5000 
     35 C           1.2668  -18.1086  -44.5320 C.2       7 UNK         0.5000 
     36 O           1.4439  -19.1629  -45.1400 O.2       7 UNK        -0.5000 
     37 CA          2.2062  -17.7451  -43.3720 C.3       7 UNK         0.1400 
     38 CB          3.2629  -16.7229  -43.8164 C.3       7 UNK        -0.1800 
     39 N           1.4608  -17.2365  -42.2198 N.am      7 UNK        -0.5000 
     40 C           0.6749  -17.9955  -41.4414 C.2       6 UNK         0.5000 
     41 O           0.5374  -19.2097  -41.5884 O.2       6 UNK        -0.5000 
     42 CA         -0.1221  -17.2713  -40.3402 C.3       6 UNK         0.1400 
     43 CB          0.7471  -17.0599  -39.0918 C.3       6 UNK        -0.1800 
     44 N          -0.6543  -15.9828  -40.7855 N.am      6 UNK        -0.5000 
     45 C          -1.5978  -15.8376  -41.7269 C.2       5 UNK         0.5000 
     46 O          -2.1608  -16.7831  -42.2766 O.2       5 UNK        -0.5000 
     47 CA         -1.9347  -14.3974  -42.1616 C.3       5 UNK         0.1400 
     48 CB         -3.0799  -13.8307  -41.3102 C.3       5 UNK        -0.1800 
     49 N          -0.7912  -13.4823  -42.1034 N.am      5 UNK        -0.5000 
     50 C           0.3530  -13.6333  -42.7819 C.2       4 UNK         0.5000 
     51 O           0.5645  -14.5725  -43.5510 O.2       4 UNK        -0.5000 
     52 CA          1.4297  -12.5583  -42.5412 C.3       4 UNK         0.1400 
     53 CB          2.8274  -13.0093  -42.9965 C.3       4 UNK        -0.1800 
     54 N           1.0949  -11.3125  -43.2227 N.am      4 UNK        -0.5000 
     55 C           0.1869  -10.4140  -42.8296 C.2       3 UNK         0.5000 
     56 O          -0.4805  -10.5347  -41.8007 O.2       3 UNK        -0.5000 
     57 CA         -0.0232   -9.1759  -43.7270 C.3       3 UNK         0.1400 
     58 CB          1.0066   -8.0776  -43.4006 C.3       3 UNK        -0.1800 
     59 N          -0.0732   -9.4490  -45.1724 N.am      3 UNK        -0.5000 
     60 C           0.8927   -9.9012  -45.9843 C.2       2 UNK         0.5000 
     61 O           2.0350  -10.1848  -45.6167 O.2       2 UNK        -0.5000 
     62 CA          0.5128  -10.0783  -47.4643 C.3       2 UNK         0.1400 
     63 CB          1.3046   -9.1073  -48.3541 C.3       2 UNK        -0.1800 
     64 N           0.7612  -11.4482  -47.9084 N.am      2 UNK        -0.5000 
     65 C           0.0569  -12.5191  -47.5145 C.2       1 UNK         0.5000 
     66 O          -0.9115  -12.4499  -46.7566 O.2       1 UNK        -0.5000 
     67 C          -0.3995  -22.7352  -47.9097 C.2       11 UNK         0.5000 
     68 O          -0.3004  -23.6895  -48.6787 O.2       11 UNK        -0.5000 
     69 N          -1.5714  -22.2483  -47.4773 N.am      12 UNK        -0.5000 
     70 CA         -2.8778  -22.7956  -47.8467 C.3       12 UNK         0.1400 
     71 CB         -3.9939  -21.9113  -47.2709 C.3       12 UNK        -0.1800 
     72 C          -3.0580  -24.2608  -47.4120 C.2       12 UNK         0.5000 
     73 O          -3.5269  -25.0782  -48.2047 O.2       12 UNK        -0.5000 
     74 N          -2.6350  -24.5763  -46.1800 N.am      13 UNK        -0.5000 
     75 CA         -2.6248  -25.9300  -45.6273 C.3       13 UNK         0.1400 
     76 CB         -2.2699  -25.8714  -44.1339 C.3       13 UNK        -0.1800 
     77 C          -1.6721  -26.8776  -46.3802 C.2       13 UNK         0.5000 
     78 O          -2.0384  -28.0265  -46.6296 O.2       13 UNK        -0.5000 
     79 N          -0.4822  -26.3788  -46.7442 N.am      14 UNK        -0.5000 
     80 CA          0.5227  -27.1132  -47.5139 C.3       14 UNK         0.1400 
     81 CB          1.8604  -26.3588  -47.4647 C.3       14 UNK        -0.1800 
     82 C           0.0913  -27.3680  -48.9702 C.2       14 UNK         0.5000 
     83 O           0.2723  -28.4785  -49.4713 O.2       14 UNK        -0.5000 
     84 N          -0.4739  -26.3414  -49.6197 N.am      15 UNK        -0.5000 
     85 CA         -0.9657  -26.3959  -50.9973 C.3       15 UNK         0.1400 
     86 CB         -1.1720  -24.9625  -51.5154 C.3       15 UNK        -0.1800 
     87 C          -2.2701  -27.1991  -51.1478 C.2       15 UNK         0.5000 
     88 O          -2.5189  -27.7374  -52.2272 O.2       15 UNK        -0.5000 
     89 N          -3.0808  -27.2357  -50.0790 N.am      16 UNK        -0.5000 
     90 CA         -4.4535  -27.7487  -50.0202 C.3       16 UNK         0.1400 
     91 CB         -4.4940  -29.2740  -50.2488 C.3       16 UNK        -0.1800 
     92 C          -5.3860  -26.9549  -50.9600 C.2       16 UNK         0.5000 
     93 O          -6.1806  -27.5387  -51.6999 O.2       16 UNK        -0.5000 
     94 N          -5.2400  -25.6261  -50.9272 N.am      17 UNK        -0.5000 
     95 CA         -5.9201  -24.6601  -51.7826 C.3       17 UNK         0.1400 
     96 CB         -5.1855  -24.5648  -53.1321 C.3       17 UNK        -0.1800 
     97 C          -5.9473  -23.3008  -51.0693 C.2       17 UNK         0.5000 
     98 O          -5.2754  -23.1321  -50.0510 O.2       17 UNK        -0.5000 
     99 N          -6.7215  -22.3517  -51.6072 N.am      18 UNK        -0.5000 
    100 CA        -6.8322  -20.9895  -51.0837 C.3       18 UNK         0.1400 
    101 CB        -7.9774  -20.2674  -51.8095 C.3       18 UNK        -0.1800 
    102 C         -5.5183  -20.1973  -51.2277 C.2       18 UNK         0.5000 
    103 O         -4.8580  -20.2892  -52.2664 O.2       18 UNK        -0.5000 
    104 N         -5.1883  -19.4061  -50.1982 N.am      19 UNK        -0.5000 
    105 CA        -4.0422  -18.4950  -50.1756 C.3       19 UNK         0.1400 
    106 CB        -3.9370  -17.8517  -48.7850 C.3       19 UNK        -0.1800 
    107 C         -4.1554  -17.4045  -51.2565 C.2       19 UNK         0.5000 
    108 O         -5.2663  -16.9727  -51.5750 O.2       19 UNK        -0.5000 
    109 N         -3.0054  -16.9962  -51.8076 N.am      20 UNK        -0.5000 
    110 CA        -2.8012  -16.0232  -52.8927 C.3       20 UNK         0.1400 
    111 CB        -3.3268  -14.6280  -52.5061 C.3       20 UNK        -0.1800 
    112 C         -3.3338  -16.4670  -54.2726 C.2       20 UNK         0.5000 
    113 O         -2.6740  -16.2073  -55.2792 O.2       20 UNK        -0.5000 
    114 N         -4.4945  -17.1322  -54.3045 N.am      21 UNK        -0.5000 
    115 CA        -5.0928  -17.7334  -55.4949 C.3       21 UNK         0.1400 
    116 CB        -6.5651  -18.0628  -55.2063 C.3       21 UNK        -0.1800 
    117 C         -4.3325  -18.9911  -55.9531 C.2       21 UNK         0.5000 
    118 O         -4.1176  -19.1653  -57.1531 O.2       21 UNK        -0.5000 
    119 N         -3.9365  -19.8310  -54.9864 N.am      22 UNK        -0.5000 
    120 CA        -3.1546  -21.0687  -55.1590 C.3       22 UNK         0.1400 
    121 C         -3.9109  -22.2303  -55.8740 C.2       22 UNK         0.5000 
    122 N         -5.2262  -22.1631  -56.0415 N.am      22 UNK        -0.7600 
    123 O         -3.3035  -23.2256  -56.2592 O.2       22 UNK        -0.5000 
    124 C124       -1.7357  -20.8333  -55.7566 C.3       23 UNK        -0.0398 
    125 S125       -0.7790  -19.5380  -54.8956 S.3       23 UNK        -0.2404 
    126 C126       -0.0704  -20.4939  -53.5126 C.3       23 UNK        -0.0205 
    127 H127        4.8350  -14.9271  -48.3315 H         1 UNK         0.0600 
    128 H128        4.9034  -13.1707  -48.1498 H         1 UNK         0.0600 
    129 H129        4.1888  -13.8827  -49.5999 H         1 UNK         0.0600 
    130 H130        1.9642  -13.7754  -49.5745 H         1 UNK         0.3000 
    131 H131        0.4324  -14.5920  -47.2313 H         1 UNK         0.0600 
    132 H132       -1.5502  -14.2216  -48.8164 H         1 UNK         0.0800 
    133 H133       -0.4163  -13.8053  -50.0741 H         1 UNK         0.0800 
    134 H134        1.6539  -15.6078  -50.7171 H         1 UNK         0.0800 
    135 H135        0.2690  -15.6883  -51.7798 H         1 UNK         0.0800 
    136 H136       -0.3629  -17.8263  -52.7936 H         1 UNK         0.1150 
    137 H137        1.9290  -21.3396  -51.9112 H         1 UNK         0.1150 
    138 H138        2.6526  -17.7042  -49.7623 H         1 UNK         0.1150 
    139 H139        3.5021  -21.3658  -50.1517 H         1 UNK         0.0800 
    140 H140        4.3932  -19.8730  -49.9680 H         1 UNK         0.0800 
    141 H141        0.8467  -20.8645  -49.1899 H         1 UNK         0.0800 
    142 H142        0.5505  -19.9418  -47.7534 H         1 UNK         0.0800 
    143 H143        1.7029  -22.7622  -47.5896 H         1 UNK         0.0600 
    144 H144        0.8878  -20.9035  -45.6119 H         1 UNK         0.3000 
    145 H145        0.1517  -23.2829  -43.0142 H         1 UNK         0.0600 
    146 H146        1.7352  -21.7617  -41.8718 H         1 UNK         0.0600 
    147 H147        2.5979  -22.7933  -43.0027 H         1 UNK         0.0600 
    148 H148        2.2788  -21.1145  -43.4180 H         1 UNK         0.0600 
    149 H149       -0.1224  -20.4618  -43.0521 H         1 UNK         0.3000 
    150 H150       -3.5259  -20.3627  -44.2334 H         1 UNK         0.0600 
    151 H151       -3.5657  -20.8532  -41.7803 H         1 UNK         0.0600 
    152 H152       -3.7575  -19.1367  -42.1033 H         1 UNK         0.0600 
    153 H153       -2.2101  -19.7582  -41.5340 H         1 UNK         0.0600 
    154 H154       -1.8111  -18.2501  -43.4763 H         1 UNK         0.3000 
    155 H155       -0.3655  -17.6166  -46.7149 H         1 UNK         0.0600 
    156 H156       -2.3742  -16.2296  -44.8581 H         1 UNK         0.0600 
    157 H157       -1.2331  -15.3658  -45.8757 H         1 UNK         0.0600 
    158 H158       -2.4697  -16.3784  -46.6018 H         1 UNK         0.0600 
    159 H159        0.2115  -16.3983  -44.2447 H         1 UNK         0.3000 
    160 H160        2.7286  -18.6533  -43.0642 H         1 UNK         0.0600 
    161 H161        2.8096  -15.8066  -44.1941 H         1 UNK         0.0600 
    162 H162        3.8793  -17.1302  -44.6188 H         1 UNK         0.0600 
    163 H163        3.9294  -16.4578  -42.9959 H         1 UNK         0.0600 
    164 H164        1.4639  -16.2363  -42.0849 H         1 UNK         0.3000 
    165 H165       -0.9646  -17.9095  -40.0653 H         1 UNK         0.0600 
    166 H166        0.1695  -16.6181  -38.2796 H         1 UNK         0.0600 
    167 H167        1.1437  -18.0088  -38.7281 H         1 UNK         0.0600 
    168 H168        1.5957  -16.4058  -39.2955 H         1 UNK         0.0600 
    169 H169       -0.2486  -15.1528  -40.3793 H         1 UNK         0.3000 
    170 H170       -2.2691  -14.4371  -43.1999 H         1 UNK         0.0600 
    171 H171       -3.9568  -14.4781  -41.3544 H         1 UNK         0.0600 
    172 H172       -2.7934  -13.7356  -40.2621 H         1 UNK         0.0600 
    173 H173       -3.3855  -12.8464  -41.6656 H         1 UNK         0.0600 
    174 H174       -0.9037  -12.6417  -41.5487 H         1 UNK         0.3000 
    175 H175        1.4782  -12.3701  -41.4667 H         1 UNK         0.0600 
    176 H176        2.8618  -13.1895  -44.0713 H         1 UNK         0.0600 
    177 H177        3.5800  -12.2566  -42.7615 H         1 UNK         0.0600 
    178 H178        3.1238  -13.9314  -42.4956 H         1 UNK         0.0600 
    179 H179        1.5861  -11.1214  -44.0926 H         1 UNK         0.3000 
    180 H180       -1.0077   -8.7794  -43.4736 H         1 UNK         0.0600 
    181 H181        2.0274   -8.3982  -43.6103 H         1 UNK         0.0600 
    182 H182        0.9628   -7.8058  -42.3452 H         1 UNK         0.0600 
    183 H183        0.8140   -7.1727  -43.9770 H         1 UNK         0.0600 
    184 H184       -0.9824   -9.2956  -45.5866 H         1 UNK         0.3000 
    185 H185       -0.5506   -9.8644  -47.5916 H         1 UNK         0.0600 
    186 H186        1.1295   -8.0734  -48.0539 H         1 UNK         0.0600 
    187 H187        2.3786   -9.2888  -48.2942 H         1 UNK         0.0600 
    188 H188        1.0066   -9.1969  -49.3989 H         1 UNK         0.0600 
    189 H189        1.5703  -11.5950  -48.4929 H         1 UNK         0.3000 
    190 H190       -1.5781  -21.4244  -46.8811 H         1 UNK         0.3000 
    191 H191       -2.9438  -22.7647  -48.9356 H         1 UNK         0.0600 
    192 H192       -3.9265  -21.8280  -46.1869 H         1 UNK         0.0600 
    193 H193       -4.9782  -22.3169  -47.5065 H         1 UNK         0.0600 
    194 H194       -3.9497  -20.9073  -47.6895 H         1 UNK         0.0600 
    195 H195       -2.3009  -23.8328  -45.5725 H         1 UNK         0.3000 
    196 H196       -3.6351  -26.3339  -45.7201 H         1 UNK         0.0600 
    197 H197       -2.2710  -26.8684  -43.6918 H         1 UNK         0.0600 
    198 H198       -2.9914  -25.2691  -43.5816 H         1 UNK         0.0600 
    199 H199       -1.2819  -25.4396  -43.9712 H         1 UNK         0.0600 
    200 H200       -0.2375  -25.4360  -46.4581 H         1 UNK         0.3000 
    201 H201        0.6681  -28.0845  -47.0365 H         1 UNK         0.0600 
    202 H202        2.2121  -26.2483  -46.4387 H         1 UNK         0.0600 
    203 H203        1.7779  -25.3615  -47.8976 H         1 UNK         0.0600 
    204 H204        2.6325  -26.8949  -48.0178 H         1 UNK         0.0600 
    205 H205       -0.5318  -25.4371  -49.1544 H         1 UNK         0.3000 
    206 H206       -0.2047  -26.8767  -51.6154 H         1 UNK         0.0600 
    207 H207       -0.2442  -24.3914  -51.4781 H         1 UNK         0.0600 
    208 H208       -1.5117  -24.9646  -52.5519 H         1 UNK         0.0600 
    209 H209       -1.9185  -24.4270  -50.9266 H         1 UNK         0.0600 
    210 H210       -2.8009  -26.6958  -49.2676 H         1 UNK         0.3000 
    211 H211       -4.8061  -27.5592  -49.0054 H         1 UNK         0.0600 
    212 H212       -4.2153  -29.5431  -51.2678 H         1 UNK         0.0600 
    213 H213       -5.4960  -29.6661  -50.0715 H         1 UNK         0.0600 
    214 H214       -3.8177  -29.7909  -49.5679 H         1 UNK         0.0600 
    215 H215       -4.6315  -25.2098  -50.2286 H         1 UNK         0.3000 
    216 H216       -6.9513  -24.9808  -51.9435 H         1 UNK         0.0600 
    217 H217       -5.6939  -23.8766  -53.8070 H         1 UNK         0.0600 
    218 H218       -5.1431  -25.5324  -53.6324 H         1 UNK         0.0600 
    219 H219       -4.1618  -24.2089  -53.0076 H         1 UNK         0.0600 
    220 H220       -7.2216  -22.5480  -52.4614 H         1 UNK         0.3000 
    221 H221       -7.0855  -21.0560  -50.0233 H         1 UNK         0.0600 
    222 H222       -7.8164  -20.2412  -52.8874 H         1 UNK         0.0600 
    223 H223       -8.9325  -20.7597  -51.6259 H         1 UNK         0.0600 
    224 H224       -8.0720  -19.2362  -51.4661 H         1 UNK         0.0600 
    225 H225       -5.8050  -19.3620  -49.4010 H         1 UNK         0.3000 
    226 H226       -3.1409  -19.0839  -50.3598 H         1 UNK         0.0600 
    227 H227       -3.0907  -17.1669  -48.7401 H         1 UNK         0.0600 
    228 H228       -4.8325  -17.2812  -48.5355 H         1 UNK         0.0600 
    229 H229       -3.7865  -18.5993  -48.0075 H         1 UNK         0.0600 
    230 H230       -2.1552  -17.4177  -51.4609 H         1 UNK         0.3000 
    231 H231       -1.7212  -15.9322  -53.0050 H         1 UNK         0.0600 
    232 H232       -3.0593  -13.8902  -53.2634 H         1 UNK         0.0600 
    233 H233       -2.8978  -14.2945  -51.5611 H         1 UNK         0.0600 
    234 H234       -4.4123  -14.6112  -52.4077 H         1 UNK         0.0600 
    235 H235       -4.9816  -17.2589  -53.4219 H         1 UNK         0.3000 
    236 H236       -5.0579  -17.0032  -56.3062 H         1 UNK         0.0600 
    237 H237       -7.1275  -17.1635  -54.9549 H         1 UNK         0.0600 
    238 H238       -7.0438  -18.5139  -56.0764 H         1 UNK         0.0600 
    239 H239       -6.6634  -18.7612  -54.3751 H         1 UNK         0.0600 
    240 H240       -4.2138  -19.6436  -54.0280 H         1 UNK         0.3000 
    241 H241       -3.0096  -21.4408  -54.1446 H         1 UNK         0.0600 
    242 H242       -5.7393  -21.3558  -55.7282 H         1 UNK         0.3800 
    243 H243       -5.7065  -22.9189  -56.5033 H         1 UNK         0.3800 
    244 H244       -1.1538  -21.7563  -55.7406 H         1 UNK         0.0800 
    245 H245       -1.8129  -20.5494  -56.8069 H         1 UNK         0.0800 
    246 H246        0.5678  -21.2754  -53.9284 H         1 UNK         0.0800 
    247 H247       -0.8765  -20.9978  -52.9778 H         1 UNK         0.0800 
@<TRIPOS>BOND
     1    1    2 1    
     2    1  127 1    
     3    1  128 1    
     4    1  129 1    
     5    2    3 2    
     6    2    4 am   BACKBONE|DICT|INTERRES
     7    4    5 1    
     8    4  130 1    
     9    5    6 1    
    10    5   65 1    
    11    5  131 1    
    12    6    7 1    
    13    6  132 1    
    14    6  133 1    
    15    7    8 1    
    16    8    9 1    
    17    8  134 1    
    18    8  135 1    
    19    9   10 ar   
    20    9   14 ar   
    21   10   11 ar   
    22   10  136 1    
    23   11   12 ar   
    24   11  126 1    
    25   12   13 ar   
    26   12  137 1    
    27   13   14 ar   
    28   13   15 1    
    29   14  138 1    
    30   15   16 1    
    31   15  139 1    
    32   15  140 1    
    33   16   17 1    
    34   17   18 1    
    35   17  141 1    
    36   17  142 1    
    37   18   19 1    
    38   18   67 1    
    39   18  143 1    
    40   19   20 am   BACKBONE|DICT|INTERRES
    41   19  144 1    
    42   20   21 2    
    43   20   22 1    
    44   22   23 1    
    45   22   24 1    
    46   22  145 1    
    47   23  146 1    
    48   23  147 1    
    49   23  148 1    
    50   24   25 am   BACKBONE|DICT|INTERRES
    51   24  149 1    
    52   25   26 2    
    53   25   27 1    
    54   27   28 1    
    55   27   29 1    
    56   27  150 1    
    57   28  151 1    
    58   28  152 1    
    59   28  153 1    
    60   29   30 am   BACKBONE|DICT|INTERRES
    61   29  154 1    
    62   30   31 2    
    63   30   32 1    
    64   32   33 1    
    65   32   34 1    
    66   32  155 1    
    67   33  156 1    
    68   33  157 1    
    69   33  158 1    
    70   34   35 am   BACKBONE|DICT|INTERRES
    71   34  159 1    
    72   35   36 2    
    73   35   37 1    
    74   37   38 1    
    75   37   39 1    
    76   37  160 1    
    77   38  161 1    
    78   38  162 1    
    79   38  163 1    
    80   39   40 am   BACKBONE|DICT|INTERRES
    81   39  164 1    
    82   40   41 2    
    83   40   42 1    
    84   42   43 1    
    85   42   44 1    
    86   42  165 1    
    87   43  166 1    
    88   43  167 1    
    89   43  168 1    
    90   44   45 am   BACKBONE|DICT|INTERRES
    91   44  169 1    
    92   45   46 2    
    93   45   47 1    
    94   47   48 1    
    95   47   49 1    
    96   47  170 1    
    97   48  171 1    
    98   48  172 1    
    99   48  173 1    
   100   49   50 am   BACKBONE|DICT|INTERRES
   101   49  174 1    
   102   50   51 2    
   103   50   52 1    
   104   52   53 1    
   105   52   54 1    
   106   52  175 1    
   107   53  176 1    
   108   53  177 1    
   109   53  178 1    
   110   54   55 am   BACKBONE|DICT|INTERRES
   111   54  179 1    
   112   55   56 2    
   113   55   57 1    
   114   57   58 1    
   115   57   59 1    
   116   57  180 1    
   117   58  181 1    
   118   58  182 1    
   119   58  183 1    
   120   59   60 am   BACKBONE|DICT|INTERRES
   121   59  184 1    
   122   60   61 2    
   123   60   62 1    
   124   62   63 1    
   125   62   64 1    
   126   62  185 1    
   127   63  186 1    
   128   63  187 1    
   129   63  188 1    
   130   64   65 am   BACKBONE|DICT|INTERRES
   131   64  189 1    
   132   65   66 2    
   133   67   68 2    
   134   67   69 am   BACKBONE|DICT|INTERRES
   135   69   70 1    
   136   69  190 1    
   137   70   71 1    
   138   70   72 1    
   139   70  191 1    
   140   71  192 1    
   141   71  193 1    
   142   71  194 1    
   143   72   73 2    
   144   72   74 am   BACKBONE|DICT|INTERRES
   145   74   75 1    
   146   74  195 1    
   147   75   76 1    
   148   75   77 1    
   149   75  196 1    
   150   76  197 1    
   151   76  198 1    
   152   76  199 1    
   153   77   78 2    
   154   77   79 am   BACKBONE|DICT|INTERRES
   155   79   80 1    
   156   79  200 1    
   157   80   81 1    
   158   80   82 1    
   159   80  201 1    
   160   81  202 1    
   161   81  203 1    
   162   81  204 1    
   163   82   83 2    
   164   82   84 am   BACKBONE|DICT|INTERRES
   165   84   85 1    
   166   84  205 1    
   167   85   86 1    
   168   85   87 1    
   169   85  206 1    
   170   86  207 1    
   171   86  208 1    
   172   86  209 1    
   173   87   88 2    
   174   87   89 am   BACKBONE|DICT|INTERRES
   175   89   90 1    
   176   89  210 1    
   177   90   91 1    
   178   90   92 1    
   179   90  211 1    
   180   91  212 1    
   181   91  213 1    
   182   91  214 1    
   183   92   93 2    
   184   92   94 am   BACKBONE|DICT|INTERRES
   185   94   95 1    
   186   94  215 1    
   187   95   96 1    
   188   95   97 1    
   189   95  216 1    
   190   96  217 1    
   191   96  218 1    
   192   96  219 1    
   193   97   98 2    
   194   97   99 am   BACKBONE|DICT|INTERRES
   195   99  100 1    
   196   99  220 1    
   197  100  101 1    
   198  100  102 1    
   199  100  221 1    
   200  101  222 1    
   201  101  223 1    
   202  101  224 1    
   203  102  103 2    
   204  102  104 am   BACKBONE|DICT|INTERRES
   205  104  105 1    
   206  104  225 1    
   207  105  106 1    
   208  105  107 1    
   209  105  226 1    
   210  106  227 1    
   211  106  228 1    
   212  106  229 1    
   213  107  108 2    
   214  107  109 am   BACKBONE|DICT|INTERRES
   215  109  110 1    
   216  109  230 1    
   217  110  111 1    
   218  110  112 1    
   219  110  231 1    
   220  111  232 1    
   221  111  233 1    
   222  111  234 1    
   223  112  113 2    
   224  112  114 am   BACKBONE|DICT|INTERRES
   225  114  115 1    
   226  114  235 1    
   227  115  116 1    
   228  115  117 1    
   229  115  236 1    
   230  116  237 1    
   231  116  238 1    
   232  116  239 1    
   233  117  118 2    
   234  117  119 am   BACKBONE|DICT|INTERRES
   235  119  120 1    
   236  119  240 1    
   237  120  121 1    
   238  120  124 1    
   239  120  241 1    
   240  121  122 am   BACKBONE|DICT|INTERRES
   241  121  123 2    
   242  122  242 1    
   243  122  243 1    
   244  124  125 1    
   245  124  244 1    
   246  124  245 1    
   247  125  126 1    
   248  126  246 1    
   249  126  247 1    
@<TRIPOS>SUBSTRUCTURE
     1 UNK         1 GROUP             0       ****    0 ROOT    
