@<TRIPOS>MOLECULE
3R540
247   249    1
SMALL
USER_CHARGES


@<TRIPOS>ATOM
      1 CA          7.6600  -14.7349  -45.0881 C.3       0 UNK        -0.1800 
      2 C           6.1627  -14.5072  -45.2307 C.2       0 UNK         0.5000 
      3 O           5.5746  -13.7663  -44.4428 O.2       0 UNK        -0.5000 
      4 N           5.5400  -15.1262  -46.2434 N.am      1 UNK        -0.5000 
      5 CA          4.0965  -15.0587  -46.5090 C.3       1 UNK         0.1400 
      6 C6          3.6243  -16.1622  -47.4811 C.3       23 UNK        -0.0398 
      7 S7          4.3704  -16.1010  -49.1476 S.3       23 UNK        -0.2404 
      8 C8          2.9578  -15.5582  -50.1703 C.3       23 UNK        -0.0205 
      9 C9          1.7701  -16.5110  -50.0903 C.ar      23 UNK        -0.0193 
     10 C10         0.5448  -16.0702  -49.5786 C.ar      23 UNK        -0.1150 
     11 C11        -0.5440  -16.9430  -49.4893 C.ar      23 UNK        -0.0193 
     12 C12        -0.3911  -18.2737  -49.8892 C.ar      23 UNK        -0.1150 
     13 C13         0.8236  -18.7245  -50.4134 C.ar      23 UNK        -0.0193 
     14 C14         1.8956  -17.8339  -50.5244 C.ar      23 UNK        -0.1150 
     15 C15         0.9711  -20.1747  -50.8574 C.3       23 UNK        -0.0205 
     16 S16         2.3009  -21.0608  -49.9765 S.3       23 UNK        -0.2404 
     17 C17         1.8166  -20.8531  -48.2286 C.3       23 UNK        -0.0398 
     18 CA          1.1546  -22.1015  -47.6020 C.3       11 UNK         0.1400 
     19 N           1.1094  -21.9973  -46.1420 N.am      11 UNK        -0.5000 
     20 C           0.7468  -22.9792  -45.3057 C.2       10 UNK         0.5000 
     21 O           0.4445  -24.1129  -45.6736 O.2       10 UNK        -0.5000 
     22 CA          0.6596  -22.6201  -43.8105 C.3       10 UNK         0.1400 
     23 CB          2.0533  -22.6077  -43.1660 C.3       10 UNK        -0.1800 
     24 N          -0.0006  -21.3346  -43.5794 N.am      10 UNK        -0.5000 
     25 C          -1.2726  -21.0650  -43.9077 C.2       9 UNK         0.5000 
     26 O          -2.0428  -21.8863  -44.4020 O.2       9 UNK        -0.5000 
     27 CA         -1.7461  -19.6174  -43.7048 C.3       9 UNK         0.1400 
     28 CB         -2.1432  -19.3593  -42.2435 C.3       9 UNK        -0.1800 
     29 N          -0.7270  -18.6556  -44.1178 N.am      9 UNK        -0.5000 
     30 C          -0.3528  -18.4550  -45.3889 C.2       8 UNK         0.5000 
     31 O          -0.8421  -19.0447  -46.3524 O.2       8 UNK        -0.5000 
     32 CA          0.7936  -17.4551  -45.6085 C.3       8 UNK         0.1400 
     33 CB          0.2710  -16.0151  -45.5282 C.3       8 UNK        -0.1800 
     34 N           1.8781  -17.6219  -44.6392 N.am      8 UNK        -0.5000 
     35 C           2.6602  -18.7084  -44.5625 C.2       7 UNK         0.5000 
     36 O           2.5731  -19.6639  -45.3300 O.2       7 UNK        -0.5000 
     37 CA          3.6816  -18.7606  -43.4118 C.3       7 UNK         0.1400 
     38 CB          5.0062  -18.1176  -43.8482 C.3       7 UNK        -0.1800 
     39 N           3.2125  -18.1070  -42.1904 N.am      7 UNK        -0.5000 
     40 C           2.0942  -18.4123  -41.5184 C.2       6 UNK         0.5000 
     41 O           1.3417  -19.3378  -41.8263 O.2       6 UNK        -0.5000 
     42 CA          1.7226  -17.4932  -40.3387 C.3       6 UNK         0.1400 
     43 CB          2.9517  -16.8779  -39.6341 C.3       6 UNK        -0.1800 
     44 N           0.7769  -16.4363  -40.7219 N.am      6 UNK        -0.5000 
     45 C           0.9215  -15.5198  -41.6907 C.2       5 UNK         0.5000 
     46 O           1.8661  -15.4913  -42.4872 O.2       5 UNK        -0.5000 
     47 CA         -0.1756  -14.4474  -41.7819 C.3       5 UNK         0.1400 
     48 CB         -0.1843  -13.5424  -40.5356 C.3       5 UNK        -0.1800 
     49 N           0.0762  -13.6399  -42.9680 N.am      5 UNK        -0.5000 
     50 C          -0.8150  -12.9123  -43.6478 C.2       4 UNK         0.5000 
     51 O          -2.0034  -12.8236  -43.3344 O.2       4 UNK        -0.5000 
     52 CA         -0.2763  -12.1773  -44.8952 C.3       4 UNK         0.1400 
     53 CB         -1.1647  -10.9949  -45.3343 C.3       4 UNK        -0.1800 
     54 N           1.1262  -11.7618  -44.7606 N.am      4 UNK        -0.5000 
     55 C           1.6371  -10.8900  -43.8734 C.2       3 UNK         0.5000 
     56 O           0.9613  -10.2882  -43.0382 O.2       3 UNK        -0.5000 
     57 CA          3.1639  -10.6554  -43.8994 C.3       3 UNK         0.1400 
     58 CB          3.8243  -11.3569  -42.7018 C.3       3 UNK        -0.1800 
     59 N           3.8126  -11.1199  -45.1265 N.am      3 UNK        -0.5000 
     60 C           3.6608  -10.5664  -46.3397 C.2       2 UNK         0.5000 
     61 O           3.0497   -9.5155  -46.5353 O.2       2 UNK        -0.5000 
     62 CA          4.2565  -11.3298  -47.5439 C.3       2 UNK         0.1400 
     63 CB          5.5644  -10.6702  -48.0065 C.3       2 UNK        -0.1800 
     64 N           4.5116  -12.7494  -47.2812 N.am      2 UNK        -0.5000 
     65 C           3.5913  -13.6599  -46.9301 C.2       1 UNK         0.5000 
     66 O           2.3864  -13.4131  -46.8734 O.2       1 UNK        -0.5000 
     67 C          -0.2418  -22.3797  -48.1964 C.2       11 UNK         0.5000 
     68 O          -0.3822  -23.2946  -49.0087 O.2       11 UNK        -0.5000 
     69 N          -1.2576  -21.6250  -47.7510 N.am      12 UNK        -0.5000 
     70 CA         -2.6519  -21.8127  -48.1551 C.3       12 UNK         0.1400 
     71 CB         -3.5119  -20.6682  -47.5997 C.3       12 UNK        -0.1800 
     72 C          -3.2201  -23.1849  -47.7428 C.2       12 UNK         0.5000 
     73 O          -3.9313  -23.7990  -48.5359 O.2       12 UNK        -0.5000 
     74 N          -2.8732  -23.6514  -46.5347 N.am      13 UNK        -0.5000 
     75 CA         -3.2562  -24.9616  -46.0047 C.3       13 UNK         0.1400 
     76 CB         -2.9856  -24.9992  -44.4929 C.3       13 UNK        -0.1800 
     77 C          -2.5535  -26.1400  -46.7064 C.2       13 UNK         0.5000 
     78 O          -3.1478  -27.2135  -46.8130 O.2       13 UNK        -0.5000 
     79 N          -1.3090  -25.9335  -47.1612 N.am      14 UNK        -0.5000 
     80 CA         -0.5486  -26.8984  -47.9595 C.3       14 UNK         0.1400 
     81 CB          0.9349  -26.4990  -47.9750 C.3       14 UNK        -0.1800 
     82 C          -1.0971  -27.0255  -49.3934 C.2       14 UNK         0.5000 
     83 O          -1.0969  -28.1233  -49.9530 O.2       14 UNK        -0.5000 
     84 N          -1.5705  -25.9032  -49.9482 N.am      15 UNK        -0.5000 
     85 CA         -2.3170  -25.8213  -51.2011 C.3       15 UNK         0.1400 
     86 CB         -2.1842  -24.3837  -51.7400 C.3       15 UNK        -0.1800 
     87 C          -3.7967  -26.2277  -51.0084 C.2       15 UNK         0.5000 
     88 O          -4.1884  -26.7077  -49.9434 O.2       15 UNK        -0.5000 
     89 N          -4.6174  -25.9975  -52.0408 N.am      16 UNK        -0.5000 
     90 CA         -6.0739  -26.1785  -52.0070 C.3       16 UNK         0.1400 
     91 CB         -6.5569  -26.6047  -53.4056 C.3       16 UNK        -0.1800 
     92 C          -6.8121  -24.9144  -51.5092 C.2       16 UNK         0.5000 
     93 O          -7.9850  -24.7287  -51.8373 O.2       16 UNK        -0.5000 
     94 N          -6.1161  -24.0475  -50.7575 N.am      17 UNK        -0.5000 
     95 CA         -6.5507  -22.7260  -50.3020 C.3       17 UNK         0.1400 
     96 CB         -7.6293  -22.8554  -49.2042 C.3       17 UNK        -0.1800 
     97 C          -6.9475  -21.8283  -51.4912 C.2       17 UNK         0.5000 
     98 O          -6.2268  -21.8034  -52.4906 O.2       17 UNK        -0.5000 
     99 N          -8.0800  -21.1219  -51.3865 N.am      18 UNK        -0.5000 
    100 CA        -8.5926  -20.1944  -52.3986 C.3       18 UNK         0.1400 
    101 CB        -9.8201  -19.4677  -51.8293 C.3       18 UNK        -0.1800 
    102 C         -8.9267  -20.8440  -53.7580 C.2       18 UNK         0.5000 
    103 O         -8.9723  -20.1327  -54.7622 O.2       18 UNK        -0.5000 
    104 N         -9.1313  -22.1706  -53.7821 N.am      19 UNK        -0.5000 
    105 CA        -9.3209  -22.9493  -55.0083 C.3       19 UNK         0.1400 
    106 CB        -9.9190  -24.3216  -54.6639 C.3       19 UNK        -0.1800 
    107 C         -8.0205  -23.1081  -55.8220 C.2       19 UNK         0.5000 
    108 O         -8.0972  -23.3114  -57.0344 O.2       19 UNK        -0.5000 
    109 N         -6.8608  -22.9944  -55.1580 N.am      20 UNK        -0.5000 
    110 CA        -5.5546  -22.8839  -55.7995 C.3       20 UNK         0.1400 
    111 CB        -4.4788  -23.5670  -54.9355 C.3       20 UNK        -0.1800 
    112 C         -5.2473  -21.3987  -56.0398 C.2       20 UNK         0.5000 
    113 O         -5.2591  -20.9544  -57.1883 O.2       20 UNK        -0.5000 
    114 N         -5.0171  -20.6613  -54.9475 N.am      21 UNK        -0.5000 
    115 CA        -4.7293  -19.2311  -54.8952 C.3       21 UNK         0.1400 
    116 CB        -3.4397  -18.8840  -55.6688 C.3       21 UNK        -0.1800 
    117 C         -4.5607  -18.8272  -53.4252 C.2       21 UNK         0.5000 
    118 O         -4.0868  -19.6346  -52.6214 O.2       21 UNK        -0.5000 
    119 N         -4.9066  -17.5735  -53.1083 N.am      22 UNK        -0.5000 
    120 CA        -4.7084  -16.9008  -51.8099 C.3       22 UNK         0.1400 
    121 C         -5.5732  -17.4523  -50.6370 C.2       22 UNK         0.5000 
    122 N         -5.6675  -18.7612  -50.4569 N.am      22 UNK        -0.7600 
    123 O         -6.1793  -16.6832  -49.8965 O.2       22 UNK        -0.5000 
    124 C124       -3.2038  -16.8300  -51.4350 C.3       23 UNK        -0.0398 
    125 S125       -2.7978  -15.5117  -50.2417 S.3       23 UNK        -0.2404 
    126 C126       -1.8872  -16.4457  -48.9711 C.3       23 UNK        -0.0205 
    127 H127        8.1917  -13.7857  -45.1537 H         1 UNK         0.0600 
    128 H128        8.0451  -15.3963  -45.8645 H         1 UNK         0.0600 
    129 H129        7.8787  -15.1838  -44.1192 H         1 UNK         0.0600 
    130 H130        6.0730  -15.7011  -46.8814 H         1 UNK         0.3000 
    131 H131        3.6053  -15.2615  -45.5546 H         1 UNK         0.0600 
    132 H132        2.5404  -16.1255  -47.5659 H         1 UNK         0.0800 
    133 H133        3.8480  -17.1416  -47.0563 H         1 UNK         0.0800 
    134 H134        2.6680  -14.5508  -49.8667 H         1 UNK         0.0800 
    135 H135        3.2822  -15.4837  -51.2089 H         1 UNK         0.0800 
    136 H136        0.4327  -15.0447  -49.2549 H         1 UNK         0.1150 
    137 H137       -1.2231  -18.9581  -49.8008 H         1 UNK         0.1150 
    138 H138        2.8389  -18.1785  -50.9245 H         1 UNK         0.1150 
    139 H139        0.0351  -20.7195  -50.7244 H         1 UNK         0.0800 
    140 H140        1.1849  -20.1945  -51.9267 H         1 UNK         0.0800 
    141 H141        1.1917  -19.9703  -48.0915 H         1 UNK         0.0800 
    142 H142        2.7435  -20.6359  -47.6978 H         1 UNK         0.0800 
    143 H143        1.7828  -22.9645  -47.8333 H         1 UNK         0.0600 
    144 H144        1.3993  -21.1055  -45.7502 H         1 UNK         0.3000 
    145 H145        0.0641  -23.3909  -43.3169 H         1 UNK         0.0600 
    146 H146        1.9948  -22.3794  -42.1016 H         1 UNK         0.0600 
    147 H147        2.5360  -23.5805  -43.2657 H         1 UNK         0.0600 
    148 H148        2.7058  -21.8697  -43.6315 H         1 UNK         0.0600 
    149 H149        0.5503  -20.6058  -43.1362 H         1 UNK         0.3000 
    150 H150       -2.6301  -19.4645  -44.3276 H         1 UNK         0.0600 
    151 H151       -2.9332  -20.0432  -41.9304 H         1 UNK         0.0600 
    152 H152       -2.5203  -18.3452  -42.1108 H         1 UNK         0.0600 
    153 H153       -1.3038  -19.4968  -41.5617 H         1 UNK         0.0600 
    154 H154       -0.2182  -18.1905  -43.3810 H         1 UNK         0.3000 
    155 H155        1.1933  -17.6347  -46.6075 H         1 UNK         0.0600 
    156 H156       -0.2877  -15.8438  -44.6088 H         1 UNK         0.0600 
    157 H157       -0.3965  -15.7951  -46.3576 H         1 UNK         0.0600 
    158 H158        1.0822  -15.2906  -45.5645 H         1 UNK         0.0600 
    159 H159        1.9969  -16.8905  -43.9449 H         1 UNK         0.3000 
    160 H160        3.8673  -19.8101  -43.1776 H         1 UNK         0.0600 
    161 H161        4.8895  -17.0499  -44.0352 H         1 UNK         0.0600 
    162 H162        5.3818  -18.5737  -44.7653 H         1 UNK         0.0600 
    163 H163        5.7753  -18.2418  -43.0857 H         1 UNK         0.0600 
    164 H164        3.7286  -17.2919  -41.8923 H         1 UNK         0.3000 
    165 H165        1.2096  -18.1243  -39.6113 H         1 UNK         0.0600 
    166 H166        2.6557  -16.3661  -38.7184 H         1 UNK         0.0600 
    167 H167        3.6704  -17.6487  -39.3526 H         1 UNK         0.0600 
    168 H168        3.4711  -16.1513  -40.2598 H         1 UNK         0.0600 
    169 H169       -0.0548  -16.3890  -40.1501 H         1 UNK         0.3000 
    170 H170       -1.1385  -14.9520  -41.8838 H         1 UNK         0.0600 
    171 H171       -0.3855  -14.1135  -39.6288 H         1 UNK         0.0600 
    172 H172        0.7735  -13.0376  -40.4025 H         1 UNK         0.0600 
    173 H173       -0.9558  -12.7757  -40.6087 H         1 UNK         0.0600 
    174 H174        1.0262  -13.7087  -43.3108 H         1 UNK         0.3000 
    175 H175       -0.2922  -12.9109  -45.7025 H         1 UNK         0.0600 
    176 H176       -2.1696  -11.3344  -45.5878 H         1 UNK         0.0600 
    177 H177       -1.2627  -10.2458  -44.5483 H         1 UNK         0.0600 
    178 H178       -0.7571  -10.5035  -46.2178 H         1 UNK         0.0600 
    179 H179        1.7610  -12.2062  -45.4164 H         1 UNK         0.3000 
    180 H180        3.3342   -9.5808  -43.8075 H         1 UNK         0.0600 
    181 H181        3.6792  -12.4377  -42.7397 H         1 UNK         0.0600 
    182 H182        3.4053  -11.0028  -41.7590 H         1 UNK         0.0600 
    183 H183        4.8970  -11.1645  -42.6729 H         1 UNK         0.0600 
    184 H184        4.3539  -11.9728  -45.0485 H         1 UNK         0.3000 
    185 H185        3.5315  -11.2686  -48.3580 H         1 UNK         0.0600 
    186 H186        5.4095   -9.6165  -48.2423 H         1 UNK         0.0600 
    187 H187        6.3356  -10.7247  -47.2369 H         1 UNK         0.0600 
    188 H188        5.9518  -11.1490  -48.9061 H         1 UNK         0.0600 
    189 H189        5.4775  -13.0422  -47.2952 H         1 UNK         0.3000 
    190 H190       -1.0702  -20.8668  -47.1013 H         1 UNK         0.3000 
    191 H191       -2.6878  -21.7582  -49.2453 H         1 UNK         0.0600 
    192 H192       -3.1690  -19.7025  -47.9714 H         1 UNK         0.0600 
    193 H193       -4.5544  -20.7802  -47.8996 H         1 UNK         0.0600 
    194 H194       -3.4834  -20.6365  -46.5102 H         1 UNK         0.0600 
    195 H195       -2.3372  -23.0522  -45.9130 H         1 UNK         0.3000 
    196 H196       -4.3304  -25.0836  -46.1585 H         1 UNK         0.0600 
    197 H197       -3.2767  -25.9598  -44.0662 H         1 UNK         0.0600 
    198 H198       -3.5523  -24.2273  -43.9720 H         1 UNK         0.0600 
    199 H199       -1.9290  -24.8466  -44.2707 H         1 UNK         0.0600 
    200 H200       -0.8510  -25.0535  -46.9501 H         1 UNK         0.3000 
    201 H201       -0.6298  -27.8777  -47.4832 H         1 UNK         0.0600 
    202 H202        1.3465  -26.4746  -46.9659 H         1 UNK         0.0600 
    203 H203        1.0840  -25.5151  -48.4204 H         1 UNK         0.0600 
    204 H204        1.5253  -27.2131  -48.5502 H         1 UNK         0.0600 
    205 H205       -1.4961  -25.0434  -49.4167 H         1 UNK         0.3000 
    206 H206       -1.8709  -26.5070  -51.9239 H         1 UNK         0.0600 
    207 H207       -1.1396  -24.0734  -51.7792 H         1 UNK         0.0600 
    208 H208       -2.5763  -24.2972  -52.7528 H         1 UNK         0.0600 
    209 H209       -2.7171  -23.6669  -51.1140 H         1 UNK         0.0600 
    210 H210       -4.2391  -25.5917  -52.8835 H         1 UNK         0.3000 
    211 H211       -6.3238  -26.9853  -51.3151 H         1 UNK         0.0600 
    212 H212       -6.4651  -25.7967  -54.1308 H         1 UNK         0.0600 
    213 H213       -7.6067  -26.8994  -53.3816 H         1 UNK         0.0600 
    214 H214       -5.9924  -27.4597  -53.7778 H         1 UNK         0.0600 
    215 H215       -5.1720  -24.2965  -50.4947 H         1 UNK         0.3000 
    216 H216       -5.6771  -22.2516  -49.8546 H         1 UNK         0.0600 
    217 H217       -7.8606  -21.8879  -48.7574 H         1 UNK         0.0600 
    218 H218       -7.2807  -23.5001  -48.3969 H         1 UNK         0.0600 
    219 H219       -8.5576  -23.2806  -49.5873 H         1 UNK         0.0600 
    220 H220       -8.6326  -21.2197  -50.5473 H         1 UNK         0.3000 
    221 H221       -7.8141  -19.4511  -52.5839 H         1 UNK         0.0600 
    222 H222      -10.6242  -20.1647  -51.5901 H         1 UNK         0.0600 
    223 H223       -9.5674  -18.9190  -50.9217 H         1 UNK         0.0600 
    224 H224      -10.2139  -18.7442  -52.5444 H         1 UNK         0.0600 
    225 H225       -9.0561  -22.6933  -52.9195 H         1 UNK         0.3000 
    226 H226      -10.0401  -22.4207  -55.6377 H         1 UNK         0.0600 
    227 H227      -10.8323  -24.2216  -54.0772 H         1 UNK         0.0600 
    228 H228      -10.1737  -24.8709  -55.5710 H         1 UNK         0.0600 
    229 H229       -9.2204  -24.9378  -54.0994 H         1 UNK         0.0600 
    230 H230       -6.8891  -22.7628  -54.1712 H         1 UNK         0.3000 
    231 H231       -5.5639  -23.3852  -56.7698 H         1 UNK         0.0600 
    232 H232       -4.6056  -24.6484  -54.9405 H         1 UNK         0.0600 
    233 H233       -4.5046  -23.2300  -53.8994 H         1 UNK         0.0600 
    234 H234       -3.4798  -23.3623  -55.3228 H         1 UNK         0.0600 
    235 H235       -5.0782  -21.0992  -54.0308 H         1 UNK         0.3000 
    236 H236       -5.5769  -18.6909  -55.3212 H         1 UNK         0.0600 
    237 H237       -3.1710  -17.8355  -55.5336 H         1 UNK         0.0600 
    238 H238       -2.5956  -19.4843  -55.3269 H         1 UNK         0.0600 
    239 H239       -3.5516  -19.0426  -56.7407 H         1 UNK         0.0600 
    240 H240       -5.3100  -16.9920  -53.8292 H         1 UNK         0.3000 
    241 H241       -5.0481  -15.8782  -51.9811 H         1 UNK         0.0600 
    242 H242       -6.2268  -19.1236  -49.7037 H         1 UNK         0.3800 
    243 H243       -5.1582  -19.3758  -51.0860 H         1 UNK         0.3800 
    244 H244       -2.8660  -17.7974  -51.0643 H         1 UNK         0.0800 
    245 H245       -2.6071  -16.6335  -52.3268 H         1 UNK         0.0800 
    246 H246       -1.7339  -15.7881  -48.1173 H         1 UNK         0.0800 
    247 H247       -2.4980  -17.2755  -48.6114 H         1 UNK         0.0800 
@<TRIPOS>BOND
     1    1    2 1    
     2    1  127 1    
     3    1  128 1    
     4    1  129 1    
     5    2    3 2    
     6    2    4 am   BACKBONE|DICT|INTERRES
     7    4    5 1    
     8    4  130 1    
     9    5    6 1    
    10    5   65 1    
    11    5  131 1    
    12    6    7 1    
    13    6  132 1    
    14    6  133 1    
    15    7    8 1    
    16    8    9 1    
    17    8  134 1    
    18    8  135 1    
    19    9   10 ar   
    20    9   14 ar   
    21   10   11 ar   
    22   10  136 1    
    23   11   12 ar   
    24   11  126 1    
    25   12   13 ar   
    26   12  137 1    
    27   13   14 ar   
    28   13   15 1    
    29   14  138 1    
    30   15   16 1    
    31   15  139 1    
    32   15  140 1    
    33   16   17 1    
    34   17   18 1    
    35   17  141 1    
    36   17  142 1    
    37   18   19 1    
    38   18   67 1    
    39   18  143 1    
    40   19   20 am   BACKBONE|DICT|INTERRES
    41   19  144 1    
    42   20   21 2    
    43   20   22 1    
    44   22   23 1    
    45   22   24 1    
    46   22  145 1    
    47   23  146 1    
    48   23  147 1    
    49   23  148 1    
    50   24   25 am   BACKBONE|DICT|INTERRES
    51   24  149 1    
    52   25   26 2    
    53   25   27 1    
    54   27   28 1    
    55   27   29 1    
    56   27  150 1    
    57   28  151 1    
    58   28  152 1    
    59   28  153 1    
    60   29   30 am   BACKBONE|DICT|INTERRES
    61   29  154 1    
    62   30   31 2    
    63   30   32 1    
    64   32   33 1    
    65   32   34 1    
    66   32  155 1    
    67   33  156 1    
    68   33  157 1    
    69   33  158 1    
    70   34   35 am   BACKBONE|DICT|INTERRES
    71   34  159 1    
    72   35   36 2    
    73   35   37 1    
    74   37   38 1    
    75   37   39 1    
    76   37  160 1    
    77   38  161 1    
    78   38  162 1    
    79   38  163 1    
    80   39   40 am   BACKBONE|DICT|INTERRES
    81   39  164 1    
    82   40   41 2    
    83   40   42 1    
    84   42   43 1    
    85   42   44 1    
    86   42  165 1    
    87   43  166 1    
    88   43  167 1    
    89   43  168 1    
    90   44   45 am   BACKBONE|DICT|INTERRES
    91   44  169 1    
    92   45   46 2    
    93   45   47 1    
    94   47   48 1    
    95   47   49 1    
    96   47  170 1    
    97   48  171 1    
    98   48  172 1    
    99   48  173 1    
   100   49   50 am   BACKBONE|DICT|INTERRES
   101   49  174 1    
   102   50   51 2    
   103   50   52 1    
   104   52   53 1    
   105   52   54 1    
   106   52  175 1    
   107   53  176 1    
   108   53  177 1    
   109   53  178 1    
   110   54   55 am   BACKBONE|DICT|INTERRES
   111   54  179 1    
   112   55   56 2    
   113   55   57 1    
   114   57   58 1    
   115   57   59 1    
   116   57  180 1    
   117   58  181 1    
   118   58  182 1    
   119   58  183 1    
   120   59   60 am   BACKBONE|DICT|INTERRES
   121   59  184 1    
   122   60   61 2    
   123   60   62 1    
   124   62   63 1    
   125   62   64 1    
   126   62  185 1    
   127   63  186 1    
   128   63  187 1    
   129   63  188 1    
   130   64   65 am   BACKBONE|DICT|INTERRES
   131   64  189 1    
   132   65   66 2    
   133   67   68 2    
   134   67   69 am   BACKBONE|DICT|INTERRES
   135   69   70 1    
   136   69  190 1    
   137   70   71 1    
   138   70   72 1    
   139   70  191 1    
   140   71  192 1    
   141   71  193 1    
   142   71  194 1    
   143   72   73 2    
   144   72   74 am   BACKBONE|DICT|INTERRES
   145   74   75 1    
   146   74  195 1    
   147   75   76 1    
   148   75   77 1    
   149   75  196 1    
   150   76  197 1    
   151   76  198 1    
   152   76  199 1    
   153   77   78 2    
   154   77   79 am   BACKBONE|DICT|INTERRES
   155   79   80 1    
   156   79  200 1    
   157   80   81 1    
   158   80   82 1    
   159   80  201 1    
   160   81  202 1    
   161   81  203 1    
   162   81  204 1    
   163   82   83 2    
   164   82   84 am   BACKBONE|DICT|INTERRES
   165   84   85 1    
   166   84  205 1    
   167   85   86 1    
   168   85   87 1    
   169   85  206 1    
   170   86  207 1    
   171   86  208 1    
   172   86  209 1    
   173   87   88 2    
   174   87   89 am   BACKBONE|DICT|INTERRES
   175   89   90 1    
   176   89  210 1    
   177   90   91 1    
   178   90   92 1    
   179   90  211 1    
   180   91  212 1    
   181   91  213 1    
   182   91  214 1    
   183   92   93 2    
   184   92   94 am   BACKBONE|DICT|INTERRES
   185   94   95 1    
   186   94  215 1    
   187   95   96 1    
   188   95   97 1    
   189   95  216 1    
   190   96  217 1    
   191   96  218 1    
   192   96  219 1    
   193   97   98 2    
   194   97   99 am   BACKBONE|DICT|INTERRES
   195   99  100 1    
   196   99  220 1    
   197  100  101 1    
   198  100  102 1    
   199  100  221 1    
   200  101  222 1    
   201  101  223 1    
   202  101  224 1    
   203  102  103 2    
   204  102  104 am   BACKBONE|DICT|INTERRES
   205  104  105 1    
   206  104  225 1    
   207  105  106 1    
   208  105  107 1    
   209  105  226 1    
   210  106  227 1    
   211  106  228 1    
   212  106  229 1    
   213  107  108 2    
   214  107  109 am   BACKBONE|DICT|INTERRES
   215  109  110 1    
   216  109  230 1    
   217  110  111 1    
   218  110  112 1    
   219  110  231 1    
   220  111  232 1    
   221  111  233 1    
   222  111  234 1    
   223  112  113 2    
   224  112  114 am   BACKBONE|DICT|INTERRES
   225  114  115 1    
   226  114  235 1    
   227  115  116 1    
   228  115  117 1    
   229  115  236 1    
   230  116  237 1    
   231  116  238 1    
   232  116  239 1    
   233  117  118 2    
   234  117  119 am   BACKBONE|DICT|INTERRES
   235  119  120 1    
   236  119  240 1    
   237  120  121 1    
   238  120  124 1    
   239  120  241 1    
   240  121  122 am   BACKBONE|DICT|INTERRES
   241  121  123 2    
   242  122  242 1    
   243  122  243 1    
   244  124  125 1    
   245  124  244 1    
   246  124  245 1    
   247  125  126 1    
   248  126  246 1    
   249  126  247 1    
@<TRIPOS>SUBSTRUCTURE
     1 UNK         1 GROUP             0       ****    0 ROOT    
