@<TRIPOS>MOLECULE
3R540
247   249    1
SMALL
USER_CHARGES


@<TRIPOS>ATOM
      1 CA         -1.5607   -8.4346  -47.0160 C.3       0 UNK        -0.1800 
      2 C          -0.6821   -9.6703  -47.1481 C.2       0 UNK         0.5000 
      3 O           0.3830   -9.7313  -46.5366 O.2       0 UNK        -0.5000 
      4 N          -1.1265  -10.6553  -47.9394 N.am      1 UNK        -0.5000 
      5 CA         -0.4318  -11.9244  -48.1922 C.3       1 UNK         0.1400 
      6 C6         -1.1329  -12.7075  -49.3312 C.3       23 UNK        -0.0398 
      7 S7         -0.1924  -14.1342  -49.9789 S.3       23 UNK        -0.2404 
      8 C8         -0.9522  -15.5098  -49.0585 C.3       23 UNK        -0.0205 
      9 C9         -0.9700  -16.7913  -49.8758 C.ar      23 UNK        -0.0193 
     10 C10        -2.1079  -17.1368  -50.6090 C.ar      23 UNK        -0.1150 
     11 C11        -2.1595  -18.3392  -51.3198 C.ar      23 UNK        -0.0193 
     12 C12        -1.0498  -19.1890  -51.3156 C.ar      23 UNK        -0.1150 
     13 C13         0.0998  -18.8485  -50.5944 C.ar      23 UNK        -0.0193 
     14 C14         0.1320  -17.6497  -49.8740 C.ar      23 UNK        -0.1150 
     15 C15         1.3109  -19.7702  -50.5960 C.3       23 UNK        -0.0205 
     16 S16         1.0093  -21.3416  -49.7242 S.3       23 UNK        -0.2404 
     17 C17         0.7060  -20.7888  -48.0108 C.3       23 UNK        -0.0398 
     18 CA         -0.5698  -21.4130  -47.3973 C.3       11 UNK         0.1400 
     19 N          -0.5893  -21.2988  -45.9373 N.am      11 UNK        -0.5000 
     20 C          -1.4853  -21.8913  -45.1345 C.2       10 UNK         0.5000 
     21 O          -2.3607  -22.6589  -45.5341 O.2       10 UNK        -0.5000 
     22 CA         -1.4344  -21.5120  -43.6433 C.3       10 UNK         0.1400 
     23 CB         -0.3340  -22.2937  -42.9110 C.3       10 UNK        -0.1800 
     24 N          -1.2380  -20.0748  -43.4471 N.am      10 UNK        -0.5000 
     25 C          -2.1141  -19.1344  -43.8293 C.2       9 UNK         0.5000 
     26 O          -3.2184  -19.3896  -44.3099 O.2       9 UNK        -0.5000 
     27 CA         -1.6607  -17.6674  -43.7060 C.3       9 UNK         0.1400 
     28 CB         -1.8502  -17.1498  -42.2733 C.3       9 UNK        -0.1800 
     29 N          -0.2712  -17.4728  -44.1257 N.am      9 UNK        -0.5000 
     30 C           0.1693  -17.6572  -45.3786 C.2       8 UNK         0.5000 
     31 O          -0.5667  -17.9265  -46.3240 O.2       8 UNK        -0.5000 
     32 CA          1.6872  -17.5898  -45.6109 C.3       8 UNK         0.1400 
     33 CB          2.1403  -16.1524  -45.8881 C.3       8 UNK        -0.1800 
     34 N           2.4330  -18.1422  -44.4814 N.am      8 UNK        -0.5000 
     35 C           2.5068  -19.4519  -44.2062 C.2       7 UNK         0.5000 
     36 O           1.9830  -20.3225  -44.9005 O.2       7 UNK        -0.5000 
     37 CA          3.2512  -19.8514  -42.9188 C.3       7 UNK         0.1400 
     38 CB          4.7621  -19.9493  -43.1758 C.3       7 UNK        -0.1800 
     39 N           3.0049  -18.9198  -41.8172 N.am      7 UNK        -0.5000 
     40 C           1.8153  -18.7488  -41.2232 C.2       6 UNK         0.5000 
     41 O           0.8135  -19.4043  -41.5065 O.2       6 UNK        -0.5000 
     42 CA          1.7155  -17.6226  -40.1763 C.3       6 UNK         0.1400 
     43 CB          2.0544  -18.1559  -38.7768 C.3       6 UNK        -0.1800 
     44 N           2.5692  -16.4687  -40.4758 N.am      6 UNK        -0.5000 
     45 C           2.4672  -15.7050  -41.5713 C.2       5 UNK         0.5000 
     46 O           1.6319  -15.8933  -42.4578 O.2       5 UNK        -0.5000 
     47 CA          3.4799  -14.5544  -41.7009 C.3       5 UNK         0.1400 
     48 CB          3.9991  -14.4117  -43.1411 C.3       5 UNK        -0.1800 
     49 N           2.8867  -13.2883  -41.2887 N.am      5 UNK        -0.5000 
     50 C           2.6315  -12.9133  -40.0319 C.2       4 UNK         0.5000 
     51 O           2.9024  -13.6059  -39.0499 O.2       4 UNK        -0.5000 
     52 CA          1.9740  -11.5324  -39.8239 C.3       4 UNK         0.1400 
     53 CB          3.0280  -10.4093  -39.8617 C.3       4 UNK        -0.1800 
     54 N           0.8426  -11.2299  -40.7148 N.am      4 UNK        -0.5000 
     55 C           0.8281  -11.0641  -42.0450 C.2       3 UNK         0.5000 
     56 O           1.8196  -11.1680  -42.7708 O.2       3 UNK        -0.5000 
     57 CA         -0.5339  -10.7135  -42.6694 C.3       3 UNK         0.1400 
     58 CB         -0.5582   -9.2535  -43.1459 C.3       3 UNK        -0.1800 
     59 N          -0.8501  -11.5982  -43.7897 N.am      3 UNK        -0.5000 
     60 C          -1.1694  -12.8934  -43.6581 C.2       2 UNK         0.5000 
     61 O          -1.2444  -13.4560  -42.5655 O.2       2 UNK        -0.5000 
     62 CA         -1.5033  -13.6906  -44.9362 C.3       2 UNK         0.1400 
     63 CB         -2.9270  -14.2689  -44.8623 C.3       2 UNK        -0.1800 
     64 N          -1.4030  -12.8942  -46.1612 N.am      2 UNK        -0.5000 
     65 C          -0.2976  -12.7712  -46.9069 C.2       1 UNK         0.5000 
     66 O           0.7866  -13.2704  -46.6114 O.2       1 UNK        -0.5000 
     67 C          -1.8644  -20.8648  -48.0356 C.2       11 UNK         0.5000 
     68 O          -2.4221  -21.5251  -48.9076 O.2       11 UNK        -0.5000 
     69 N          -2.3595  -19.7160  -47.5541 N.am      12 UNK        -0.5000 
     70 CA         -3.6190  -19.1091  -47.9880 C.3       12 UNK         0.1400 
     71 CB         -3.7706  -17.7144  -47.3613 C.3       12 UNK        -0.1800 
     72 C          -4.8522  -19.9784  -47.6886 C.2       12 UNK         0.5000 
     73 O          -5.7572  -20.0483  -48.5207 O.2       12 UNK        -0.5000 
     74 N          -4.8598  -20.6326  -46.5196 N.am      13 UNK        -0.5000 
     75 CA         -5.9061  -21.5657  -46.1050 C.3       13 UNK         0.1400 
     76 CB         -5.7643  -21.8564  -44.6028 C.3       13 UNK        -0.1800 
     77 C          -5.8933  -22.8707  -46.9239 C.2       13 UNK         0.5000 
     78 O          -6.9559  -23.3446  -47.3280 O.2       13 UNK        -0.5000 
     79 N          -4.6961  -23.4268  -47.1492 N.am      14 UNK        -0.5000 
     80 CA         -4.4800  -24.6618  -47.9040 C.3       14 UNK         0.1400 
     81 CB         -3.0790  -25.1929  -47.5754 C.3       14 UNK        -0.1800 
     82 C          -4.6469  -24.4872  -49.4252 C.2       14 UNK         0.5000 
     83 O          -5.1522  -25.3947  -50.0883 O.2       14 UNK        -0.5000 
     84 N          -4.2046  -23.3357  -49.9477 N.am      15 UNK        -0.5000 
     85 CA         -4.1720  -22.9364  -51.3535 C.3       15 UNK         0.1400 
     86 CB         -5.5916  -22.5822  -51.8476 C.3       15 UNK        -0.1800 
     87 C          -3.4295  -23.9740  -52.2166 C.2       15 UNK         0.5000 
     88 O          -2.2309  -24.1801  -52.0118 O.2       15 UNK        -0.5000 
     89 N          -4.1549  -24.6349  -53.1294 N.am      16 UNK        -0.5000 
     90 CA         -3.6558  -25.6504  -54.0592 C.3       16 UNK         0.1400 
     91 CB         -4.8187  -26.1104  -54.9519 C.3       16 UNK        -0.1800 
     92 C          -2.9975  -26.8691  -53.3813 C.2       16 UNK         0.5000 
     93 O          -2.1623  -27.5260  -54.0034 O.2       16 UNK        -0.5000 
     94 N          -3.3727  -27.1492  -52.1244 N.am      17 UNK        -0.5000 
     95 CA         -2.7815  -28.2099  -51.3092 C.3       17 UNK         0.1400 
     96 CB         -3.7398  -28.5576  -50.1597 C.3       17 UNK        -0.1800 
     97 C          -1.3811  -27.8545  -50.7684 C.2       17 UNK         0.5000 
     98 O          -0.6436  -28.7682  -50.3961 O.2       17 UNK        -0.5000 
     99 N          -1.0357  -26.5593  -50.7294 N.am      18 UNK        -0.5000 
    100 CA         0.2697  -26.0643  -50.2955 C.3       18 UNK         0.1400 
    101 CB         0.0889  -24.9220  -49.2843 C.3       18 UNK        -0.1800 
    102 C          1.1137  -25.6075  -51.4928 C.2       18 UNK         0.5000 
    103 O          2.2455  -26.0714  -51.6398 O.2       18 UNK        -0.5000 
    104 N          0.5613  -24.7153  -52.3241 N.am      19 UNK        -0.5000 
    105 CA         1.2441  -24.1194  -53.4677 C.3       19 UNK         0.1400 
    106 CB         2.3254  -23.1165  -53.0018 C.3       19 UNK        -0.1800 
    107 C          0.2082  -23.5122  -54.4265 C.2       19 UNK         0.5000 
    108 O         -0.4391  -24.2598  -55.1601 O.2       19 UNK        -0.5000 
    109 N          0.1021  -22.1762  -54.4406 N.am      20 UNK        -0.5000 
    110 CA        -0.7285  -21.3996  -55.3584 C.3       20 UNK         0.1400 
    111 CB        -0.4181  -19.9050  -55.1818 C.3       20 UNK        -0.1800 
    112 C         -2.2305  -21.6666  -55.1693 C.2       20 UNK         0.5000 
    113 O         -2.7560  -21.4850  -54.0699 O.2       20 UNK        -0.5000 
    114 N         -2.9004  -22.0606  -56.2570 N.am      21 UNK        -0.5000 
    115 CA        -4.3399  -22.2941  -56.3190 C.3       21 UNK         0.1400 
    116 CB        -4.6306  -23.2524  -57.4881 C.3       21 UNK        -0.1800 
    117 C         -5.0987  -20.9582  -56.4424 C.2       21 UNK         0.5000 
    118 O         -5.5961  -20.6259  -57.5199 O.2       21 UNK        -0.5000 
    119 N         -5.1365  -20.1989  -55.3407 N.am      22 UNK        -0.5000 
    120 CA        -5.7751  -18.8734  -55.2465 C.3       22 UNK         0.1400 
    121 C         -7.3227  -18.8621  -55.4374 C.2       22 UNK         0.5000 
    122 N         -8.0198  -19.9856  -55.3166 N.am      22 UNK        -0.7600 
    123 O         -7.9005  -17.8109  -55.6999 O.2       22 UNK        -0.5000 
    124 C124       -5.4093  -18.1412  -53.9303 C.3       23 UNK        -0.0398 
    125 S125       -3.6137  -17.9436  -53.6529 S.3       23 UNK        -0.2404 
    126 C126       -3.4437  -18.7407  -52.0268 C.3       23 UNK        -0.0205 
    127 H127       -1.0118   -7.5488  -47.3356 H         1 UNK         0.0600 
    128 H128       -1.8594   -8.2947  -45.9774 H         1 UNK         0.0600 
    129 H129       -2.4638   -8.5116  -47.6219 H         1 UNK         0.0600 
    130 H130       -2.0081  -10.5338  -48.4177 H         1 UNK         0.3000 
    131 H131        0.5782  -11.6763  -48.5261 H         1 UNK         0.0600 
    132 H132       -2.1358  -13.0175  -49.0341 H         1 UNK         0.0800 
    133 H133       -1.2822  -12.0382  -50.1798 H         1 UNK         0.0800 
    134 H134       -0.4072  -15.6684  -48.1269 H         1 UNK         0.0800 
    135 H135       -1.9720  -15.2542  -48.7697 H         1 UNK         0.0800 
    136 H136       -2.9682  -16.4824  -50.6043 H         1 UNK         0.1150 
    137 H137       -1.0891  -20.1268  -51.8525 H         1 UNK         0.1150 
    138 H138        1.0115  -17.3836  -49.3047 H         1 UNK         0.1150 
    139 H139        1.5865  -19.9863  -51.6287 H         1 UNK         0.0800 
    140 H140        2.1754  -19.2772  -50.1487 H         1 UNK         0.0800 
    141 H141        1.5790  -21.0870  -47.4295 H         1 UNK         0.0800 
    142 H142        0.6691  -19.7013  -47.9577 H         1 UNK         0.0800 
    143 H143       -0.5429  -22.4838  -47.6099 H         1 UNK         0.0600 
    144 H144        0.1365  -20.7267  -45.5179 H         1 UNK         0.3000 
    145 H145       -2.3947  -21.7820  -43.1990 H         1 UNK         0.0600 
    146 H146       -0.3386  -22.0726  -41.8435 H         1 UNK         0.0600 
    147 H147       -0.4803  -23.3688  -43.0219 H         1 UNK         0.0600 
    148 H148        0.6573  -22.0558  -43.2962 H         1 UNK         0.0600 
    149 H149       -0.3794  -19.7879  -42.9861 H         1 UNK         0.3000 
    150 H150       -2.2911  -17.0744  -44.3700 H         1 UNK         0.0600 
    151 H151       -2.9020  -17.1798  -41.9868 H         1 UNK         0.0600 
    152 H152       -1.5149  -16.1174  -42.1775 H         1 UNK         0.0600 
    153 H153       -1.2978  -17.7481  -41.5497 H         1 UNK         0.0600 
    154 H154        0.3930  -17.1852  -43.4146 H         1 UNK         0.3000 
    155 H155        1.9202  -18.1860  -46.4955 H         1 UNK         0.0600 
    156 H156        3.2246  -16.0827  -45.9735 H         1 UNK         0.0600 
    157 H157        1.8160  -15.4677  -45.1047 H         1 UNK         0.0600 
    158 H158        1.7183  -15.7942  -46.8272 H         1 UNK         0.0600 
    159 H159        2.8278  -17.4799  -43.8302 H         1 UNK         0.3000 
    160 H160        2.8907  -20.8373  -42.6179 H         1 UNK         0.0600 
    161 H161        5.1878  -18.9856  -43.4582 H         1 UNK         0.0600 
    162 H162        4.9754  -20.6517  -43.9827 H         1 UNK         0.0600 
    163 H163        5.2903  -20.3036  -42.2904 H         1 UNK         0.0600 
    164 H164        3.7793  -18.3452  -41.5192 H         1 UNK         0.3000 
    165 H165        0.6812  -17.2734  -40.1665 H         1 UNK         0.0600 
    166 H166        3.0897  -18.4930  -38.7134 H         1 UNK         0.0600 
    167 H167        1.9027  -17.3903  -38.0156 H         1 UNK         0.0600 
    168 H168        1.4167  -19.0019  -38.5165 H         1 UNK         0.0600 
    169 H169        3.2515  -16.2186  -39.7737 H         1 UNK         0.3000 
    170 H170        4.3367  -14.7685  -41.0584 H         1 UNK         0.0600 
    171 H171        4.3834  -15.3599  -43.5191 H         1 UNK         0.0600 
    172 H172        3.2149  -14.0754  -43.8202 H         1 UNK         0.0600 
    173 H173        4.8120  -13.6874  -43.1932 H         1 UNK         0.0600 
    174 H174        2.6042  -12.6495  -42.0283 H         1 UNK         0.3000 
    175 H175        1.5530  -11.5438  -38.8172 H         1 UNK         0.0600 
    176 H176        2.5819   -9.4422  -39.6299 H         1 UNK         0.0600 
    177 H177        3.8137  -10.5890  -39.1267 H         1 UNK         0.0600 
    178 H178        3.5085  -10.3318  -40.8374 H         1 UNK         0.0600 
    179 H179       -0.0453  -11.1582  -40.2371 H         1 UNK         0.3000 
    180 H180       -1.3143  -10.8320  -41.9144 H         1 UNK         0.0600 
    181 H181       -1.5292   -8.9907  -43.5654 H         1 UNK         0.0600 
    182 H182       -0.3669   -8.5709  -42.3170 H         1 UNK         0.0600 
    183 H183        0.2008   -9.0643  -43.9057 H         1 UNK         0.0600 
    184 H184       -0.7352  -11.2179  -44.7179 H         1 UNK         0.3000 
    185 H185       -0.8021  -14.5269  -44.9825 H         1 UNK         0.0600 
    186 H186       -3.1276  -14.9270  -45.7082 H         1 UNK         0.0600 
    187 H187       -3.0725  -14.8550  -43.9546 H         1 UNK         0.0600 
    188 H188       -3.6812  -13.4811  -44.8622 H         1 UNK         0.0600 
    189 H189       -2.2424  -12.4155  -46.4545 H         1 UNK         0.3000 
    190 H190       -1.8044  -19.1826  -46.8898 H         1 UNK         0.3000 
    191 H191       -3.5669  -18.9929  -49.0689 H         1 UNK         0.0600 
    192 H192       -4.6410  -17.1983  -47.7675 H         1 UNK         0.0600 
    193 H193       -2.8996  -17.0935  -47.5626 H         1 UNK         0.0600 
    194 H194       -3.8960  -17.7663  -46.2804 H         1 UNK         0.0600 
    195 H195       -4.0988  -20.4721  -45.8683 H         1 UNK         0.3000 
    196 H196       -6.8724  -21.0824  -46.2637 H         1 UNK         0.0600 
    197 H197       -6.5527  -22.5271  -44.2591 H         1 UNK         0.0600 
    198 H198       -5.8365  -20.9403  -44.0163 H         1 UNK         0.0600 
    199 H199       -4.8085  -22.3262  -44.3695 H         1 UNK         0.0600 
    200 H200       -3.8731  -22.9957  -46.7374 H         1 UNK         0.3000 
    201 H201       -5.2106  -25.4038  -47.5752 H         1 UNK         0.0600 
    202 H202       -3.0019  -25.4759  -46.5256 H         1 UNK         0.0600 
    203 H203       -2.3235  -24.4321  -47.7689 H         1 UNK         0.0600 
    204 H204       -2.8289  -26.0706  -48.1713 H         1 UNK         0.0600 
    205 H205       -3.7130  -22.6896  -49.3322 H         1 UNK         0.3000 
    206 H206       -3.5691  -22.0294  -51.3970 H         1 UNK         0.0600 
    207 H207       -6.0164  -21.7778  -51.2465 H         1 UNK         0.0600 
    208 H208       -5.5736  -22.2322  -52.8804 H         1 UNK         0.0600 
    209 H209       -6.2742  -23.4305  -51.7878 H         1 UNK         0.0600 
    210 H210       -5.1423  -24.4332  -53.1789 H         1 UNK         0.3000 
    211 H211       -2.9035  -25.1740  -54.6897 H         1 UNK         0.0600 
    212 H212       -5.5897  -26.6211  -54.3735 H         1 UNK         0.0600 
    213 H213       -4.4707  -26.8036  -55.7189 H         1 UNK         0.0600 
    214 H214       -5.2885  -25.2711  -55.4629 H         1 UNK         0.0600 
    215 H215       -4.0614  -26.5575  -51.6740 H         1 UNK         0.3000 
    216 H216       -2.6719  -29.1010  -51.9309 H         1 UNK         0.0600 
    217 H217       -3.3482  -29.3800  -49.5597 H         1 UNK         0.0600 
    218 H218       -4.7137  -28.8679  -50.5387 H         1 UNK         0.0600 
    219 H219       -3.8958  -27.7116  -49.4918 H         1 UNK         0.0600 
    220 H220       -1.6710  -25.8677  -51.1136 H         1 UNK         0.3000 
    221 H221        0.8311  -26.8531  -49.7903 H         1 UNK         0.0600 
    222 H222       -0.6026  -24.1597  -49.6464 H         1 UNK         0.0600 
    223 H223       -0.2867  -25.3051  -48.3369 H         1 UNK         0.0600 
    224 H224        1.0391  -24.4305  -49.0715 H         1 UNK         0.0600 
    225 H225       -0.4031  -24.4195  -52.1783 H         1 UNK         0.3000 
    226 H226        1.7420  -24.9160  -54.0245 H         1 UNK         0.0600 
    227 H227        3.1187  -23.6165  -52.4466 H         1 UNK         0.0600 
    228 H228        2.7997  -22.6236  -53.8515 H         1 UNK         0.0600 
    229 H229        1.9111  -22.3453  -52.3543 H         1 UNK         0.0600 
    230 H230        0.6515  -21.6473  -53.7807 H         1 UNK         0.3000 
    231 H231       -0.4452  -21.6829  -56.3743 H         1 UNK         0.0600 
    232 H232       -1.0050  -19.3007  -55.8748 H         1 UNK         0.0600 
    233 H233        0.6334  -19.6921  -55.3748 H         1 UNK         0.0600 
    234 H234       -0.6517  -19.5597  -54.1747 H         1 UNK         0.0600 
    235 H235       -2.3990  -22.1618  -57.1274 H         1 UNK         0.3000 
    236 H236       -4.6654  -22.7816  -55.3980 H         1 UNK         0.0600 
    237 H237       -4.3254  -22.8291  -58.4460 H         1 UNK         0.0600 
    238 H238       -4.1046  -24.1989  -57.3620 H         1 UNK         0.0600 
    239 H239       -5.6958  -23.4778  -57.5519 H         1 UNK         0.0600 
    240 H240       -4.6075  -20.5044  -54.5327 H         1 UNK         0.3000 
    241 H241       -5.3721  -18.2790  -56.0687 H         1 UNK         0.0600 
    242 H242       -9.0193  -19.9646  -55.4458 H         1 UNK         0.3800 
    243 H243       -7.5609  -20.8559  -55.1036 H         1 UNK         0.3800 
    244 H244       -5.8418  -17.1389  -53.9235 H         1 UNK         0.0800 
    245 H245       -5.8593  -18.6642  -53.0848 H         1 UNK         0.0800 
    246 H246       -4.2893  -18.4688  -51.3934 H         1 UNK         0.0800 
    247 H247       -3.4906  -19.8221  -52.1495 H         1 UNK         0.0800 
@<TRIPOS>BOND
     1    1    2 1    
     2    1  127 1    
     3    1  128 1    
     4    1  129 1    
     5    2    3 2    
     6    2    4 am   BACKBONE|DICT|INTERRES
     7    4    5 1    
     8    4  130 1    
     9    5    6 1    
    10    5   65 1    
    11    5  131 1    
    12    6    7 1    
    13    6  132 1    
    14    6  133 1    
    15    7    8 1    
    16    8    9 1    
    17    8  134 1    
    18    8  135 1    
    19    9   10 ar   
    20    9   14 ar   
    21   10   11 ar   
    22   10  136 1    
    23   11   12 ar   
    24   11  126 1    
    25   12   13 ar   
    26   12  137 1    
    27   13   14 ar   
    28   13   15 1    
    29   14  138 1    
    30   15   16 1    
    31   15  139 1    
    32   15  140 1    
    33   16   17 1    
    34   17   18 1    
    35   17  141 1    
    36   17  142 1    
    37   18   19 1    
    38   18   67 1    
    39   18  143 1    
    40   19   20 am   BACKBONE|DICT|INTERRES
    41   19  144 1    
    42   20   21 2    
    43   20   22 1    
    44   22   23 1    
    45   22   24 1    
    46   22  145 1    
    47   23  146 1    
    48   23  147 1    
    49   23  148 1    
    50   24   25 am   BACKBONE|DICT|INTERRES
    51   24  149 1    
    52   25   26 2    
    53   25   27 1    
    54   27   28 1    
    55   27   29 1    
    56   27  150 1    
    57   28  151 1    
    58   28  152 1    
    59   28  153 1    
    60   29   30 am   BACKBONE|DICT|INTERRES
    61   29  154 1    
    62   30   31 2    
    63   30   32 1    
    64   32   33 1    
    65   32   34 1    
    66   32  155 1    
    67   33  156 1    
    68   33  157 1    
    69   33  158 1    
    70   34   35 am   BACKBONE|DICT|INTERRES
    71   34  159 1    
    72   35   36 2    
    73   35   37 1    
    74   37   38 1    
    75   37   39 1    
    76   37  160 1    
    77   38  161 1    
    78   38  162 1    
    79   38  163 1    
    80   39   40 am   BACKBONE|DICT|INTERRES
    81   39  164 1    
    82   40   41 2    
    83   40   42 1    
    84   42   43 1    
    85   42   44 1    
    86   42  165 1    
    87   43  166 1    
    88   43  167 1    
    89   43  168 1    
    90   44   45 am   BACKBONE|DICT|INTERRES
    91   44  169 1    
    92   45   46 2    
    93   45   47 1    
    94   47   48 1    
    95   47   49 1    
    96   47  170 1    
    97   48  171 1    
    98   48  172 1    
    99   48  173 1    
   100   49   50 am   BACKBONE|DICT|INTERRES
   101   49  174 1    
   102   50   51 2    
   103   50   52 1    
   104   52   53 1    
   105   52   54 1    
   106   52  175 1    
   107   53  176 1    
   108   53  177 1    
   109   53  178 1    
   110   54   55 am   BACKBONE|DICT|INTERRES
   111   54  179 1    
   112   55   56 2    
   113   55   57 1    
   114   57   58 1    
   115   57   59 1    
   116   57  180 1    
   117   58  181 1    
   118   58  182 1    
   119   58  183 1    
   120   59   60 am   BACKBONE|DICT|INTERRES
   121   59  184 1    
   122   60   61 2    
   123   60   62 1    
   124   62   63 1    
   125   62   64 1    
   126   62  185 1    
   127   63  186 1    
   128   63  187 1    
   129   63  188 1    
   130   64   65 am   BACKBONE|DICT|INTERRES
   131   64  189 1    
   132   65   66 2    
   133   67   68 2    
   134   67   69 am   BACKBONE|DICT|INTERRES
   135   69   70 1    
   136   69  190 1    
   137   70   71 1    
   138   70   72 1    
   139   70  191 1    
   140   71  192 1    
   141   71  193 1    
   142   71  194 1    
   143   72   73 2    
   144   72   74 am   BACKBONE|DICT|INTERRES
   145   74   75 1    
   146   74  195 1    
   147   75   76 1    
   148   75   77 1    
   149   75  196 1    
   150   76  197 1    
   151   76  198 1    
   152   76  199 1    
   153   77   78 2    
   154   77   79 am   BACKBONE|DICT|INTERRES
   155   79   80 1    
   156   79  200 1    
   157   80   81 1    
   158   80   82 1    
   159   80  201 1    
   160   81  202 1    
   161   81  203 1    
   162   81  204 1    
   163   82   83 2    
   164   82   84 am   BACKBONE|DICT|INTERRES
   165   84   85 1    
   166   84  205 1    
   167   85   86 1    
   168   85   87 1    
   169   85  206 1    
   170   86  207 1    
   171   86  208 1    
   172   86  209 1    
   173   87   88 2    
   174   87   89 am   BACKBONE|DICT|INTERRES
   175   89   90 1    
   176   89  210 1    
   177   90   91 1    
   178   90   92 1    
   179   90  211 1    
   180   91  212 1    
   181   91  213 1    
   182   91  214 1    
   183   92   93 2    
   184   92   94 am   BACKBONE|DICT|INTERRES
   185   94   95 1    
   186   94  215 1    
   187   95   96 1    
   188   95   97 1    
   189   95  216 1    
   190   96  217 1    
   191   96  218 1    
   192   96  219 1    
   193   97   98 2    
   194   97   99 am   BACKBONE|DICT|INTERRES
   195   99  100 1    
   196   99  220 1    
   197  100  101 1    
   198  100  102 1    
   199  100  221 1    
   200  101  222 1    
   201  101  223 1    
   202  101  224 1    
   203  102  103 2    
   204  102  104 am   BACKBONE|DICT|INTERRES
   205  104  105 1    
   206  104  225 1    
   207  105  106 1    
   208  105  107 1    
   209  105  226 1    
   210  106  227 1    
   211  106  228 1    
   212  106  229 1    
   213  107  108 2    
   214  107  109 am   BACKBONE|DICT|INTERRES
   215  109  110 1    
   216  109  230 1    
   217  110  111 1    
   218  110  112 1    
   219  110  231 1    
   220  111  232 1    
   221  111  233 1    
   222  111  234 1    
   223  112  113 2    
   224  112  114 am   BACKBONE|DICT|INTERRES
   225  114  115 1    
   226  114  235 1    
   227  115  116 1    
   228  115  117 1    
   229  115  236 1    
   230  116  237 1    
   231  116  238 1    
   232  116  239 1    
   233  117  118 2    
   234  117  119 am   BACKBONE|DICT|INTERRES
   235  119  120 1    
   236  119  240 1    
   237  120  121 1    
   238  120  124 1    
   239  120  241 1    
   240  121  122 am   BACKBONE|DICT|INTERRES
   241  121  123 2    
   242  122  242 1    
   243  122  243 1    
   244  124  125 1    
   245  124  244 1    
   246  124  245 1    
   247  125  126 1    
   248  126  246 1    
   249  126  247 1    
@<TRIPOS>SUBSTRUCTURE
     1 UNK         1 GROUP             0       ****    0 ROOT    
