@<TRIPOS>MOLECULE
3R540
247   249    1
SMALL
USER_CHARGES


@<TRIPOS>ATOM
      1 CA          2.5523  -13.8980  -52.2067 C.3       0 UNK        -0.1800 
      2 C           2.5925  -12.3836  -52.0046 C.2       0 UNK         0.5000 
      3 O           2.7120  -11.6471  -52.9820 O.2       0 UNK        -0.5000 
      4 N           2.4856  -11.8711  -50.7721 N.am      1 UNK        -0.5000 
      5 CA          2.4156  -12.6267  -49.5183 C.3       1 UNK         0.1400 
      6 C6          1.6965  -11.8319  -48.3990 C.3       23 UNK        -0.0398 
      7 S7         -0.0905  -11.6344  -48.7014 S.3       23 UNK        -0.2404 
      8 C8         -0.7834  -13.0073  -47.7200 C.3       23 UNK        -0.0205 
      9 C9         -0.7451  -14.3191  -48.4896 C.ar      23 UNK        -0.0193 
     10 C10        -1.7799  -14.6293  -49.3748 C.ar      23 UNK        -0.1150 
     11 C11        -1.7558  -15.8177  -50.1075 C.ar      23 UNK        -0.0193 
     12 C12        -0.6744  -16.6909  -49.9674 C.ar      23 UNK        -0.1150 
     13 C13         0.3633  -16.3992  -49.0768 C.ar      23 UNK        -0.0193 
     14 C14         0.3100  -15.2225  -48.3217 C.ar      23 UNK        -0.1150 
     15 C15         1.5559  -17.3384  -48.9590 C.3       23 UNK        -0.0205 
     16 S16         1.3743  -18.5205  -47.5885 S.3       23 UNK        -0.2404 
     17 C17         0.0137  -19.5685  -48.1938 C.3       23 UNK        -0.0398 
     18 CA          0.0689  -21.0272  -47.6736 C.3       11 UNK         0.1400 
     19 N           0.1408  -21.1328  -46.2110 N.am      11 UNK        -0.5000 
     20 C           0.3528  -22.2757  -45.5386 C.2       10 UNK         0.5000 
     21 O           0.5766  -23.3561  -46.0823 O.2       10 UNK        -0.5000 
     22 CA          0.2398  -22.2229  -44.0044 C.3       10 UNK         0.1400 
     23 CB          1.5991  -21.9234  -43.3576 C.3       10 UNK        -0.1800 
     24 N          -0.7581  -21.2498  -43.5605 N.am      10 UNK        -0.5000 
     25 C          -2.0793  -21.4266  -43.7140 C.2       9 UNK         0.5000 
     26 O          -2.5765  -22.4415  -44.2001 O.2       9 UNK        -0.5000 
     27 CA         -3.0011  -20.2635  -43.3124 C.3       9 UNK         0.1400 
     28 CB         -3.4142  -20.3832  -41.8398 C.3       9 UNK        -0.1800 
     29 N          -2.3997  -18.9537  -43.5641 N.am      9 UNK        -0.5000 
     30 C          -2.1288  -18.4791  -44.7885 C.2       8 UNK         0.5000 
     31 O          -2.3670  -19.1199  -45.8147 O.2       8 UNK        -0.5000 
     32 CA         -1.4504  -17.0973  -44.9101 C.3       8 UNK         0.1400 
     33 CB         -2.1823  -16.2017  -45.9271 C.3       8 UNK        -0.1800 
     34 N          -1.2385  -16.3914  -43.6394 N.am      8 UNK        -0.5000 
     35 C          -2.1553  -15.8661  -42.8135 C.2       7 UNK         0.5000 
     36 O          -3.3691  -15.8828  -43.0228 O.2       7 UNK        -0.5000 
     37 CA         -1.5915  -15.2575  -41.5123 C.3       7 UNK         0.1400 
     38 CB         -2.6827  -14.8034  -40.5197 C.3       7 UNK        -0.1800 
     39 N          -0.6268  -16.1591  -40.8702 N.am      7 UNK        -0.5000 
     40 C          -0.8625  -17.3917  -40.3939 C.2       6 UNK         0.5000 
     41 O          -1.9803  -17.9036  -40.3471 O.2       6 UNK        -0.5000 
     42 CA          0.3784  -18.1905  -39.9351 C.3       6 UNK         0.1400 
     43 CB          0.0864  -19.6885  -39.7019 C.3       6 UNK        -0.1800 
     44 N           1.5213  -18.0238  -40.8421 N.am      6 UNK        -0.5000 
     45 C           1.5592  -18.3276  -42.1490 C.2       5 UNK         0.5000 
     46 O           0.6219  -18.8430  -42.7611 O.2       5 UNK        -0.5000 
     47 CA          2.8560  -17.9426  -42.8940 C.3       5 UNK         0.1400 
     48 CB          2.7113  -18.0148  -44.4251 C.3       5 UNK        -0.1800 
     49 N           3.3880  -16.6290  -42.5033 N.am      5 UNK        -0.5000 
     50 C           2.7309  -15.4575  -42.5166 C.2       4 UNK         0.5000 
     51 O           1.5537  -15.3260  -42.8548 O.2       4 UNK        -0.5000 
     52 CA          3.5377  -14.2321  -42.0769 C.3       4 UNK         0.1400 
     53 CB          3.9470  -14.3325  -40.5935 C.3       4 UNK        -0.1800 
     54 N           4.7008  -14.0823  -42.9481 N.am      4 UNK        -0.5000 
     55 C           5.4379  -12.9707  -43.0657 C.2       3 UNK         0.5000 
     56 O           5.2811  -11.9661  -42.3703 O.2       3 UNK        -0.5000 
     57 CA          6.5209  -12.9639  -44.1654 C.3       3 UNK         0.1400 
     58 CB          7.8622  -13.4546  -43.5988 C.3       3 UNK        -0.1800 
     59 N           6.1852  -13.7546  -45.3563 N.am      3 UNK        -0.5000 
     60 C           5.1305  -13.5356  -46.1543 C.2       2 UNK         0.5000 
     61 O           4.2938  -12.6528  -45.9463 O.2       2 UNK        -0.5000 
     62 CA          4.9814  -14.4784  -47.3692 C.3       2 UNK         0.1400 
     63 CB          4.7533  -15.9293  -46.9133 C.3       2 UNK        -0.1800 
     64 N           3.8478  -14.0885  -48.2058 N.am      2 UNK        -0.5000 
     65 C           3.8201  -13.0389  -49.0350 C.2       1 UNK         0.5000 
     66 O           4.8168  -12.3916  -49.3661 O.2       1 UNK        -0.5000 
     67 C          -1.1422  -21.8125  -48.2083 C.2       11 UNK         0.5000 
     68 O          -0.9901  -22.6361  -49.1114 O.2       11 UNK        -0.5000 
     69 N          -2.3135  -21.5653  -47.6024 N.am      12 UNK        -0.5000 
     70 CA         -3.5663  -22.2532  -47.9055 C.3       12 UNK         0.1400 
     71 CB         -4.7146  -21.6010  -47.1227 C.3       12 UNK        -0.1800 
     72 C          -3.4952  -23.7652  -47.6309 C.2       12 UNK         0.5000 
     73 O          -3.9737  -24.5432  -48.4518 O.2       12 UNK        -0.5000 
     74 N          -2.8685  -24.1613  -46.5140 N.am      13 UNK        -0.5000 
     75 CA         -2.6373  -25.5608  -46.1532 C.3       13 UNK         0.1400 
     76 CB         -2.0899  -25.6489  -44.7212 C.3       13 UNK        -0.1800 
     77 C          -1.7032  -26.2879  -47.1377 C.2       13 UNK         0.5000 
     78 O          -2.0080  -27.4129  -47.5342 O.2       13 UNK        -0.5000 
     79 N          -0.6030  -25.6309  -47.5337 N.am      14 UNK        -0.5000 
     80 CA          0.3774  -26.1553  -48.4873 C.3       14 UNK         0.1400 
     81 CB          1.6162  -25.2472  -48.5076 C.3       14 UNK        -0.1800 
     82 C          -0.1940  -26.3228  -49.9064 C.2       14 UNK         0.5000 
     83 O           0.0808  -27.3318  -50.5571 O.2       14 UNK        -0.5000 
     84 N          -0.9923  -25.3439  -50.3516 N.am      15 UNK        -0.5000 
     85 CA         -1.6677  -25.3563  -51.6509 C.3       15 UNK         0.1400 
     86 CB         -2.0117  -23.9122  -52.0300 C.3       15 UNK        -0.1800 
     87 C          -2.9352  -26.2361  -51.6782 C.2       15 UNK         0.5000 
     88 O          -3.4432  -26.5209  -52.7620 O.2       15 UNK        -0.5000 
     89 N          -3.4247  -26.6283  -50.4935 N.am      16 UNK        -0.5000 
     90 CA         -4.6385  -27.4014  -50.2029 C.3       16 UNK         0.1400 
     91 CB         -4.6581  -28.7477  -50.9560 C.3       16 UNK        -0.1800 
     92 C          -5.9553  -26.6104  -50.3669 C.2       16 UNK         0.5000 
     93 O          -7.0287  -27.1895  -50.1909 O.2       16 UNK        -0.5000 
     94 N          -5.8622  -25.3055  -50.6442 N.am      17 UNK        -0.5000 
     95 CA         -6.9505  -24.3369  -50.6714 C.3       17 UNK         0.1400 
     96 CB         -7.8701  -24.5710  -51.8856 C.3       17 UNK        -0.1800 
     97 C          -6.3379  -22.9334  -50.7381 C.2       17 UNK         0.5000 
     98 O          -5.3007  -22.7499  -51.3797 O.2       17 UNK        -0.5000 
     99 N          -7.0171  -21.9424  -50.1476 N.am      18 UNK        -0.5000 
    100 CA        -6.6472  -20.5259  -50.2597 C.3       18 UNK         0.1400 
    101 CB        -7.4952  -19.6945  -49.2871 C.3       18 UNK        -0.1800 
    102 C         -6.7868  -19.9961  -51.7015 C.2       18 UNK         0.5000 
    103 O         -5.9733  -19.1818  -52.1363 O.2       18 UNK        -0.5000 
    104 N         -7.7784  -20.5257  -52.4322 N.am      19 UNK        -0.5000 
    105 CA        -8.0136  -20.2649  -53.8535 C.3       19 UNK         0.1400 
    106 CB        -9.4165  -20.7725  -54.2216 C.3       19 UNK        -0.1800 
    107 C         -6.9535  -20.8976  -54.7786 C.2       19 UNK         0.5000 
    108 O         -6.8098  -20.4538  -55.9177 O.2       19 UNK        -0.5000 
    109 N         -6.2365  -21.9190  -54.2880 N.am      20 UNK        -0.5000 
    110 CA        -5.0903  -22.5142  -54.9732 C.3       20 UNK         0.1400 
    111 CB        -4.9661  -23.9968  -54.5905 C.3       20 UNK        -0.1800 
    112 C         -3.7969  -21.7431  -54.6571 C.2       20 UNK         0.5000 
    113 O         -2.9507  -21.6029  -55.5405 O.2       20 UNK        -0.5000 
    114 N         -3.6719  -21.2439  -53.4168 N.am      21 UNK        -0.5000 
    115 CA        -2.5588  -20.4071  -52.9641 C.3       21 UNK         0.1400 
    116 CB        -2.6253  -20.2323  -51.4380 C.3       21 UNK        -0.1800 
    117 C         -2.5273  -19.0411  -53.6744 C.2       21 UNK         0.5000 
    118 O         -1.4644  -18.6231  -54.1349 O.2       21 UNK        -0.5000 
    119 N         -3.6954  -18.3965  -53.7729 N.am      22 UNK        -0.5000 
    120 CA        -3.9216  -17.1490  -54.5085 C.3       22 UNK         0.1400 
    121 C         -5.1352  -17.3498  -55.4481 C.2       22 UNK         0.5000 
    122 N         -4.9039  -17.6194  -56.7256 N.am      22 UNK        -0.7600 
    123 O         -6.2865  -17.2455  -55.0329 O.2       22 UNK        -0.5000 
    124 C124       -4.1302  -15.9400  -53.5605 C.3       23 UNK        -0.0398 
    125 S125       -2.6014  -15.4440  -52.7000 S.3       23 UNK        -0.2404 
    126 C126       -2.8968  -16.1492  -51.0529 C.3       23 UNK        -0.0205 
    127 H127        1.5842  -14.3016  -51.9081 H         1 UNK         0.0600 
    128 H128        3.3341  -14.3942  -51.6321 H         1 UNK         0.0600 
    129 H129        2.7054  -14.1476  -53.2568 H         1 UNK         0.0600 
    130 H130        2.5328  -10.8686  -50.6633 H         1 UNK         0.3000 
    131 H131        1.8502  -13.5395  -49.6987 H         1 UNK         0.0600 
    132 H132        2.1380  -10.8392  -48.2954 H         1 UNK         0.0800 
    133 H133        1.8250  -12.3078  -47.4250 H         1 UNK         0.0800 
    134 H134       -0.2613  -13.1008  -46.7667 H         1 UNK         0.0800 
    135 H135       -1.8177  -12.7667  -47.4693 H         1 UNK         0.0800 
    136 H136       -2.6033  -13.9400  -49.4997 H         1 UNK         0.1150 
    137 H137       -0.6397  -17.5947  -50.5579 H         1 UNK         0.1150 
    138 H138        1.0979  -14.9997  -47.6180 H         1 UNK         0.1150 
    139 H139        1.7091  -17.8812  -49.8931 H         1 UNK         0.0800 
    140 H140        2.4639  -16.7567  -48.8019 H         1 UNK         0.0800 
    141 H141       -0.9243  -19.0805  -47.9279 H         1 UNK         0.0800 
    142 H142        0.0478  -19.5783  -49.2842 H         1 UNK         0.0800 
    143 H143        0.9694  -21.4939  -48.0788 H         1 UNK         0.0600 
    144 H144       -0.0615  -20.2928  -45.6899 H         1 UNK         0.3000 
    145 H145       -0.0765  -23.2089  -43.6590 H         1 UNK         0.0600 
    146 H146        1.5161  -21.8576  -42.2725 H         1 UNK         0.0600 
    147 H147        2.3164  -22.7132  -43.5835 H         1 UNK         0.0600 
    148 H148        2.0227  -20.9889  -43.7198 H         1 UNK         0.0600 
    149 H149       -0.4091  -20.3682  -43.1904 H         1 UNK         0.3000 
    150 H150       -3.9057  -20.3337  -43.9201 H         1 UNK         0.0600 
    151 H151       -3.9551  -21.3136  -41.6631 H         1 UNK         0.0600 
    152 H152       -4.0693  -19.5635  -41.5438 H         1 UNK         0.0600 
    153 H153       -2.5496  -20.3791  -41.1770 H         1 UNK         0.0600 
    154 H154       -2.1516  -18.3974  -42.7571 H         1 UNK         0.3000 
    155 H155       -0.4519  -17.2901  -45.3041 H         1 UNK         0.0600 
    156 H156       -1.7341  -15.2103  -45.9705 H         1 UNK         0.0600 
    157 H157       -3.2371  -16.0814  -45.6798 H         1 UNK         0.0600 
    158 H158       -2.1308  -16.6291  -46.9294 H         1 UNK         0.0600 
    159 H159       -0.2683  -16.3143  -43.3528 H         1 UNK         0.3000 
    160 H160       -1.0310  -14.3699  -41.8097 H         1 UNK         0.0600 
    161 H161       -2.2425  -14.3743  -39.6197 H         1 UNK         0.0600 
    162 H162       -3.3189  -14.0385  -40.9663 H         1 UNK         0.0600 
    163 H163       -3.3298  -15.6270  -40.2170 H         1 UNK         0.0600 
    164 H164        0.3361  -15.8576  -40.9265 H         1 UNK         0.3000 
    165 H165        0.6753  -17.7611  -38.9773 H         1 UNK         0.0600 
    166 H166       -0.2277  -20.1907  -40.6166 H         1 UNK         0.0600 
    167 H167        0.9690  -20.2057  -39.3261 H         1 UNK         0.0600 
    168 H168       -0.7059  -19.8244  -38.9649 H         1 UNK         0.0600 
    169 H169        2.3419  -17.5959  -40.4372 H         1 UNK         0.3000 
    170 H170        3.5988  -18.6852  -42.5992 H         1 UNK         0.0600 
    171 H171        2.3326  -18.9834  -44.7488 H         1 UNK         0.0600 
    172 H172        2.0281  -17.2548  -44.8046 H         1 UNK         0.0600 
    173 H173        3.6757  -17.8770  -44.9116 H         1 UNK         0.0600 
    174 H174        4.3431  -16.6319  -42.1733 H         1 UNK         0.3000 
    175 H175        2.8953  -13.3577  -42.2031 H         1 UNK         0.0600 
    176 H176        4.6756  -15.1259  -40.4246 H         1 UNK         0.0600 
    177 H177        4.3861  -13.4003  -40.2386 H         1 UNK         0.0600 
    178 H178        3.0818  -14.5377  -39.9618 H         1 UNK         0.0600 
    179 H179        4.8735  -14.8422  -43.5909 H         1 UNK         0.3000 
    180 H180        6.6476  -11.9280  -44.4869 H         1 UNK         0.0600 
    181 H181        7.8113  -14.5000  -43.2921 H         1 UNK         0.0600 
    182 H182        8.1548  -12.8704  -42.7252 H         1 UNK         0.0600 
    183 H183        8.6613  -13.3576  -44.3340 H         1 UNK         0.0600 
    184 H184        6.8276  -14.4975  -45.5914 H         1 UNK         0.3000 
    185 H185        5.8993  -14.4278  -47.9585 H         1 UNK         0.0600 
    186 H186        5.5669  -16.2892  -46.2828 H         1 UNK         0.0600 
    187 H187        3.8274  -16.0237  -46.3455 H         1 UNK         0.0600 
    188 H188        4.6920  -16.6047  -47.7667 H         1 UNK         0.0600 
    189 H189        2.9765  -14.5380  -47.9757 H         1 UNK         0.3000 
    190 H190       -2.3472  -20.8549  -46.8777 H         1 UNK         0.3000 
    191 H191       -3.7659  -22.1225  -48.9707 H         1 UNK         0.0600 
    192 H192       -4.8047  -20.5419  -47.3652 H         1 UNK         0.0600 
    193 H193       -5.6679  -22.0731  -47.3634 H         1 UNK         0.0600 
    194 H194       -4.5673  -21.6856  -46.0457 H         1 UNK         0.0600 
    195 H195       -2.5610  -23.4612  -45.8453 H         1 UNK         0.3000 
    196 H196       -3.6025  -26.0711  -46.1754 H         1 UNK         0.0600 
    197 H197       -1.9388  -26.6874  -44.4242 H         1 UNK         0.0600 
    198 H198       -2.7818  -25.2042  -44.0058 H         1 UNK         0.0600 
    199 H199       -1.1321  -25.1379  -44.6251 H         1 UNK         0.0600 
    200 H200       -0.3988  -24.7200  -47.1330 H         1 UNK         0.3000 
    201 H201        0.6883  -27.1421  -48.1379 H         1 UNK         0.0600 
    202 H202        2.0915  -25.2088  -47.5274 H         1 UNK         0.0600 
    203 H203        1.3623  -24.2264  -48.7960 H         1 UNK         0.0600 
    204 H204        2.3606  -25.6146  -49.2151 H         1 UNK         0.0600 
    205 H205       -1.1247  -24.5164  -49.7764 H         1 UNK         0.3000 
    206 H206       -0.9782  -25.7480  -52.4016 H         1 UNK         0.0600 
    207 H207       -1.1283  -23.2739  -52.0135 H         1 UNK         0.0600 
    208 H208       -2.4272  -23.8646  -53.0356 H         1 UNK         0.0600 
    209 H209       -2.7451  -23.4886  -51.3441 H         1 UNK         0.0600 
    210 H210       -2.9480  -26.2823  -49.6706 H         1 UNK         0.3000 
    211 H211       -4.5730  -27.6323  -49.1387 H         1 UNK         0.0600 
    212 H212       -4.8268  -28.6149  -52.0247 H         1 UNK         0.0600 
    213 H213       -5.4553  -29.3909  -50.5819 H         1 UNK         0.0600 
    214 H214       -3.7198  -29.2869  -50.8258 H         1 UNK         0.0600 
    215 H215       -4.9400  -24.8943  -50.7180 H         1 UNK         0.3000 
    216 H216       -7.5247  -24.4292  -49.7475 H         1 UNK         0.0600 
    217 H217       -8.3757  -25.5343  -51.8258 H         1 UNK         0.0600 
    218 H218       -7.3130  -24.5470  -52.8221 H         1 UNK         0.0600 
    219 H219       -8.6467  -23.8076  -51.9449 H         1 UNK         0.0600 
    220 H220       -7.8639  -22.1525  -49.6385 H         1 UNK         0.3000 
    221 H221       -5.5996  -20.4242  -49.9692 H         1 UNK         0.0600 
    222 H222       -7.2209  -18.6398  -49.3354 H         1 UNK         0.0600 
    223 H223       -8.5595  -19.7682  -49.5140 H         1 UNK         0.0600 
    224 H224       -7.3474  -20.0203  -48.2573 H         1 UNK         0.0600 
    225 H225       -8.4026  -21.1809  -51.9862 H         1 UNK         0.3000 
    226 H226       -7.9860  -19.1849  -54.0117 H         1 UNK         0.0600 
    227 H227       -9.6437  -20.5671  -55.2686 H         1 UNK         0.0600 
    228 H228       -9.5075  -21.8490  -54.0710 H         1 UNK         0.0600 
    229 H229      -10.1838  -20.2820  -53.6225 H         1 UNK         0.0600 
    230 H230       -6.3962  -22.2153  -53.3364 H         1 UNK         0.3000 
    231 H231       -5.2469  -22.4682  -56.0531 H         1 UNK         0.0600 
    232 H232       -4.1091  -24.4569  -55.0839 H         1 UNK         0.0600 
    233 H233       -5.8513  -24.5561  -54.8928 H         1 UNK         0.0600 
    234 H234       -4.8351  -24.1353  -53.5182 H         1 UNK         0.0600 
    235 H235       -4.3785  -21.4715  -52.7280 H         1 UNK         0.3000 
    236 H236       -1.6306  -20.9305  -53.2028 H         1 UNK         0.0600 
    237 H237       -2.6152  -21.1939  -50.9284 H         1 UNK         0.0600 
    238 H238       -1.7679  -19.6662  -51.0751 H         1 UNK         0.0600 
    239 H239       -3.5241  -19.7014  -51.1267 H         1 UNK         0.0600 
    240 H240       -4.5242  -18.8038  -53.3466 H         1 UNK         0.3000 
    241 H241       -3.0586  -16.9286  -55.1403 H         1 UNK         0.0600 
    242 H242       -5.6887  -17.7653  -57.3413 H         1 UNK         0.3800 
    243 H243       -3.9668  -17.7189  -57.0841 H         1 UNK         0.3800 
    244 H244       -4.9191  -16.1502  -52.8359 H         1 UNK         0.0800 
    245 H245       -4.4680  -15.0711  -54.1279 H         1 UNK         0.0800 
    246 H246       -3.8345  -15.7619  -50.6514 H         1 UNK         0.0800 
    247 H247       -3.0184  -17.2296  -51.1333 H         1 UNK         0.0800 
@<TRIPOS>BOND
     1    1    2 1    
     2    1  127 1    
     3    1  128 1    
     4    1  129 1    
     5    2    3 2    
     6    2    4 am   BACKBONE|DICT|INTERRES
     7    4    5 1    
     8    4  130 1    
     9    5    6 1    
    10    5   65 1    
    11    5  131 1    
    12    6    7 1    
    13    6  132 1    
    14    6  133 1    
    15    7    8 1    
    16    8    9 1    
    17    8  134 1    
    18    8  135 1    
    19    9   10 ar   
    20    9   14 ar   
    21   10   11 ar   
    22   10  136 1    
    23   11   12 ar   
    24   11  126 1    
    25   12   13 ar   
    26   12  137 1    
    27   13   14 ar   
    28   13   15 1    
    29   14  138 1    
    30   15   16 1    
    31   15  139 1    
    32   15  140 1    
    33   16   17 1    
    34   17   18 1    
    35   17  141 1    
    36   17  142 1    
    37   18   19 1    
    38   18   67 1    
    39   18  143 1    
    40   19   20 am   BACKBONE|DICT|INTERRES
    41   19  144 1    
    42   20   21 2    
    43   20   22 1    
    44   22   23 1    
    45   22   24 1    
    46   22  145 1    
    47   23  146 1    
    48   23  147 1    
    49   23  148 1    
    50   24   25 am   BACKBONE|DICT|INTERRES
    51   24  149 1    
    52   25   26 2    
    53   25   27 1    
    54   27   28 1    
    55   27   29 1    
    56   27  150 1    
    57   28  151 1    
    58   28  152 1    
    59   28  153 1    
    60   29   30 am   BACKBONE|DICT|INTERRES
    61   29  154 1    
    62   30   31 2    
    63   30   32 1    
    64   32   33 1    
    65   32   34 1    
    66   32  155 1    
    67   33  156 1    
    68   33  157 1    
    69   33  158 1    
    70   34   35 am   BACKBONE|DICT|INTERRES
    71   34  159 1    
    72   35   36 2    
    73   35   37 1    
    74   37   38 1    
    75   37   39 1    
    76   37  160 1    
    77   38  161 1    
    78   38  162 1    
    79   38  163 1    
    80   39   40 am   BACKBONE|DICT|INTERRES
    81   39  164 1    
    82   40   41 2    
    83   40   42 1    
    84   42   43 1    
    85   42   44 1    
    86   42  165 1    
    87   43  166 1    
    88   43  167 1    
    89   43  168 1    
    90   44   45 am   BACKBONE|DICT|INTERRES
    91   44  169 1    
    92   45   46 2    
    93   45   47 1    
    94   47   48 1    
    95   47   49 1    
    96   47  170 1    
    97   48  171 1    
    98   48  172 1    
    99   48  173 1    
   100   49   50 am   BACKBONE|DICT|INTERRES
   101   49  174 1    
   102   50   51 2    
   103   50   52 1    
   104   52   53 1    
   105   52   54 1    
   106   52  175 1    
   107   53  176 1    
   108   53  177 1    
   109   53  178 1    
   110   54   55 am   BACKBONE|DICT|INTERRES
   111   54  179 1    
   112   55   56 2    
   113   55   57 1    
   114   57   58 1    
   115   57   59 1    
   116   57  180 1    
   117   58  181 1    
   118   58  182 1    
   119   58  183 1    
   120   59   60 am   BACKBONE|DICT|INTERRES
   121   59  184 1    
   122   60   61 2    
   123   60   62 1    
   124   62   63 1    
   125   62   64 1    
   126   62  185 1    
   127   63  186 1    
   128   63  187 1    
   129   63  188 1    
   130   64   65 am   BACKBONE|DICT|INTERRES
   131   64  189 1    
   132   65   66 2    
   133   67   68 2    
   134   67   69 am   BACKBONE|DICT|INTERRES
   135   69   70 1    
   136   69  190 1    
   137   70   71 1    
   138   70   72 1    
   139   70  191 1    
   140   71  192 1    
   141   71  193 1    
   142   71  194 1    
   143   72   73 2    
   144   72   74 am   BACKBONE|DICT|INTERRES
   145   74   75 1    
   146   74  195 1    
   147   75   76 1    
   148   75   77 1    
   149   75  196 1    
   150   76  197 1    
   151   76  198 1    
   152   76  199 1    
   153   77   78 2    
   154   77   79 am   BACKBONE|DICT|INTERRES
   155   79   80 1    
   156   79  200 1    
   157   80   81 1    
   158   80   82 1    
   159   80  201 1    
   160   81  202 1    
   161   81  203 1    
   162   81  204 1    
   163   82   83 2    
   164   82   84 am   BACKBONE|DICT|INTERRES
   165   84   85 1    
   166   84  205 1    
   167   85   86 1    
   168   85   87 1    
   169   85  206 1    
   170   86  207 1    
   171   86  208 1    
   172   86  209 1    
   173   87   88 2    
   174   87   89 am   BACKBONE|DICT|INTERRES
   175   89   90 1    
   176   89  210 1    
   177   90   91 1    
   178   90   92 1    
   179   90  211 1    
   180   91  212 1    
   181   91  213 1    
   182   91  214 1    
   183   92   93 2    
   184   92   94 am   BACKBONE|DICT|INTERRES
   185   94   95 1    
   186   94  215 1    
   187   95   96 1    
   188   95   97 1    
   189   95  216 1    
   190   96  217 1    
   191   96  218 1    
   192   96  219 1    
   193   97   98 2    
   194   97   99 am   BACKBONE|DICT|INTERRES
   195   99  100 1    
   196   99  220 1    
   197  100  101 1    
   198  100  102 1    
   199  100  221 1    
   200  101  222 1    
   201  101  223 1    
   202  101  224 1    
   203  102  103 2    
   204  102  104 am   BACKBONE|DICT|INTERRES
   205  104  105 1    
   206  104  225 1    
   207  105  106 1    
   208  105  107 1    
   209  105  226 1    
   210  106  227 1    
   211  106  228 1    
   212  106  229 1    
   213  107  108 2    
   214  107  109 am   BACKBONE|DICT|INTERRES
   215  109  110 1    
   216  109  230 1    
   217  110  111 1    
   218  110  112 1    
   219  110  231 1    
   220  111  232 1    
   221  111  233 1    
   222  111  234 1    
   223  112  113 2    
   224  112  114 am   BACKBONE|DICT|INTERRES
   225  114  115 1    
   226  114  235 1    
   227  115  116 1    
   228  115  117 1    
   229  115  236 1    
   230  116  237 1    
   231  116  238 1    
   232  116  239 1    
   233  117  118 2    
   234  117  119 am   BACKBONE|DICT|INTERRES
   235  119  120 1    
   236  119  240 1    
   237  120  121 1    
   238  120  124 1    
   239  120  241 1    
   240  121  122 am   BACKBONE|DICT|INTERRES
   241  121  123 2    
   242  122  242 1    
   243  122  243 1    
   244  124  125 1    
   245  124  244 1    
   246  124  245 1    
   247  125  126 1    
   248  126  246 1    
   249  126  247 1    
@<TRIPOS>SUBSTRUCTURE
     1 UNK         1 GROUP             0       ****    0 ROOT    
