@<TRIPOS>MOLECULE
3R540
247   249    1
SMALL
USER_CHARGES


@<TRIPOS>ATOM
      1 CA          6.3626  -13.2596  -46.1262 C.3       0 UNK        -0.1800 
      2 C           4.8425  -13.2893  -46.1570 C.2       0 UNK         0.5000 
      3 O           4.2015  -12.4240  -45.5608 O.2       0 UNK        -0.5000 
      4 N           4.2613  -14.2649  -46.8678 N.am      1 UNK        -0.5000 
      5 CA          2.8162  -14.5200  -46.9885 C.3       1 UNK         0.1400 
      6 C6          2.5265  -15.8480  -47.7293 C.3       23 UNK        -0.0398 
      7 S7          3.2927  -15.9630  -49.3847 S.3       23 UNK        -0.2404 
      8 C8          1.8374  -15.8647  -50.4802 C.3       23 UNK        -0.0205 
      9 C9          0.9317  -17.0854  -50.3684 C.ar      23 UNK        -0.0193 
     10 C10        -0.4176  -16.9373  -50.0311 C.ar      23 UNK        -0.1150 
     11 C11        -1.2570  -18.0536  -49.9457 C.ar      23 UNK        -0.0193 
     12 C12        -0.7280  -19.3277  -50.1652 C.ar      23 UNK        -0.1150 
     13 C13         0.6204  -19.4909  -50.4934 C.ar      23 UNK        -0.0193 
     14 C14         1.4386  -18.3647  -50.6154 C.ar      23 UNK        -0.1150 
     15 C15         1.1968  -20.8868  -50.6860 C.3       23 UNK        -0.0205 
     16 S16         2.5034  -21.2839  -49.4745 S.3       23 UNK        -0.2404 
     17 C17         1.6903  -20.9374  -47.8747 C.3       23 UNK        -0.0398 
     18 CA          1.1517  -22.1961  -47.1594 C.3       11 UNK         0.1400 
     19 N           0.8760  -21.9274  -45.7476 N.am      11 UNK        -0.5000 
     20 C           0.5691  -22.8548  -44.8316 C.2       10 UNK         0.5000 
     21 O           0.5348  -24.0620  -45.0656 O.2       10 UNK        -0.5000 
     22 CA          0.1864  -22.3434  -43.4314 C.3       10 UNK         0.1400 
     23 CB          1.4391  -22.0043  -42.6106 C.3       10 UNK        -0.1800 
     24 N          -0.7043  -21.1824  -43.4839 N.am      10 UNK        -0.5000 
     25 C          -1.9412  -21.2052  -44.0021 C.2       9 UNK         0.5000 
     26 O          -2.4753  -22.2220  -44.4452 O.2       9 UNK        -0.5000 
     27 CA         -2.6942  -19.8649  -44.0762 C.3       9 UNK         0.1400 
     28 CB         -3.3111  -19.5099  -42.7153 C.3       9 UNK        -0.1800 
     29 N          -1.8490  -18.7626  -44.5356 N.am      9 UNK        -0.5000 
     30 C          -1.2820  -18.6892  -45.7483 C.2       8 UNK         0.5000 
     31 O          -1.4366  -19.5349  -46.6281 O.2       8 UNK        -0.5000 
     32 CA         -0.3314  -17.5040  -45.9976 C.3       8 UNK         0.1400 
     33 CB         -1.1070  -16.2005  -46.2428 C.3       8 UNK        -0.1800 
     34 N           0.6037  -17.3014  -44.8915 N.am      8 UNK        -0.5000 
     35 C           1.5120  -18.1987  -44.4845 C.2       7 UNK         0.5000 
     36 O           1.7062  -19.2785  -45.0392 O.2       7 UNK        -0.5000 
     37 CA          2.3004  -17.8501  -43.2127 C.3       7 UNK         0.1400 
     38 CB          3.5009  -16.9519  -43.5463 C.3       7 UNK        -0.1800 
     39 N           1.4486  -17.2042  -42.2127 N.am      7 UNK        -0.5000 
     40 C           0.4768  -17.8349  -41.5360 C.2       6 UNK         0.5000 
     41 O           0.2294  -19.0347  -41.6562 O.2       6 UNK        -0.5000 
     42 CA         -0.3928  -16.9715  -40.6035 C.3       6 UNK         0.1400 
     43 CB          0.3042  -16.7625  -39.2511 C.3       6 UNK        -0.1800 
     44 N          -0.7213  -15.6703  -41.1877 N.am      6 UNK        -0.5000 
     45 C          -1.4904  -15.4987  -42.2726 C.2       5 UNK         0.5000 
     46 O          -2.0512  -16.4218  -42.8609 O.2       5 UNK        -0.5000 
     47 CA         -1.6143  -14.0636  -42.8218 C.3       5 UNK         0.1400 
     48 CB         -2.8237  -13.3511  -42.1995 C.3       5 UNK        -0.1800 
     49 N          -0.4122  -13.2508  -42.6129 N.am      5 UNK        -0.5000 
     50 C           0.7980  -13.5388  -43.1075 C.2       4 UNK         0.5000 
     51 O           1.0297  -14.5232  -43.8124 O.2       4 UNK        -0.5000 
     52 CA          1.9371  -12.5812  -42.7254 C.3       4 UNK         0.1400 
     53 CB          3.2381  -13.3408  -42.4169 C.3       4 UNK        -0.1800 
     54 N           2.1852  -11.6236  -43.7973 N.am      4 UNK        -0.5000 
     55 C           1.4834  -10.5004  -43.9954 C.2       3 UNK         0.5000 
     56 O           0.5265  -10.1658  -43.2954 O.2       3 UNK        -0.5000 
     57 CA          1.9236   -9.5918  -45.1547 C.3       3 UNK         0.1400 
     58 CB          3.1609   -8.7709  -44.7569 C.3       3 UNK        -0.1800 
     59 N           2.2288  -10.3646  -46.3583 N.am      3 UNK        -0.5000 
     60 C           1.6315  -10.2028  -47.5479 C.2       2 UNK         0.5000 
     61 O           0.7638   -9.3568  -47.7689 O.2       2 UNK        -0.5000 
     62 CA          2.0714  -11.1366  -48.6967 C.3       2 UNK         0.1400 
     63 CB          3.0824  -10.4266  -49.6099 C.3       2 UNK        -0.1800 
     64 N           2.6593  -12.3923  -48.2312 N.am      2 UNK        -0.5000 
     65 C           1.9909  -13.3532  -47.5794 C.2       1 UNK         0.5000 
     66 O           0.7718  -13.3305  -47.4146 O.2       1 UNK        -0.5000 
     67 C          -0.0780  -22.7931  -47.8749 C.2       11 UNK         0.5000 
     68 O           0.0654  -23.7883  -48.5844 O.2       11 UNK        -0.5000 
     69 N          -1.2674  -22.2176  -47.6402 N.am      12 UNK        -0.5000 
     70 CA         -2.5440  -22.7178  -48.1544 C.3       12 UNK         0.1400 
     71 CB         -3.6766  -21.7460  -47.7985 C.3       12 UNK        -0.1800 
     72 C          -2.8678  -24.1417  -47.6747 C.2       12 UNK         0.5000 
     73 O          -3.2877  -24.9677  -48.4849 O.2       12 UNK        -0.5000 
     74 N          -2.6232  -24.4132  -46.3852 N.am      13 UNK        -0.5000 
     75 CA         -2.7644  -25.7334  -45.7734 C.3       13 UNK         0.1400 
     76 CB         -2.6355  -25.6129  -44.2476 C.3       13 UNK        -0.1800 
     77 C          -1.7617  -26.7593  -46.3333 C.2       13 UNK         0.5000 
     78 O          -2.1601  -27.8838  -46.6358 O.2       13 UNK        -0.5000 
     79 N          -0.4943  -26.3515  -46.4941 N.am      14 UNK        -0.5000 
     80 CA          0.5828  -27.1701  -47.0584 C.3       14 UNK         0.1400 
     81 CB          1.9284  -26.4531  -46.8705 C.3       14 UNK        -0.1800 
     82 C           0.3574  -27.5236  -48.5403 C.2       14 UNK         0.5000 
     83 O           0.5986  -28.6637  -48.9385 O.2       14 UNK        -0.5000 
     84 N          -0.1329  -26.5510  -49.3200 N.am      15 UNK        -0.5000 
     85 CA         -0.5250  -26.7155  -50.7217 C.3       15 UNK         0.1400 
     86 CB         -0.5943  -25.3271  -51.3732 C.3       15 UNK        -0.1800 
     87 C          -1.8699  -27.4512  -50.8982 C.2       15 UNK         0.5000 
     88 O          -2.1995  -27.8390  -52.0192 O.2       15 UNK        -0.5000 
     89 N          -2.6272  -27.5992  -49.8018 N.am      16 UNK        -0.5000 
     90 CA         -3.9527  -28.2140  -49.6813 C.3       16 UNK         0.1400 
     91 CB         -3.9029  -29.7092  -50.0586 C.3       16 UNK        -0.1800 
     92 C          -5.0765  -27.4493  -50.4153 C.2       16 UNK         0.5000 
     93 O          -6.1449  -28.0220  -50.6354 O.2       16 UNK        -0.5000 
     94 N          -4.8319  -26.1731  -50.7438 N.am      17 UNK        -0.5000 
     95 CA         -5.7502  -25.2213  -51.3711 C.3       17 UNK         0.1400 
     96 CB         -6.3955  -25.7699  -52.6644 C.3       17 UNK        -0.1800 
     97 C          -5.0113  -23.9187  -51.7016 C.2       17 UNK         0.5000 
     98 O          -5.5138  -22.8422  -51.3855 O.2       17 UNK        -0.5000 
     99 N          -3.8685  -24.0424  -52.3949 N.am      18 UNK        -0.5000 
    100 CA        -3.0413  -22.9891  -53.0150 C.3       18 UNK         0.1400 
    101 CB        -2.4877  -21.9909  -51.9797 C.3       18 UNK        -0.1800 
    102 C         -3.6883  -22.2402  -54.2013 C.2       18 UNK         0.5000 
    103 O         -2.9515  -21.7247  -55.0433 O.2       18 UNK        -0.5000 
    104 N         -5.0266  -22.2091  -54.2682 N.am      19 UNK        -0.5000 
    105 CA        -5.8521  -21.5162  -55.2606 C.3       19 UNK         0.1400 
    106 CB        -5.6783  -22.1413  -56.6636 C.3       19 UNK        -0.1800 
    107 C         -5.6320  -19.9899  -55.2002 C.2       19 UNK         0.5000 
    108 O         -5.6717  -19.4309  -54.1006 O.2       19 UNK        -0.5000 
    109 N         -5.4270  -19.3395  -56.3553 N.am      20 UNK        -0.5000 
    110 CA        -5.2465  -17.8943  -56.5283 C.3       20 UNK         0.1400 
    111 CB        -3.8863  -17.4423  -55.9484 C.3       20 UNK        -0.1800 
    112 C         -6.4557  -17.1161  -55.9703 C.2       20 UNK         0.5000 
    113 O         -7.5020  -17.0878  -56.6207 O.2       20 UNK        -0.5000 
    114 N         -6.3053  -16.5426  -54.7718 N.am      21 UNK        -0.5000 
    115 CA        -7.3657  -15.8843  -54.0142 C.3       21 UNK         0.1400 
    116 CB        -7.3235  -14.3700  -54.2951 C.3       21 UNK        -0.1800 
    117 C         -7.2708  -16.2103  -52.5098 C.2       21 UNK         0.5000 
    118 O         -7.7993  -15.4458  -51.6999 O.2       21 UNK        -0.5000 
    119 N         -6.6013  -17.3134  -52.1412 N.am      22 UNK        -0.5000 
    120 CA        -6.3660  -17.6877  -50.7334 C.3       22 UNK         0.1400 
    121 C         -6.1620  -19.2048  -50.4578 C.2       22 UNK         0.5000 
    122 N         -6.0168  -20.0625  -51.4570 N.am      22 UNK        -0.7600 
    123 O         -6.1607  -19.6161  -49.3011 O.2       22 UNK        -0.5000 
    124 C124       -5.2722  -16.8140  -50.0599 C.3       23 UNK        -0.0398 
    125 S125       -3.6309  -16.9377  -50.8554 S.3       23 UNK        -0.2404 
    126 C126       -2.7285  -17.8904  -49.5953 C.3       23 UNK        -0.0205 
    127 H127        6.7163  -13.3503  -45.0992 H         1 UNK         0.0600 
    128 H128        6.7270  -12.3158  -46.5315 H         1 UNK         0.0600 
    129 H129        6.7963  -14.0722  -46.7095 H         1 UNK         0.0600 
    130 H130        4.8475  -14.9195  -47.3669 H         1 UNK         0.3000 
    131 H131        2.4490  -14.6415  -45.9691 H         1 UNK         0.0600 
    132 H132        2.8997  -16.6829  -47.1346 H         1 UNK         0.0800 
    133 H133        1.4522  -16.0096  -47.8118 H         1 UNK         0.0800 
    134 H134        2.1808  -15.7792  -51.5119 H         1 UNK         0.0800 
    135 H135        1.2878  -14.9474  -50.2627 H         1 UNK         0.0800 
    136 H136       -0.8232  -15.9523  -49.8468 H         1 UNK         0.1150 
    137 H137       -1.3653  -20.1944  -50.0654 H         1 UNK         0.1150 
    138 H138        2.4816  -18.4875  -50.8718 H         1 UNK         0.1150 
    139 H139        0.4146  -21.6438  -50.6205 H         1 UNK         0.0800 
    140 H140        1.6118  -20.9642  -51.6917 H         1 UNK         0.0800 
    141 H141        0.9119  -20.1812  -47.9736 H         1 UNK         0.0800 
    142 H142        2.4578  -20.4750  -47.2534 H         1 UNK         0.0800 
    143 H143        1.9382  -22.9533  -47.1820 H         1 UNK         0.0600 
    144 H144        0.9299  -20.9545  -45.4570 H         1 UNK         0.3000 
    145 H145       -0.3457  -23.1477  -42.9193 H         1 UNK         0.0600 
    146 H146        1.1766  -21.7135  -41.5934 H         1 UNK         0.0600 
    147 H147        2.1049  -22.8654  -42.5413 H         1 UNK         0.0600 
    148 H148        2.0051  -21.1866  -43.0567 H         1 UNK         0.0600 
    149 H149       -0.3507  -20.3169  -43.0885 H         1 UNK         0.3000 
    150 H150       -3.5065  -19.9813  -44.7964 H         1 UNK         0.0600 
    151 H151       -3.9572  -20.3125  -42.3574 H         1 UNK         0.0600 
    152 H152       -3.9194  -18.6078  -42.7827 H         1 UNK         0.0600 
    153 H153       -2.5457  -19.3401  -41.9576 H         1 UNK         0.0600 
    154 H154       -1.7125  -17.9946  -43.8837 H         1 UNK         0.3000 
    155 H155        0.2543  -17.7350  -46.8891 H         1 UNK         0.0600 
    156 H156       -1.5901  -16.2084  -47.2171 H         1 UNK         0.0600 
    157 H157       -0.4463  -15.3350  -46.2227 H         1 UNK         0.0600 
    158 H158       -1.8828  -16.0382  -45.4953 H         1 UNK         0.0600 
    159 H159        0.5421  -16.4196  -44.3933 H         1 UNK         0.3000 
    160 H160        2.6821  -18.7796  -42.7853 H         1 UNK         0.0600 
    161 H161        3.1947  -16.0362  -44.0501 H         1 UNK         0.0600 
    162 H162        4.1961  -17.4674  -44.2100 H         1 UNK         0.0600 
    163 H163        4.0528  -16.6753  -42.6479 H         1 UNK         0.0600 
    164 H164        1.5478  -16.2054  -42.1087 H         1 UNK         0.3000 
    165 H165       -1.3268  -17.5095  -40.4271 H         1 UNK         0.0600 
    166 H166       -0.3370  -16.2185  -38.5573 H         1 UNK         0.0600 
    167 H167        0.5465  -17.7190  -38.7858 H         1 UNK         0.0600 
    168 H168        1.2350  -16.2039  -39.3573 H         1 UNK         0.0600 
    169 H169       -0.3054  -14.8568  -40.7594 H         1 UNK         0.3000 
    170 H170       -1.7787  -14.1374  -43.8986 H         1 UNK         0.0600 
    171 H171       -3.7389  -13.9223  -42.3611 H         1 UNK         0.0600 
    172 H172       -2.7042  -13.2194  -41.1233 H         1 UNK         0.0600 
    173 H173       -2.9736  -12.3671  -42.6443 H         1 UNK         0.0600 
    174 H174       -0.5278  -12.4015  -42.0776 H         1 UNK         0.3000 
    175 H175        1.6522  -12.0425  -41.8190 H         1 UNK         0.0600 
    176 H176        3.6266  -13.8541  -43.2960 H         1 UNK         0.0600 
    177 H177        4.0134  -12.6611  -42.0633 H         1 UNK         0.0600 
    178 H178        3.0819  -14.0896  -41.6395 H         1 UNK         0.0600 
    179 H179        2.9501  -11.8561  -44.4274 H         1 UNK         0.3000 
    180 H180        1.1042   -8.8949  -45.3423 H         1 UNK         0.0600 
    181 H181        4.0246   -9.4094  -44.5665 H         1 UNK         0.0600 
    182 H182        2.9724   -8.1916  -43.8521 H         1 UNK         0.0600 
    183 H183        3.4332   -8.0667  -45.5432 H         1 UNK         0.0600 
    184 H184        2.9223  -11.0987  -46.2575 H         1 UNK         0.3000 
    185 H185        1.1838  -11.3748  -49.2865 H         1 UNK         0.0600 
    186 H186        2.6682   -9.4973  -50.0033 H         1 UNK         0.0600 
    187 H187        4.0002  -10.1769  -49.0759 H         1 UNK         0.0600 
    188 H188        3.3483  -11.0495  -50.4642 H         1 UNK         0.0600 
    189 H189        3.6590  -12.4919  -48.3287 H         1 UNK         0.3000 
    190 H190       -1.3055  -21.3686  -47.0811 H         1 UNK         0.3000 
    191 H191       -2.4683  -22.7562  -49.2388 H         1 UNK         0.0600 
    192 H192       -4.6214  -22.0724  -48.2357 H         1 UNK         0.0600 
    193 H193       -3.8209  -21.6671  -46.7214 H         1 UNK         0.0600 
    194 H194       -3.4738  -20.7470  -48.1807 H         1 UNK         0.0600 
    195 H195       -2.3264  -23.6566  -45.7754 H         1 UNK         0.3000 
    196 H196       -3.7693  -26.0968  -45.9985 H         1 UNK         0.0600 
    197 H197       -2.7630  -26.5835  -43.7668 H         1 UNK         0.0600 
    198 H198       -3.3950  -24.9451  -43.8404 H         1 UNK         0.0600 
    199 H199       -1.6599  -25.2257  -43.9532 H         1 UNK         0.0600 
    200 H200       -0.2346  -25.4227  -46.1719 H         1 UNK         0.3000 
    201 H201        0.6174  -28.1060  -46.4970 H         1 UNK         0.0600 
    202 H202        2.1361  -26.2758  -45.8151 H         1 UNK         0.0600 
    203 H203        1.9458  -25.4899  -47.3810 H         1 UNK         0.0600 
    204 H204        2.7494  -27.0511  -47.2676 H         1 UNK         0.0600 
    205 H205       -0.2344  -25.6162  -48.9300 H         1 UNK         0.3000 
    206 H206        0.2421  -27.2992  -51.2343 H         1 UNK         0.0600 
    207 H207        0.3581  -24.8026  -51.2929 H         1 UNK         0.0600 
    208 H208       -0.8379  -25.4003  -52.4335 H         1 UNK         0.0600 
    209 H209       -1.3566  -24.7110  -50.8967 H         1 UNK         0.0600 
    210 H210       -2.2670  -27.2067  -48.9419 H         1 UNK         0.3000 
    211 H211       -4.2047  -28.1552  -48.6217 H         1 UNK         0.0600 
    212 H212       -4.8386  -30.2089  -49.8057 H         1 UNK         0.0600 
    213 H213       -3.1072  -30.2243  -49.5202 H         1 UNK         0.0600 
    214 H214       -3.7354  -29.8533  -51.1261 H         1 UNK         0.0600 
    215 H215       -3.9690  -25.7714  -50.3935 H         1 UNK         0.3000 
    216 H216       -6.5373  -24.9868  -50.6522 H         1 UNK         0.0600 
    217 H217       -6.9140  -24.9816  -53.2123 H         1 UNK         0.0600 
    218 H218       -7.1402  -26.5359  -52.4521 H         1 UNK         0.0600 
    219 H219       -5.6524  -26.2011  -53.3361 H         1 UNK         0.0600 
    220 H220       -3.5912  -24.9840  -52.6357 H         1 UNK         0.3000 
    221 H221       -2.1836  -23.5106  -53.4419 H         1 UNK         0.0600 
    222 H222       -3.2717  -21.5273  -51.3813 H         1 UNK         0.0600 
    223 H223       -1.7832  -22.4782  -51.3107 H         1 UNK         0.0600 
    224 H224       -1.9405  -21.1833  -52.4681 H         1 UNK         0.0600 
    225 H225       -5.5246  -22.5835  -53.4711 H         1 UNK         0.3000 
    226 H226       -6.8871  -21.6791  -54.9573 H         1 UNK         0.0600 
    227 H227       -5.8444  -23.2181  -56.6312 H         1 UNK         0.0600 
    228 H228       -6.4000  -21.7308  -57.3708 H         1 UNK         0.0600 
    229 H229       -4.6804  -21.9748  -57.0704 H         1 UNK         0.0600 
    230 H230       -5.4340  -19.8813  -57.2076 H         1 UNK         0.3000 
    231 H231       -5.2255  -17.7048  -57.6025 H         1 UNK         0.0600 
    232 H232       -3.7879  -17.6621  -54.8848 H         1 UNK         0.0600 
    233 H233       -3.7408  -16.3695  -56.0812 H         1 UNK         0.0600 
    234 H234       -3.0642  -17.9430  -56.4599 H         1 UNK         0.0600 
    235 H235       -5.4163  -16.6367  -54.3006 H         1 UNK         0.3000 
    236 H236       -8.3369  -16.2653  -54.3365 H         1 UNK         0.0600 
    237 H237       -6.3882  -13.9266  -53.9516 H         1 UNK         0.0600 
    238 H238       -7.4204  -14.1639  -55.3612 H         1 UNK         0.0600 
    239 H239       -8.1403  -13.8506  -53.7927 H         1 UNK         0.0600 
    240 H240       -6.2262  -17.9388  -52.8455 H         1 UNK         0.3000 
    241 H241       -7.2973  -17.4748  -50.2046 H         1 UNK         0.0600 
    242 H242       -5.8858  -21.0486  -51.2469 H         1 UNK         0.3800 
    243 H243       -5.9530  -19.7632  -52.4271 H         1 UNK         0.3800 
    244 H244       -5.1930  -17.0540  -48.9984 H         1 UNK         0.0800 
    245 H245       -5.5713  -15.7659  -50.0892 H         1 UNK         0.0800 
    246 H246       -2.8203  -17.4009  -48.6276 H         1 UNK         0.0800 
    247 H247       -3.2076  -18.8641  -49.4920 H         1 UNK         0.0800 
@<TRIPOS>BOND
     1    1    2 1    
     2    1  127 1    
     3    1  128 1    
     4    1  129 1    
     5    2    3 2    
     6    2    4 am   BACKBONE|DICT|INTERRES
     7    4    5 1    
     8    4  130 1    
     9    5    6 1    
    10    5   65 1    
    11    5  131 1    
    12    6    7 1    
    13    6  132 1    
    14    6  133 1    
    15    7    8 1    
    16    8    9 1    
    17    8  134 1    
    18    8  135 1    
    19    9   10 ar   
    20    9   14 ar   
    21   10   11 ar   
    22   10  136 1    
    23   11   12 ar   
    24   11  126 1    
    25   12   13 ar   
    26   12  137 1    
    27   13   14 ar   
    28   13   15 1    
    29   14  138 1    
    30   15   16 1    
    31   15  139 1    
    32   15  140 1    
    33   16   17 1    
    34   17   18 1    
    35   17  141 1    
    36   17  142 1    
    37   18   19 1    
    38   18   67 1    
    39   18  143 1    
    40   19   20 am   BACKBONE|DICT|INTERRES
    41   19  144 1    
    42   20   21 2    
    43   20   22 1    
    44   22   23 1    
    45   22   24 1    
    46   22  145 1    
    47   23  146 1    
    48   23  147 1    
    49   23  148 1    
    50   24   25 am   BACKBONE|DICT|INTERRES
    51   24  149 1    
    52   25   26 2    
    53   25   27 1    
    54   27   28 1    
    55   27   29 1    
    56   27  150 1    
    57   28  151 1    
    58   28  152 1    
    59   28  153 1    
    60   29   30 am   BACKBONE|DICT|INTERRES
    61   29  154 1    
    62   30   31 2    
    63   30   32 1    
    64   32   33 1    
    65   32   34 1    
    66   32  155 1    
    67   33  156 1    
    68   33  157 1    
    69   33  158 1    
    70   34   35 am   BACKBONE|DICT|INTERRES
    71   34  159 1    
    72   35   36 2    
    73   35   37 1    
    74   37   38 1    
    75   37   39 1    
    76   37  160 1    
    77   38  161 1    
    78   38  162 1    
    79   38  163 1    
    80   39   40 am   BACKBONE|DICT|INTERRES
    81   39  164 1    
    82   40   41 2    
    83   40   42 1    
    84   42   43 1    
    85   42   44 1    
    86   42  165 1    
    87   43  166 1    
    88   43  167 1    
    89   43  168 1    
    90   44   45 am   BACKBONE|DICT|INTERRES
    91   44  169 1    
    92   45   46 2    
    93   45   47 1    
    94   47   48 1    
    95   47   49 1    
    96   47  170 1    
    97   48  171 1    
    98   48  172 1    
    99   48  173 1    
   100   49   50 am   BACKBONE|DICT|INTERRES
   101   49  174 1    
   102   50   51 2    
   103   50   52 1    
   104   52   53 1    
   105   52   54 1    
   106   52  175 1    
   107   53  176 1    
   108   53  177 1    
   109   53  178 1    
   110   54   55 am   BACKBONE|DICT|INTERRES
   111   54  179 1    
   112   55   56 2    
   113   55   57 1    
   114   57   58 1    
   115   57   59 1    
   116   57  180 1    
   117   58  181 1    
   118   58  182 1    
   119   58  183 1    
   120   59   60 am   BACKBONE|DICT|INTERRES
   121   59  184 1    
   122   60   61 2    
   123   60   62 1    
   124   62   63 1    
   125   62   64 1    
   126   62  185 1    
   127   63  186 1    
   128   63  187 1    
   129   63  188 1    
   130   64   65 am   BACKBONE|DICT|INTERRES
   131   64  189 1    
   132   65   66 2    
   133   67   68 2    
   134   67   69 am   BACKBONE|DICT|INTERRES
   135   69   70 1    
   136   69  190 1    
   137   70   71 1    
   138   70   72 1    
   139   70  191 1    
   140   71  192 1    
   141   71  193 1    
   142   71  194 1    
   143   72   73 2    
   144   72   74 am   BACKBONE|DICT|INTERRES
   145   74   75 1    
   146   74  195 1    
   147   75   76 1    
   148   75   77 1    
   149   75  196 1    
   150   76  197 1    
   151   76  198 1    
   152   76  199 1    
   153   77   78 2    
   154   77   79 am   BACKBONE|DICT|INTERRES
   155   79   80 1    
   156   79  200 1    
   157   80   81 1    
   158   80   82 1    
   159   80  201 1    
   160   81  202 1    
   161   81  203 1    
   162   81  204 1    
   163   82   83 2    
   164   82   84 am   BACKBONE|DICT|INTERRES
   165   84   85 1    
   166   84  205 1    
   167   85   86 1    
   168   85   87 1    
   169   85  206 1    
   170   86  207 1    
   171   86  208 1    
   172   86  209 1    
   173   87   88 2    
   174   87   89 am   BACKBONE|DICT|INTERRES
   175   89   90 1    
   176   89  210 1    
   177   90   91 1    
   178   90   92 1    
   179   90  211 1    
   180   91  212 1    
   181   91  213 1    
   182   91  214 1    
   183   92   93 2    
   184   92   94 am   BACKBONE|DICT|INTERRES
   185   94   95 1    
   186   94  215 1    
   187   95   96 1    
   188   95   97 1    
   189   95  216 1    
   190   96  217 1    
   191   96  218 1    
   192   96  219 1    
   193   97   98 2    
   194   97   99 am   BACKBONE|DICT|INTERRES
   195   99  100 1    
   196   99  220 1    
   197  100  101 1    
   198  100  102 1    
   199  100  221 1    
   200  101  222 1    
   201  101  223 1    
   202  101  224 1    
   203  102  103 2    
   204  102  104 am   BACKBONE|DICT|INTERRES
   205  104  105 1    
   206  104  225 1    
   207  105  106 1    
   208  105  107 1    
   209  105  226 1    
   210  106  227 1    
   211  106  228 1    
   212  106  229 1    
   213  107  108 2    
   214  107  109 am   BACKBONE|DICT|INTERRES
   215  109  110 1    
   216  109  230 1    
   217  110  111 1    
   218  110  112 1    
   219  110  231 1    
   220  111  232 1    
   221  111  233 1    
   222  111  234 1    
   223  112  113 2    
   224  112  114 am   BACKBONE|DICT|INTERRES
   225  114  115 1    
   226  114  235 1    
   227  115  116 1    
   228  115  117 1    
   229  115  236 1    
   230  116  237 1    
   231  116  238 1    
   232  116  239 1    
   233  117  118 2    
   234  117  119 am   BACKBONE|DICT|INTERRES
   235  119  120 1    
   236  119  240 1    
   237  120  121 1    
   238  120  124 1    
   239  120  241 1    
   240  121  122 am   BACKBONE|DICT|INTERRES
   241  121  123 2    
   242  122  242 1    
   243  122  243 1    
   244  124  125 1    
   245  124  244 1    
   246  124  245 1    
   247  125  126 1    
   248  126  246 1    
   249  126  247 1    
@<TRIPOS>SUBSTRUCTURE
     1 UNK         1 GROUP             0       ****    0 ROOT    
