@<TRIPOS>MOLECULE
3R540
247   249    1
SMALL
USER_CHARGES


@<TRIPOS>ATOM
      1 CA          1.4851  -11.9537  -52.2490 C.3       0 UNK        -0.1800 
      2 C           1.6185  -11.9961  -50.7332 C.2       0 UNK         0.5000 
      3 O           1.8576  -10.9621  -50.1086 O.2       0 UNK        -0.5000 
      4 N           1.4716  -13.1873  -50.1426 N.am      1 UNK        -0.5000 
      5 CA          1.5051  -13.4135  -48.6960 C.3       1 UNK         0.1400 
      6 C6          1.7152  -14.9088  -48.3472 C.3       23 UNK        -0.0398 
      7 S7          3.4019  -15.4932  -48.7296 S.3       23 UNK        -0.2404 
      8 C8          3.2330  -16.1949  -50.4042 C.3       23 UNK        -0.0205 
      9 C9          2.3376  -17.4248  -50.4402 C.ar      23 UNK        -0.0193 
     10 C10         1.0406  -17.3388  -50.9557 C.ar      23 UNK        -0.1150 
     11 C11         0.2156  -18.4658  -50.9965 C.ar      23 UNK        -0.0193 
     12 C12         0.7008  -19.6881  -50.5200 C.ar      23 UNK        -0.1150 
     13 C13         2.0013  -19.7917  -50.0156 C.ar      23 UNK        -0.0193 
     14 C14         2.8141  -18.6552  -49.9781 C.ar      23 UNK        -0.1150 
     15 C15         2.5358  -21.1331  -49.5288 C.3       23 UNK        -0.0205 
     16 S16         2.6367  -21.2209  -47.7116 S.3       23 UNK        -0.2404 
     17 C17         0.8789  -21.1188  -47.2447 C.3       23 UNK        -0.0398 
     18 CA          0.4043  -22.3008  -46.3670 C.3       11 UNK         0.1400 
     19 N           1.0888  -22.3297  -45.0752 N.am      11 UNK        -0.5000 
     20 C           1.3020  -23.4106  -44.3175 C.2       10 UNK         0.5000 
     21 O           0.9745  -24.5506  -44.6506 O.2       10 UNK        -0.5000 
     22 CA          1.9671  -23.1546  -42.9460 C.3       10 UNK         0.1400 
     23 CB          2.6836  -24.3961  -42.3757 C.3       10 UNK        -0.1800 
     24 N           2.8473  -21.9791  -42.9457 N.am      10 UNK        -0.5000 
     25 C           3.9865  -21.8074  -43.6347 C.2       9 UNK         0.5000 
     26 O           4.5112  -22.6850  -44.3212 O.2       9 UNK        -0.5000 
     27 CA          4.6500  -20.4152  -43.5712 C.3       9 UNK         0.1400 
     28 CB          4.5364  -19.7073  -44.9303 C.3       9 UNK        -0.1800 
     29 N           4.0864  -19.5377  -42.5434 N.am      9 UNK        -0.5000 
     30 C           4.3342  -19.6301  -41.2306 C.2       8 UNK         0.5000 
     31 O           5.1043  -20.4539  -40.7360 O.2       8 UNK        -0.5000 
     32 CA          3.5661  -18.6579  -40.3137 C.3       8 UNK         0.1400 
     33 CB          4.2874  -17.3043  -40.2298 C.3       8 UNK        -0.1800 
     34 N           2.1769  -18.4469  -40.7311 N.am      8 UNK        -0.5000 
     35 C           1.2351  -19.4014  -40.7499 C.2       7 UNK         0.5000 
     36 O           1.4351  -20.5668  -40.4072 O.2       7 UNK        -0.5000 
     37 CA         -0.1508  -19.0054  -41.2882 C.3       7 UNK         0.1400 
     38 CB         -0.9564  -18.2323  -40.2341 C.3       7 UNK        -0.1800 
     39 N          -0.0709  -18.2291  -42.5264 N.am      7 UNK        -0.5000 
     40 C           0.4031  -18.7078  -43.6850 C.2       6 UNK         0.5000 
     41 O           0.7455  -19.8777  -43.8445 O.2       6 UNK        -0.5000 
     42 CA          0.5614  -17.7180  -44.8519 C.3       6 UNK         0.1400 
     43 CB         -0.7610  -17.5533  -45.6156 C.3       6 UNK        -0.1800 
     44 N           1.0520  -16.4125  -44.4163 N.am      6 UNK        -0.5000 
     45 C           2.2482  -16.1993  -43.8505 C.2       5 UNK         0.5000 
     46 O           3.0897  -17.0786  -43.6748 O.2       5 UNK        -0.5000 
     47 CA          2.5244  -14.7770  -43.3383 C.3       5 UNK         0.1400 
     48 CB          2.9425  -13.8456  -44.4864 C.3       5 UNK        -0.1800 
     49 N           1.3659  -14.2207  -42.6387 N.am      5 UNK        -0.5000 
     50 C           0.9175  -14.6607  -41.4543 C.2       4 UNK         0.5000 
     51 O           1.4571  -15.5611  -40.8112 O.2       4 UNK        -0.5000 
     52 CA         -0.3698  -14.0088  -40.9165 C.3       4 UNK         0.1400 
     53 CB         -0.0472  -12.6972  -40.1854 C.3       4 UNK        -0.1800 
     54 N          -1.3525  -13.7481  -41.9698 N.am      4 UNK        -0.5000 
     55 C          -2.0088  -14.7030  -42.6441 C.2       3 UNK         0.5000 
     56 O          -1.8754  -15.9069  -42.4278 O.2       3 UNK        -0.5000 
     57 CA         -2.9242  -14.2331  -43.7921 C.3       3 UNK         0.1400 
     58 CB         -4.3049  -13.8300  -43.2537 C.3       3 UNK        -0.1800 
     59 N          -2.3617  -13.1263  -44.5755 N.am      3 UNK        -0.5000 
     60 C          -1.1941  -13.1837  -45.2289 C.2       2 UNK         0.5000 
     61 O          -0.4568  -14.1719  -45.2078 O.2       2 UNK        -0.5000 
     62 CA         -0.7486  -11.9152  -45.9817 C.3       2 UNK         0.1400 
     63 CB         -0.2633  -10.8480  -44.9873 C.3       2 UNK        -0.1800 
     64 N           0.3456  -12.2196  -46.9041 N.am      2 UNK        -0.5000 
     65 C           0.2049  -12.8999  -48.0478 C.2       1 UNK         0.5000 
     66 O          -0.8848  -13.1669  -48.5614 O.2       1 UNK        -0.5000 
     67 C          -1.1212  -22.1888  -46.1932 C.2       11 UNK         0.5000 
     68 O          -1.8405  -22.5021  -47.1398 O.2       11 UNK        -0.5000 
     69 N          -1.5841  -21.7083  -45.0270 N.am      12 UNK        -0.5000 
     70 CA         -2.9606  -21.2914  -44.7262 C.3       12 UNK         0.1400 
     71 CB         -3.0802  -20.9794  -43.2280 C.3       12 UNK        -0.1800 
     72 C          -4.0746  -22.2596  -45.1696 C.2       12 UNK         0.5000 
     73 O          -5.0947  -21.8079  -45.6901 O.2       12 UNK        -0.5000 
     74 N          -3.8424  -23.5675  -44.9957 N.am      13 UNK        -0.5000 
     75 CA         -4.7647  -24.6356  -45.3892 C.3       13 UNK         0.1400 
     76 CB         -4.2533  -25.9705  -44.8267 C.3       13 UNK        -0.1800 
     77 C          -4.9830  -24.7405  -46.9125 C.2       13 UNK         0.5000 
     78 O          -6.0758  -25.1137  -47.3399 O.2       13 UNK        -0.5000 
     79 N          -3.9521  -24.4036  -47.6982 N.am      14 UNK        -0.5000 
     80 CA         -4.0050  -24.3488  -49.1576 C.3       14 UNK         0.1400 
     81 CB         -2.6369  -24.7451  -49.7342 C.3       14 UNK        -0.1800 
     82 C          -4.4063  -22.9453  -49.6337 C.2       14 UNK         0.5000 
     83 O          -5.2347  -22.8237  -50.5365 O.2       14 UNK        -0.5000 
     84 N          -3.8350  -21.9094  -49.0020 N.am      15 UNK        -0.5000 
     85 CA         -4.0424  -20.4924  -49.3100 C.3       15 UNK         0.1400 
     86 CB         -3.1263  -19.6368  -48.4238 C.3       15 UNK        -0.1800 
     87 C          -5.5056  -20.0334  -49.1768 C.2       15 UNK         0.5000 
     88 O          -5.9248  -19.1490  -49.9225 O.2       15 UNK        -0.5000 
     89 N          -6.2771  -20.6870  -48.2960 N.am      16 UNK        -0.5000 
     90 CA         -7.7286  -20.5272  -48.1586 C.3       16 UNK         0.1400 
     91 CB         -8.2140  -21.3906  -46.9844 C.3       16 UNK        -0.1800 
     92 C          -8.5247  -20.8680  -49.4387 C.2       16 UNK         0.5000 
     93 O          -9.6170  -20.3324  -49.6288 O.2       16 UNK        -0.5000 
     94 N          -7.9576  -21.7265  -50.2966 N.am      17 UNK        -0.5000 
     95 CA         -8.4756  -22.0924  -51.6156 C.3       17 UNK         0.1400 
     96 CB         -8.5710  -23.6267  -51.6852 C.3       17 UNK        -0.1800 
     97 C          -7.5816  -21.5380  -52.7464 C.2       17 UNK         0.5000 
     98 O          -7.7189  -21.9702  -53.8919 O.2       17 UNK        -0.5000 
     99 N          -6.6568  -20.6229  -52.4082 N.am      18 UNK        -0.5000 
    100 CA        -5.6334  -20.0120  -53.2679 C.3       18 UNK         0.1400 
    101 CB        -6.2982  -19.1431  -54.3532 C.3       18 UNK        -0.1800 
    102 C         -4.6243  -21.0231  -53.8586 C.2       18 UNK         0.5000 
    103 O         -3.9830  -20.7311  -54.8720 O.2       18 UNK        -0.5000 
    104 N         -4.5281  -22.2130  -53.2424 N.am      19 UNK        -0.5000 
    105 CA        -3.6932  -23.3751  -53.5818 C.3       19 UNK         0.1400 
    106 CB        -2.2149  -23.0500  -53.2924 C.3       19 UNK        -0.1800 
    107 C         -3.8714  -23.9301  -55.0146 C.2       19 UNK         0.5000 
    108 O         -3.1097  -24.8103  -55.4169 O.2       19 UNK        -0.5000 
    109 N         -4.8316  -23.3751  -55.7706 N.am      20 UNK        -0.5000 
    110 CA        -4.9689  -23.4338  -57.2288 C.3       20 UNK         0.1400 
    111 CB        -5.4050  -24.8439  -57.6776 C.3       20 UNK        -0.1800 
    112 C         -3.7081  -22.9247  -57.9716 C.2       20 UNK         0.5000 
    113 O         -3.4323  -23.3860  -59.0813 O.2       20 UNK        -0.5000 
    114 N         -2.9462  -22.0111  -57.3457 N.am      21 UNK        -0.5000 
    115 CA        -1.6060  -21.6280  -57.7989 C.3       21 UNK         0.1400 
    116 CB        -0.5966  -22.7210  -57.3949 C.3       21 UNK        -0.1800 
    117 C         -1.1182  -20.2546  -57.3026 C.2       21 UNK         0.5000 
    118 O         -0.2010  -19.7126  -57.9222 O.2       21 UNK        -0.5000 
    119 N         -1.6891  -19.7118  -56.2185 N.am      22 UNK        -0.5000 
    120 CA        -1.2392  -18.4561  -55.5844 C.3       22 UNK         0.1400 
    121 C         -2.3432  -17.3653  -55.4824 C.2       22 UNK         0.5000 
    122 N         -3.4726  -17.5097  -56.1632 N.am      22 UNK        -0.7600 
    123 O         -2.1623  -16.3535  -54.8102 O.2       22 UNK        -0.5000 
    124 C124       -0.4822  -18.7155  -54.2533 C.3       23 UNK        -0.0398 
    125 S125       -1.4969  -19.4807  -52.9417 S.3       23 UNK        -0.2404 
    126 C126       -1.2030  -18.3574  -51.5413 C.3       23 UNK        -0.0205 
    127 H127        1.2875  -12.9411  -52.6670 H         1 UNK         0.0600 
    128 H128        0.6664  -11.2934  -52.5351 H         1 UNK         0.0600 
    129 H129        2.4036  -11.5733  -52.6960 H         1 UNK         0.0600 
    130 H130        1.2320  -13.9892  -50.7047 H         1 UNK         0.3000 
    131 H131        2.3420  -12.8461  -48.2821 H         1 UNK         0.0600 
    132 H132        0.9711  -15.5354  -48.8389 H         1 UNK         0.0800 
    133 H133        1.5708  -15.0737  -47.2774 H         1 UNK         0.0800 
    134 H134        4.2253  -16.4693  -50.7649 H         1 UNK         0.0800 
    135 H135        2.8701  -15.4293  -51.0902 H         1 UNK         0.0800 
    136 H136        0.6707  -16.3920  -51.3226 H         1 UNK         0.1150 
    137 H137        0.0645  -20.5614  -50.5552 H         1 UNK         0.1150 
    138 H138        3.8185  -18.7278  -49.5847 H         1 UNK         0.1150 
    139 H139        1.9183  -21.9539  -49.8971 H         1 UNK         0.0800 
    140 H140        3.5319  -21.2931  -49.9436 H         1 UNK         0.0800 
    141 H141        0.2788  -21.0703  -48.1537 H         1 UNK         0.0800 
    142 H142        0.7227  -20.1683  -46.7340 H         1 UNK         0.0800 
    143 H143        0.6055  -23.2320  -46.9010 H         1 UNK         0.0600 
    144 H144        1.3274  -21.4227  -44.6824 H         1 UNK         0.3000 
    145 H145        1.1518  -22.9097  -42.2638 H         1 UNK         0.0600 
    146 H146        3.1439  -24.1770  -41.4122 H         1 UNK         0.0600 
    147 H147        1.9800  -25.2145  -42.2192 H         1 UNK         0.0600 
    148 H148        3.4621  -24.7614  -43.0456 H         1 UNK         0.0600 
    149 H149        2.5034  -21.1876  -42.4173 H         1 UNK         0.3000 
    150 H150        5.7092  -20.5684  -43.3548 H         1 UNK         0.0600 
    151 H151        4.9754  -20.3094  -45.7268 H         1 UNK         0.0600 
    152 H152        5.0581  -18.7502  -44.9227 H         1 UNK         0.0600 
    153 H153        3.4956  -19.5185  -45.1963 H         1 UNK         0.0600 
    154 H154        3.4982  -18.7773  -42.8746 H         1 UNK         0.3000 
    155 H155        3.5485  -19.0940  -39.3128 H         1 UNK         0.0600 
    156 H156        4.3113  -16.8001  -41.1962 H         1 UNK         0.0600 
    157 H157        5.3189  -17.4304  -39.8988 H         1 UNK         0.0600 
    158 H158        3.7963  -16.6398  -39.5188 H         1 UNK         0.0600 
    159 H159        1.9220  -17.5005  -40.9966 H         1 UNK         0.3000 
    160 H160       -0.6866  -19.9310  -41.5042 H         1 UNK         0.0600 
    161 H161       -1.9709  -18.0365  -40.5818 H         1 UNK         0.0600 
    162 H162       -0.4952  -17.2747  -39.9937 H         1 UNK         0.0600 
    163 H163       -1.0348  -18.8016  -39.3072 H         1 UNK         0.0600 
    164 H164       -0.4064  -17.2720  -42.4884 H         1 UNK         0.3000 
    165 H165        1.3016  -18.1324  -45.5392 H         1 UNK         0.0600 
    166 H166       -0.6337  -16.9121  -46.4882 H         1 UNK         0.0600 
    167 H167       -1.1332  -18.5156  -45.9694 H         1 UNK         0.0600 
    168 H168       -1.5351  -17.1119  -44.9873 H         1 UNK         0.0600 
    169 H169        0.4312  -15.6183  -44.5606 H         1 UNK         0.3000 
    170 H170        3.3542  -14.8324  -42.6304 H         1 UNK         0.0600 
    171 H171        3.8275  -14.2301  -44.9952 H         1 UNK         0.0600 
    172 H172        2.1571  -13.7448  -45.2336 H         1 UNK         0.0600 
    173 H173        3.1860  -12.8492  -44.1176 H         1 UNK         0.0600 
    174 H174        0.8295  -13.5225  -43.1301 H         1 UNK         0.3000 
    175 H175       -0.8163  -14.6987  -40.1973 H         1 UNK         0.0600 
    176 H176       -0.9416  -12.2677  -39.7337 H         1 UNK         0.0600 
    177 H177        0.6721  -12.8652  -39.3827 H         1 UNK         0.0600 
    178 H178        0.3799  -11.9530  -40.8588 H         1 UNK         0.0600 
    179 H179       -1.5198  -12.7832  -42.2136 H         1 UNK         0.3000 
    180 H180       -3.0580  -15.0796  -44.4688 H         1 UNK         0.0600 
    181 H181       -4.2447  -12.9603  -42.5982 H         1 UNK         0.0600 
    182 H182       -4.7527  -14.6430  -42.6805 H         1 UNK         0.0600 
    183 H183       -4.9911  -13.5916  -44.0665 H         1 UNK         0.0600 
    184 H184       -2.9129  -12.2815  -44.6239 H         1 UNK         0.3000 
    185 H185       -1.5972  -11.5234  -46.5464 H         1 UNK         0.0600 
    186 H186        0.5746  -11.2054  -44.3870 H         1 UNK         0.0600 
    187 H187        0.0592   -9.9451  -45.5065 H         1 UNK         0.0600 
    188 H188       -1.0585  -10.5560  -44.3004 H         1 UNK         0.0600 
    189 H189        1.2758  -12.0449  -46.5549 H         1 UNK         0.3000 
    190 H190       -0.8922  -21.4672  -44.3304 H         1 UNK         0.3000 
    191 H191       -3.1274  -20.3552  -45.2580 H         1 UNK         0.0600 
    192 H192       -2.4717  -20.1159  -42.9630 H         1 UNK         0.0600 
    193 H193       -2.7647  -21.8223  -42.6121 H         1 UNK         0.0600 
    194 H194       -4.1085  -20.7378  -42.9552 H         1 UNK         0.0600 
    195 H195       -2.9663  -23.8492  -44.5810 H         1 UNK         0.3000 
    196 H196       -5.7345  -24.4231  -44.9343 H         1 UNK         0.0600 
    197 H197       -4.9304  -26.7870  -45.0813 H         1 UNK         0.0600 
    198 H198       -4.1794  -25.9385  -43.7396 H         1 UNK         0.0600 
    199 H199       -3.2694  -26.2237  -45.2238 H         1 UNK         0.0600 
    200 H200       -3.1121  -24.0343  -47.2667 H         1 UNK         0.3000 
    201 H201       -4.7464  -25.0586  -49.5307 H         1 UNK         0.0600 
    202 H202       -2.3492  -25.7450  -49.4093 H         1 UNK         0.0600 
    203 H203       -1.8492  -24.0554  -49.4284 H         1 UNK         0.0600 
    204 H204       -2.6607  -24.7538  -50.8240 H         1 UNK         0.0600 
    205 H205       -3.1491  -22.1134  -48.2779 H         1 UNK         0.3000 
    206 H206       -3.7472  -20.3438  -50.3508 H         1 UNK         0.0600 
    207 H207       -2.0798  -19.9183  -48.5420 H         1 UNK         0.0600 
    208 H208       -3.2116  -18.5795  -48.6772 H         1 UNK         0.0600 
    209 H209       -3.3873  -19.7377  -47.3727 H         1 UNK         0.0600 
    210 H210       -5.8379  -21.3580  -47.6759 H         1 UNK         0.3000 
    211 H211       -7.9260  -19.4801  -47.9210 H         1 UNK         0.0600 
    212 H212       -7.9811  -22.4452  -47.1389 H         1 UNK         0.0600 
    213 H213       -9.2936  -21.3062  -46.8533 H         1 UNK         0.0600 
    214 H214       -7.7499  -21.0790  -46.0485 H         1 UNK         0.0600 
    215 H215       -7.0440  -22.1091  -50.0740 H         1 UNK         0.3000 
    216 H216       -9.4743  -21.6787  -51.7663 H         1 UNK         0.0600 
    217 H217       -9.0073  -23.9535  -52.6298 H         1 UNK         0.0600 
    218 H218       -9.2015  -24.0179  -50.8866 H         1 UNK         0.0600 
    219 H219       -7.5894  -24.0940  -51.5959 H         1 UNK         0.0600 
    220 H220       -6.6366  -20.3088  -51.4445 H         1 UNK         0.3000 
    221 H221       -5.0505  -19.3504  -52.6257 H         1 UNK         0.0600 
    222 H222       -6.8132  -19.7471  -55.1006 H         1 UNK         0.0600 
    223 H223       -7.0228  -18.4544  -53.9188 H         1 UNK         0.0600 
    224 H224       -5.5586  -18.5405  -54.8761 H         1 UNK         0.0600 
    225 H225       -5.0822  -22.3388  -52.4001 H         1 UNK         0.3000 
    226 H226       -4.0015  -24.1738  -52.9062 H         1 UNK         0.0600 
    227 H227       -2.0870  -22.6478  -52.2871 H         1 UNK         0.0600 
    228 H228       -1.8201  -22.3188  -53.9984 H         1 UNK         0.0600 
    229 H229       -1.5928  -23.9425  -53.3655 H         1 UNK         0.0600 
    230 H230       -5.4057  -22.6768  -55.3180 H         1 UNK         0.3000 
    231 H231       -5.7711  -22.7411  -57.4865 H         1 UNK         0.0600 
    232 H232       -6.2905  -25.1738  -57.1343 H         1 UNK         0.0600 
    233 H233       -4.6185  -25.5817  -57.5169 H         1 UNK         0.0600 
    234 H234       -5.6539  -24.8577  -58.7392 H         1 UNK         0.0600 
    235 H235       -3.2607  -21.6443  -56.4530 H         1 UNK         0.3000 
    236 H236       -1.6177  -21.5591  -58.8888 H         1 UNK         0.0600 
    237 H237        0.4163  -22.4589  -57.7035 H         1 UNK         0.0600 
    238 H238       -0.5840  -22.8702  -56.3145 H         1 UNK         0.0600 
    239 H239       -0.8354  -23.6774  -57.8600 H         1 UNK         0.0600 
    240 H240       -2.4577  -20.1736  -55.7394 H         1 UNK         0.3000 
    241 H241       -0.5096  -17.9775  -56.2392 H         1 UNK         0.0600 
    242 H242       -4.1765  -16.7909  -56.1138 H         1 UNK         0.3800 
    243 H243       -3.6274  -18.3300  -56.7270 H         1 UNK         0.3800 
    244 H244        0.3651  -19.3757  -54.4414 H         1 UNK         0.0800 
    245 H245       -0.0458  -17.7857  -53.8855 H         1 UNK         0.0800 
    246 H246       -1.9040  -18.6010  -50.7454 H         1 UNK         0.0800 
    247 H247       -1.4332  -17.3359  -51.8487 H         1 UNK         0.0800 
@<TRIPOS>BOND
     1    1    2 1    
     2    1  127 1    
     3    1  128 1    
     4    1  129 1    
     5    2    3 2    
     6    2    4 am   BACKBONE|DICT|INTERRES
     7    4    5 1    
     8    4  130 1    
     9    5    6 1    
    10    5   65 1    
    11    5  131 1    
    12    6    7 1    
    13    6  132 1    
    14    6  133 1    
    15    7    8 1    
    16    8    9 1    
    17    8  134 1    
    18    8  135 1    
    19    9   10 ar   
    20    9   14 ar   
    21   10   11 ar   
    22   10  136 1    
    23   11   12 ar   
    24   11  126 1    
    25   12   13 ar   
    26   12  137 1    
    27   13   14 ar   
    28   13   15 1    
    29   14  138 1    
    30   15   16 1    
    31   15  139 1    
    32   15  140 1    
    33   16   17 1    
    34   17   18 1    
    35   17  141 1    
    36   17  142 1    
    37   18   19 1    
    38   18   67 1    
    39   18  143 1    
    40   19   20 am   BACKBONE|DICT|INTERRES
    41   19  144 1    
    42   20   21 2    
    43   20   22 1    
    44   22   23 1    
    45   22   24 1    
    46   22  145 1    
    47   23  146 1    
    48   23  147 1    
    49   23  148 1    
    50   24   25 am   BACKBONE|DICT|INTERRES
    51   24  149 1    
    52   25   26 2    
    53   25   27 1    
    54   27   28 1    
    55   27   29 1    
    56   27  150 1    
    57   28  151 1    
    58   28  152 1    
    59   28  153 1    
    60   29   30 am   BACKBONE|DICT|INTERRES
    61   29  154 1    
    62   30   31 2    
    63   30   32 1    
    64   32   33 1    
    65   32   34 1    
    66   32  155 1    
    67   33  156 1    
    68   33  157 1    
    69   33  158 1    
    70   34   35 am   BACKBONE|DICT|INTERRES
    71   34  159 1    
    72   35   36 2    
    73   35   37 1    
    74   37   38 1    
    75   37   39 1    
    76   37  160 1    
    77   38  161 1    
    78   38  162 1    
    79   38  163 1    
    80   39   40 am   BACKBONE|DICT|INTERRES
    81   39  164 1    
    82   40   41 2    
    83   40   42 1    
    84   42   43 1    
    85   42   44 1    
    86   42  165 1    
    87   43  166 1    
    88   43  167 1    
    89   43  168 1    
    90   44   45 am   BACKBONE|DICT|INTERRES
    91   44  169 1    
    92   45   46 2    
    93   45   47 1    
    94   47   48 1    
    95   47   49 1    
    96   47  170 1    
    97   48  171 1    
    98   48  172 1    
    99   48  173 1    
   100   49   50 am   BACKBONE|DICT|INTERRES
   101   49  174 1    
   102   50   51 2    
   103   50   52 1    
   104   52   53 1    
   105   52   54 1    
   106   52  175 1    
   107   53  176 1    
   108   53  177 1    
   109   53  178 1    
   110   54   55 am   BACKBONE|DICT|INTERRES
   111   54  179 1    
   112   55   56 2    
   113   55   57 1    
   114   57   58 1    
   115   57   59 1    
   116   57  180 1    
   117   58  181 1    
   118   58  182 1    
   119   58  183 1    
   120   59   60 am   BACKBONE|DICT|INTERRES
   121   59  184 1    
   122   60   61 2    
   123   60   62 1    
   124   62   63 1    
   125   62   64 1    
   126   62  185 1    
   127   63  186 1    
   128   63  187 1    
   129   63  188 1    
   130   64   65 am   BACKBONE|DICT|INTERRES
   131   64  189 1    
   132   65   66 2    
   133   67   68 2    
   134   67   69 am   BACKBONE|DICT|INTERRES
   135   69   70 1    
   136   69  190 1    
   137   70   71 1    
   138   70   72 1    
   139   70  191 1    
   140   71  192 1    
   141   71  193 1    
   142   71  194 1    
   143   72   73 2    
   144   72   74 am   BACKBONE|DICT|INTERRES
   145   74   75 1    
   146   74  195 1    
   147   75   76 1    
   148   75   77 1    
   149   75  196 1    
   150   76  197 1    
   151   76  198 1    
   152   76  199 1    
   153   77   78 2    
   154   77   79 am   BACKBONE|DICT|INTERRES
   155   79   80 1    
   156   79  200 1    
   157   80   81 1    
   158   80   82 1    
   159   80  201 1    
   160   81  202 1    
   161   81  203 1    
   162   81  204 1    
   163   82   83 2    
   164   82   84 am   BACKBONE|DICT|INTERRES
   165   84   85 1    
   166   84  205 1    
   167   85   86 1    
   168   85   87 1    
   169   85  206 1    
   170   86  207 1    
   171   86  208 1    
   172   86  209 1    
   173   87   88 2    
   174   87   89 am   BACKBONE|DICT|INTERRES
   175   89   90 1    
   176   89  210 1    
   177   90   91 1    
   178   90   92 1    
   179   90  211 1    
   180   91  212 1    
   181   91  213 1    
   182   91  214 1    
   183   92   93 2    
   184   92   94 am   BACKBONE|DICT|INTERRES
   185   94   95 1    
   186   94  215 1    
   187   95   96 1    
   188   95   97 1    
   189   95  216 1    
   190   96  217 1    
   191   96  218 1    
   192   96  219 1    
   193   97   98 2    
   194   97   99 am   BACKBONE|DICT|INTERRES
   195   99  100 1    
   196   99  220 1    
   197  100  101 1    
   198  100  102 1    
   199  100  221 1    
   200  101  222 1    
   201  101  223 1    
   202  101  224 1    
   203  102  103 2    
   204  102  104 am   BACKBONE|DICT|INTERRES
   205  104  105 1    
   206  104  225 1    
   207  105  106 1    
   208  105  107 1    
   209  105  226 1    
   210  106  227 1    
   211  106  228 1    
   212  106  229 1    
   213  107  108 2    
   214  107  109 am   BACKBONE|DICT|INTERRES
   215  109  110 1    
   216  109  230 1    
   217  110  111 1    
   218  110  112 1    
   219  110  231 1    
   220  111  232 1    
   221  111  233 1    
   222  111  234 1    
   223  112  113 2    
   224  112  114 am   BACKBONE|DICT|INTERRES
   225  114  115 1    
   226  114  235 1    
   227  115  116 1    
   228  115  117 1    
   229  115  236 1    
   230  116  237 1    
   231  116  238 1    
   232  116  239 1    
   233  117  118 2    
   234  117  119 am   BACKBONE|DICT|INTERRES
   235  119  120 1    
   236  119  240 1    
   237  120  121 1    
   238  120  124 1    
   239  120  241 1    
   240  121  122 am   BACKBONE|DICT|INTERRES
   241  121  123 2    
   242  122  242 1    
   243  122  243 1    
   244  124  125 1    
   245  124  244 1    
   246  124  245 1    
   247  125  126 1    
   248  126  246 1    
   249  126  247 1    
@<TRIPOS>SUBSTRUCTURE
     1 UNK         1 GROUP             0       ****    0 ROOT    
