@<TRIPOS>MOLECULE
3R540
247   249    1
SMALL
USER_CHARGES


@<TRIPOS>ATOM
      1 CA         -2.5355  -17.7072  -48.5114 C.3       0 UNK        -0.1800 
      2 C          -2.5301  -16.2144  -48.8030 C.2       0 UNK         0.5000 
      3 O          -3.5956  -15.6143  -48.9414 O.2       0 UNK        -0.5000 
      4 N          -1.3359  -15.6194  -48.8965 N.am      1 UNK        -0.5000 
      5 CA         -1.1124  -14.1898  -49.1280 C.3       1 UNK         0.1400 
      6 C6          0.3736  -13.8653  -49.4438 C.3       23 UNK        -0.0398 
      7 S7          1.5843  -14.6553  -48.3204 S.3       23 UNK        -0.2404 
      8 C8          2.4911  -15.7735  -49.4419 C.3       23 UNK        -0.0205 
      9 C9          1.6079  -16.8748  -50.0140 C.ar      23 UNK        -0.0193 
     10 C10         1.0465  -16.7344  -51.2864 C.ar      23 UNK        -0.1150 
     11 C11         0.2142  -17.7259  -51.8071 C.ar      23 UNK        -0.0193 
     12 C12        -0.0348  -18.8747  -51.0545 C.ar      23 UNK        -0.1150 
     13 C13         0.5506  -19.0580  -49.7986 C.ar      23 UNK        -0.0193 
     14 C14         1.3625  -18.0397  -49.2796 C.ar      23 UNK        -0.1150 
     15 C15         0.2577  -20.3556  -49.0431 C.3       23 UNK        -0.0205 
     16 S16         1.5745  -20.9110  -47.9128 S.3       23 UNK        -0.2404 
     17 C17         1.3767  -22.7247  -47.9355 C.3       23 UNK        -0.0398 
     18 CA          0.3992  -23.3425  -46.9024 C.3       11 UNK         0.1400 
     19 N           0.6454  -22.9522  -45.5055 N.am      11 UNK        -0.5000 
     20 C           0.1919  -23.6717  -44.4648 C.2       10 UNK         0.5000 
     21 O          -0.4584  -24.7091  -44.5939 O.2       10 UNK        -0.5000 
     22 CA          0.4619  -23.1448  -43.0447 C.3       10 UNK         0.1400 
     23 CB          1.9276  -23.3586  -42.6380 C.3       10 UNK        -0.1800 
     24 N           0.0810  -21.7442  -42.8710 N.am      10 UNK        -0.5000 
     25 C          -1.1743  -21.2832  -42.9748 C.2       9 UNK         0.5000 
     26 O          -2.1452  -21.9966  -43.2193 O.2       9 UNK        -0.5000 
     27 CA         -1.3818  -19.7657  -42.8253 C.3       9 UNK         0.1400 
     28 CB         -1.4617  -19.3630  -41.3457 C.3       9 UNK        -0.1800 
     29 N          -0.3332  -18.9944  -43.4851 N.am      9 UNK        -0.5000 
     30 C          -0.0775  -19.0234  -44.7994 C.2       8 UNK         0.5000 
     31 O          -0.7503  -19.6490  -45.6184 O.2       8 UNK        -0.5000 
     32 CA          1.1798  -18.2700  -45.2568 C.3       8 UNK         0.1400 
     33 CB          0.9030  -16.7666  -45.4095 C.3       8 UNK        -0.1800 
     34 N           2.3114  -18.4891  -44.3539 N.am      8 UNK        -0.5000 
     35 C           2.9395  -19.6647  -44.1958 C.2       7 UNK         0.5000 
     36 O           2.6425  -20.6910  -44.8059 O.2       7 UNK        -0.5000 
     37 CA          4.0664  -19.7113  -43.1477 C.3       7 UNK         0.1400 
     38 CB          5.3803  -19.1806  -43.7404 C.3       7 UNK        -0.1800 
     39 N           3.7382  -18.9543  -41.9398 N.am      7 UNK        -0.5000 
     40 C           2.7745  -19.2938  -41.0717 C.2       6 UNK         0.5000 
     41 O           2.0977  -20.3170  -41.1668 O.2       6 UNK        -0.5000 
     42 CA          2.4799  -18.2861  -39.9429 C.3       6 UNK         0.1400 
     43 CB          3.4123  -18.5248  -38.7460 C.3       6 UNK        -0.1800 
     44 N           2.5875  -16.8878  -40.3760 N.am      6 UNK        -0.5000 
     45 C           1.8430  -16.3420  -41.3466 C.2       5 UNK         0.5000 
     46 O           0.9858  -16.9682  -41.9735 O.2       5 UNK        -0.5000 
     47 CA          2.1587  -14.8823  -41.7236 C.3       5 UNK         0.1400 
     48 CB          3.4417  -14.8160  -42.5684 C.3       5 UNK        -0.1800 
     49 N           1.0748  -14.2702  -42.4906 N.am      5 UNK        -0.5000 
     50 C          -0.1383  -13.9692  -42.0098 C.2       4 UNK         0.5000 
     51 O          -0.4523  -14.0960  -40.8241 O.2       4 UNK        -0.5000 
     52 CA         -1.1633  -13.4383  -43.0365 C.3       4 UNK         0.1400 
     53 CB         -2.3402  -12.6895  -42.3777 C.3       4 UNK        -0.1800 
     54 N          -0.5724  -12.6179  -44.1016 N.am      4 UNK        -0.5000 
     55 C           0.1342  -11.4831  -43.9550 C.2       3 UNK         0.5000 
     56 O           0.4600  -11.0048  -42.8680 O.2       3 UNK        -0.5000 
     57 CA          0.5290  -10.7394  -45.2479 C.3       3 UNK         0.1400 
     58 CB          1.9173  -11.1958  -45.7230 C.3       3 UNK        -0.1800 
     59 N          -0.4306  -10.9305  -46.3364 N.am      3 UNK        -0.5000 
     60 C          -1.7201  -10.5635  -46.3086 C.2       2 UNK         0.5000 
     61 O          -2.2133   -9.8826  -45.4086 O.2       2 UNK        -0.5000 
     62 CA         -2.6227  -11.0518  -47.4616 C.3       2 UNK         0.1400 
     63 CB         -3.0746   -9.8671  -48.3306 C.3       2 UNK        -0.1800 
     64 N          -2.0308  -12.0720  -48.3358 N.am      2 UNK        -0.5000 
     65 C          -1.6484  -13.3071  -47.9787 C.2       1 UNK         0.5000 
     66 O          -1.6639  -13.7225  -46.8158 O.2       1 UNK        -0.5000 
     67 C          -1.0826  -23.2114  -47.3160 C.2       11 UNK         0.5000 
     68 O          -1.5394  -23.9894  -48.1567 O.2       11 UNK        -0.5000 
     69 N          -1.8233  -22.2818  -46.6951 N.am      12 UNK        -0.5000 
     70 CA         -3.2755  -22.1733  -46.8301 C.3       12 UNK         0.1400 
     71 CB         -3.7607  -20.8430  -46.2380 C.3       12 UNK        -0.1800 
     72 C          -4.0066  -23.3677  -46.1900 C.2       12 UNK         0.5000 
     73 O          -4.8401  -23.9868  -46.8510 O.2       12 UNK        -0.5000 
     74 N          -3.6582  -23.6976  -44.9372 N.am      13 UNK        -0.5000 
     75 CA         -4.2282  -24.8110  -44.1708 C.3       13 UNK         0.1400 
     76 CB         -3.7240  -24.7512  -42.7212 C.3       13 UNK        -0.1800 
     77 C          -3.9342  -26.1915  -44.7852 C.2       13 UNK         0.5000 
     78 O          -4.7976  -27.0689  -44.7511 O.2       13 UNK        -0.5000 
     79 N          -2.7382  -26.3469  -45.3681 N.am      14 UNK        -0.5000 
     80 CA         -2.3166  -27.5337  -46.1151 C.3       14 UNK         0.1400 
     81 CB         -0.7898  -27.4888  -46.2881 C.3       14 UNK        -0.1800 
     82 C          -2.9997  -27.6752  -47.4917 C.2       14 UNK         0.5000 
     83 O          -2.8675  -28.7288  -48.1152 O.2       14 UNK        -0.5000 
     84 N          -3.6791  -26.6130  -47.9545 N.am      15 UNK        -0.5000 
     85 CA         -4.3113  -26.4536  -49.2694 C.3       15 UNK         0.1400 
     86 CB         -5.4465  -27.4776  -49.4757 C.3       15 UNK        -0.1800 
     87 C          -3.2986  -26.4350  -50.4347 C.2       15 UNK         0.5000 
     88 O          -3.6756  -26.6691  -51.5838 O.2       15 UNK        -0.5000 
     89 N          -2.0343  -26.1189  -50.1241 N.am      16 UNK        -0.5000 
     90 CA         -0.9391  -25.9697  -51.0808 C.3       16 UNK         0.1400 
     91 CB          0.3943  -26.1072  -50.3298 C.3       16 UNK        -0.1800 
     92 C          -1.0072  -24.6293  -51.8356 C.2       16 UNK         0.5000 
     93 O          -0.4379  -24.5166  -52.9213 O.2       16 UNK        -0.5000 
     94 N          -1.7082  -23.6468  -51.2502 N.am      17 UNK        -0.5000 
     95 CA         -1.9617  -22.3233  -51.8162 C.3       17 UNK         0.1400 
     96 CB         -2.7448  -21.4896  -50.7861 C.3       17 UNK        -0.1800 
     97 C          -2.7464  -22.3551  -53.1393 C.2       17 UNK         0.5000 
     98 O          -2.4736  -21.5462  -54.0242 O.2       17 UNK        -0.5000 
     99 N          -3.7410  -23.2527  -53.2201 N.am      18 UNK        -0.5000 
    100 CA        -4.7747  -23.3926  -54.2583 C.3       18 UNK         0.1400 
    101 CB        -4.1638  -23.6303  -55.6528 C.3       18 UNK        -0.1800 
    102 C         -5.7964  -22.2339  -54.2800 C.2       18 UNK         0.5000 
    103 O         -6.9948  -22.4874  -54.4074 O.2       18 UNK        -0.5000 
    104 N         -5.3189  -20.9978  -54.1169 N.am      19 UNK        -0.5000 
    105 CA        -6.0846  -19.7685  -53.9619 C.3       19 UNK         0.1400 
    106 CB        -6.4841  -19.2267  -55.3459 C.3       19 UNK        -0.1800 
    107 C         -5.2047  -18.7573  -53.2139 C.2       19 UNK         0.5000 
    108 O         -3.9802  -18.8969  -53.2164 O.2       19 UNK        -0.5000 
    109 N         -5.8214  -17.7213  -52.6315 N.am      20 UNK        -0.5000 
    110 CA        -5.1203  -16.6276  -51.9433 C.3       20 UNK         0.1400 
    111 CB        -6.1542  -15.7196  -51.2606 C.3       20 UNK        -0.1800 
    112 C         -4.2091  -15.8024  -52.8770 C.2       20 UNK         0.5000 
    113 O         -3.1737  -15.2986  -52.4426 O.2       20 UNK        -0.5000 
    114 N         -4.6024  -15.7150  -54.1542 N.am      21 UNK        -0.5000 
    115 CA        -3.8408  -15.0882  -55.2343 C.3       21 UNK         0.1400 
    116 CB        -4.8375  -14.5466  -56.2729 C.3       21 UNK        -0.1800 
    117 C         -2.8292  -16.0468  -55.8998 C.2       21 UNK         0.5000 
    118 O         -2.1040  -15.6098  -56.7948 O.2       21 UNK        -0.5000 
    119 N         -2.8003  -17.3190  -55.4724 N.am      22 UNK        -0.5000 
    120 CA        -2.0212  -18.4329  -56.0411 C.3       22 UNK         0.1400 
    121 C         -2.4871  -18.8629  -57.4669 C.2       22 UNK         0.5000 
    122 N         -1.9144  -19.9252  -58.0181 N.am      22 UNK        -0.7600 
    123 O         -3.3848  -18.2813  -58.0730 O.2       22 UNK        -0.5000 
    124 C124       -0.4798  -18.2078  -55.9341 C.3       23 UNK        -0.0398 
    125 S125        0.2183  -18.7914  -54.3549 S.3       23 UNK        -0.2404 
    126 C126       -0.4221  -17.5607  -53.1777 C.3       23 UNK        -0.0205 
    127 H127       -3.4023  -17.9659  -47.9042 H         1 UNK         0.0600 
    128 H128       -2.5865  -18.2740  -49.4411 H         1 UNK         0.0600 
    129 H129       -1.6404  -18.0088  -47.9667 H         1 UNK         0.0600 
    130 H130       -0.4946  -16.1640  -48.7688 H         1 UNK         0.3000 
    131 H131       -1.6938  -13.9338  -50.0168 H         1 UNK         0.0600 
    132 H132        0.5529  -12.7888  -49.4311 H         1 UNK         0.0800 
    133 H133        0.5896  -14.1587  -50.4692 H         1 UNK         0.0800 
    134 H134        3.3196  -16.2227  -48.8923 H         1 UNK         0.0800 
    135 H135        2.9440  -15.1902  -50.2452 H         1 UNK         0.0800 
    136 H136        1.2492  -15.8484  -51.8707 H         1 UNK         0.1150 
    137 H137       -0.6778  -19.6355  -51.4684 H         1 UNK         0.1150 
    138 H138        1.8192  -18.1473  -48.3092 H         1 UNK         0.1150 
    139 H139       -0.6618  -20.2315  -48.4706 H         1 UNK         0.0800 
    140 H140        0.0784  -21.1490  -49.7684 H         1 UNK         0.0800 
    141 H141        1.1268  -23.0488  -48.9470 H         1 UNK         0.0800 
    142 H142        2.3692  -23.1374  -47.7501 H         1 UNK         0.0800 
    143 H143        0.5969  -24.4157  -46.9480 H         1 UNK         0.0600 
    144 H144        1.1789  -22.1027  -45.3452 H         1 UNK         0.3000 
    145 H145       -0.1544  -23.7316  -42.3603 H         1 UNK         0.0600 
    146 H146        2.0951  -23.0665  -41.6013 H         1 UNK         0.0600 
    147 H147        2.2058  -24.4093  -42.7274 H         1 UNK         0.0600 
    148 H148        2.6128  -22.7864  -43.2616 H         1 UNK         0.0600 
    149 H149        0.8211  -21.0983  -42.6206 H         1 UNK         0.3000 
    150 H150       -2.3308  -19.5097  -43.3005 H         1 UNK         0.0600 
    151 H151       -2.2676  -19.8960  -40.8396 H         1 UNK         0.0600 
    152 H152       -1.6570  -18.2958  -41.2377 H         1 UNK         0.0600 
    153 H153       -0.5357  -19.5875  -40.8162 H         1 UNK         0.0600 
    154 H154        0.2446  -18.4032  -42.8919 H         1 UNK         0.3000 
    155 H155        1.4622  -18.6589  -46.2311 H         1 UNK         0.0600 
    156 H156        1.7999  -16.2295  -45.7170 H         1 UNK         0.0600 
    157 H157        0.5445  -16.3204  -44.4829 H         1 UNK         0.0600 
    158 H158        0.1405  -16.5894  -46.1693 H         1 UNK         0.0600 
    159 H159        2.5744  -17.7164  -43.7627 H         1 UNK         0.3000 
    160 H160        4.2167  -20.7554  -42.8649 H         1 UNK         0.0600 
    161 H161        5.3031  -18.1290  -44.0192 H         1 UNK         0.0600 
    162 H162        5.6564  -19.7384  -44.6363 H         1 UNK         0.0600 
    163 H163        6.2017  -19.2808  -43.0306 H         1 UNK         0.0600 
    164 H164        4.2488  -18.0985  -41.7820 H         1 UNK         0.3000 
    165 H165        1.4523  -18.4534  -39.6134 H         1 UNK         0.0600 
    166 H166        4.4559  -18.3409  -39.0040 H         1 UNK         0.0600 
    167 H167        3.1534  -17.8764  -37.9088 H         1 UNK         0.0600 
    168 H168        3.3376  -19.5543  -38.3930 H         1 UNK         0.0600 
    169 H169        3.2793  -16.3213  -39.9065 H         1 UNK         0.3000 
    170 H170        2.3027  -14.3083  -40.8061 H         1 UNK         0.0600 
    171 H171        4.2952  -15.2246  -42.0262 H         1 UNK         0.0600 
    172 H172        3.3430  -15.3778  -43.4982 H         1 UNK         0.0600 
    173 H173        3.6892  -13.7859  -42.8262 H         1 UNK         0.0600 
    174 H174        1.2376  -14.1378  -43.4769 H         1 UNK         0.3000 
    175 H175       -1.5728  -14.3207  -43.5306 H         1 UNK         0.0600 
    176 H176       -3.0567  -12.3482  -43.1250 H         1 UNK         0.0600 
    177 H177       -2.8792  -13.3363  -41.6846 H         1 UNK         0.0600 
    178 H178       -2.0007  -11.8180  -41.8170 H         1 UNK         0.0600 
    179 H179       -0.7909  -12.9205  -45.0456 H         1 UNK         0.3000 
    180 H180        0.5724   -9.6725  -45.0195 H         1 UNK         0.0600 
    181 H181        2.2444  -10.6257  -46.5926 H         1 UNK         0.0600 
    182 H182        2.6646  -11.0520  -44.9414 H         1 UNK         0.0600 
    183 H183        1.9237  -12.2529  -45.9927 H         1 UNK         0.0600 
    184 H184       -0.1170  -11.4819  -47.1203 H         1 UNK         0.3000 
    185 H185       -3.5085  -11.4933  -47.0005 H         1 UNK         0.0600 
    186 H186       -3.7916  -10.1831  -49.0886 H         1 UNK         0.0600 
    187 H187       -3.5624   -9.1000  -47.7275 H         1 UNK         0.0600 
    188 H188       -2.2314   -9.3976  -48.8387 H         1 UNK         0.0600 
    189 H189       -1.9635  -11.8135  -49.3099 H         1 UNK         0.3000 
    190 H190       -1.3725  -21.6336  -46.0584 H         1 UNK         0.3000 
    191 H191       -3.5174  -22.1704  -47.8944 H         1 UNK         0.0600 
    192 H192       -4.8362  -20.7237  -46.3733 H         1 UNK         0.0600 
    193 H193       -3.2742  -20.0001  -46.7260 H         1 UNK         0.0600 
    194 H194       -3.5530  -20.7721  -45.1707 H         1 UNK         0.0600 
    195 H195       -2.9804  -23.1194  -44.4450 H         1 UNK         0.3000 
    196 H196       -5.3124  -24.6821  -44.1582 H         1 UNK         0.0600 
    197 H197       -4.1359  -25.5684  -42.1278 H         1 UNK         0.0600 
    198 H198       -4.0203  -23.8193  -42.2396 H         1 UNK         0.0600 
    199 H199       -2.6367  -24.8228  -42.6717 H         1 UNK         0.0600 
    200 H200       -2.0525  -25.6022  -45.2747 H         1 UNK         0.3000 
    201 H201       -2.5706  -28.4193  -45.5292 H         1 UNK         0.0600 
    202 H202       -0.2842  -27.4403  -45.3235 H         1 UNK         0.0600 
    203 H203       -0.4791  -26.6233  -46.8740 H         1 UNK         0.0600 
    204 H204       -0.4248  -28.3799  -46.8003 H         1 UNK         0.0600 
    205 H205       -3.7418  -25.7982  -47.3558 H         1 UNK         0.3000 
    206 H206       -4.7666  -25.4625  -49.2591 H         1 UNK         0.0600 
    207 H207       -6.1399  -27.4712  -48.6346 H         1 UNK         0.0600 
    208 H208       -6.0233  -27.2456  -50.3717 H         1 UNK         0.0600 
    209 H209       -5.0646  -28.4923  -49.5896 H         1 UNK         0.0600 
    210 H210       -1.8341  -25.8505  -49.1683 H         1 UNK         0.3000 
    211 H211       -1.0035  -26.7720  -51.8188 H         1 UNK         0.0600 
    212 H212        0.5052  -25.3423  -49.5615 H         1 UNK         0.0600 
    213 H213        1.2399  -26.0140  -51.0124 H         1 UNK         0.0600 
    214 H214        0.4735  -27.0805  -49.8450 H         1 UNK         0.0600 
    215 H215       -2.0734  -23.8245  -50.3233 H         1 UNK         0.3000 
    216 H216       -0.9965  -21.8514  -52.0067 H         1 UNK         0.0600 
    217 H217       -2.8891  -20.4666  -51.1362 H         1 UNK         0.0600 
    218 H218       -2.2279  -21.4387  -49.8306 H         1 UNK         0.0600 
    219 H219       -3.7339  -21.9088  -50.5974 H         1 UNK         0.0600 
    220 H220       -3.8574  -23.8698  -52.4290 H         1 UNK         0.3000 
    221 H221       -5.3307  -24.2929  -53.9918 H         1 UNK         0.0600 
    222 H222       -3.6423  -22.7500  -56.0294 H         1 UNK         0.0600 
    223 H223       -3.4563  -24.4593  -55.6370 H         1 UNK         0.0600 
    224 H224       -4.9407  -23.8781  -56.3768 H         1 UNK         0.0600 
    225 H225       -4.3130  -20.8783  -54.0117 H         1 UNK         0.3000 
    226 H226       -6.9765  -19.9671  -53.3642 H         1 UNK         0.0600 
    227 H227       -7.0587  -18.3041  -55.2580 H         1 UNK         0.0600 
    228 H228       -5.6085  -19.0129  -55.9611 H         1 UNK         0.0600 
    229 H229       -7.1039  -19.9419  -55.8868 H         1 UNK         0.0600 
    230 H230       -6.8291  -17.6611  -52.6663 H         1 UNK         0.3000 
    231 H231       -4.4857  -17.0690  -51.1722 H         1 UNK         0.0600 
    232 H232       -5.6644  -14.9004  -50.7324 H         1 UNK         0.0600 
    233 H233       -6.7396  -16.2722  -50.5257 H         1 UNK         0.0600 
    234 H234       -6.8441  -15.2794  -51.9815 H         1 UNK         0.0600 
    235 H235       -5.4703  -16.1582  -54.4166 H         1 UNK         0.3000 
    236 H236       -3.2749  -14.2443  -54.8341 H         1 UNK         0.0600 
    237 H237       -5.4179  -15.3496  -56.7292 H         1 UNK         0.0600 
    238 H238       -5.5353  -13.8415  -55.8206 H         1 UNK         0.0600 
    239 H239       -4.3210  -14.0187  -57.0755 H         1 UNK         0.0600 
    240 H240       -3.4072  -17.5851  -54.7073 H         1 UNK         0.3000 
    241 H241       -2.2837  -19.2891  -55.4198 H         1 UNK         0.0600 
    242 H242       -2.2167  -20.2219  -58.9330 H         1 UNK         0.3800 
    243 H243       -1.2075  -20.4574  -57.5347 H         1 UNK         0.3800 
    244 H244       -0.2034  -17.1642  -56.0808 H         1 UNK         0.0800 
    245 H245        0.0606  -18.7488  -56.7114 H         1 UNK         0.0800 
    246 H246       -0.2521  -16.5560  -53.5677 H         1 UNK         0.0800 
    247 H247       -1.5013  -17.6794  -53.0772 H         1 UNK         0.0800 
@<TRIPOS>BOND
     1    1    2 1    
     2    1  127 1    
     3    1  128 1    
     4    1  129 1    
     5    2    3 2    
     6    2    4 am   BACKBONE|DICT|INTERRES
     7    4    5 1    
     8    4  130 1    
     9    5    6 1    
    10    5   65 1    
    11    5  131 1    
    12    6    7 1    
    13    6  132 1    
    14    6  133 1    
    15    7    8 1    
    16    8    9 1    
    17    8  134 1    
    18    8  135 1    
    19    9   10 ar   
    20    9   14 ar   
    21   10   11 ar   
    22   10  136 1    
    23   11   12 ar   
    24   11  126 1    
    25   12   13 ar   
    26   12  137 1    
    27   13   14 ar   
    28   13   15 1    
    29   14  138 1    
    30   15   16 1    
    31   15  139 1    
    32   15  140 1    
    33   16   17 1    
    34   17   18 1    
    35   17  141 1    
    36   17  142 1    
    37   18   19 1    
    38   18   67 1    
    39   18  143 1    
    40   19   20 am   BACKBONE|DICT|INTERRES
    41   19  144 1    
    42   20   21 2    
    43   20   22 1    
    44   22   23 1    
    45   22   24 1    
    46   22  145 1    
    47   23  146 1    
    48   23  147 1    
    49   23  148 1    
    50   24   25 am   BACKBONE|DICT|INTERRES
    51   24  149 1    
    52   25   26 2    
    53   25   27 1    
    54   27   28 1    
    55   27   29 1    
    56   27  150 1    
    57   28  151 1    
    58   28  152 1    
    59   28  153 1    
    60   29   30 am   BACKBONE|DICT|INTERRES
    61   29  154 1    
    62   30   31 2    
    63   30   32 1    
    64   32   33 1    
    65   32   34 1    
    66   32  155 1    
    67   33  156 1    
    68   33  157 1    
    69   33  158 1    
    70   34   35 am   BACKBONE|DICT|INTERRES
    71   34  159 1    
    72   35   36 2    
    73   35   37 1    
    74   37   38 1    
    75   37   39 1    
    76   37  160 1    
    77   38  161 1    
    78   38  162 1    
    79   38  163 1    
    80   39   40 am   BACKBONE|DICT|INTERRES
    81   39  164 1    
    82   40   41 2    
    83   40   42 1    
    84   42   43 1    
    85   42   44 1    
    86   42  165 1    
    87   43  166 1    
    88   43  167 1    
    89   43  168 1    
    90   44   45 am   BACKBONE|DICT|INTERRES
    91   44  169 1    
    92   45   46 2    
    93   45   47 1    
    94   47   48 1    
    95   47   49 1    
    96   47  170 1    
    97   48  171 1    
    98   48  172 1    
    99   48  173 1    
   100   49   50 am   BACKBONE|DICT|INTERRES
   101   49  174 1    
   102   50   51 2    
   103   50   52 1    
   104   52   53 1    
   105   52   54 1    
   106   52  175 1    
   107   53  176 1    
   108   53  177 1    
   109   53  178 1    
   110   54   55 am   BACKBONE|DICT|INTERRES
   111   54  179 1    
   112   55   56 2    
   113   55   57 1    
   114   57   58 1    
   115   57   59 1    
   116   57  180 1    
   117   58  181 1    
   118   58  182 1    
   119   58  183 1    
   120   59   60 am   BACKBONE|DICT|INTERRES
   121   59  184 1    
   122   60   61 2    
   123   60   62 1    
   124   62   63 1    
   125   62   64 1    
   126   62  185 1    
   127   63  186 1    
   128   63  187 1    
   129   63  188 1    
   130   64   65 am   BACKBONE|DICT|INTERRES
   131   64  189 1    
   132   65   66 2    
   133   67   68 2    
   134   67   69 am   BACKBONE|DICT|INTERRES
   135   69   70 1    
   136   69  190 1    
   137   70   71 1    
   138   70   72 1    
   139   70  191 1    
   140   71  192 1    
   141   71  193 1    
   142   71  194 1    
   143   72   73 2    
   144   72   74 am   BACKBONE|DICT|INTERRES
   145   74   75 1    
   146   74  195 1    
   147   75   76 1    
   148   75   77 1    
   149   75  196 1    
   150   76  197 1    
   151   76  198 1    
   152   76  199 1    
   153   77   78 2    
   154   77   79 am   BACKBONE|DICT|INTERRES
   155   79   80 1    
   156   79  200 1    
   157   80   81 1    
   158   80   82 1    
   159   80  201 1    
   160   81  202 1    
   161   81  203 1    
   162   81  204 1    
   163   82   83 2    
   164   82   84 am   BACKBONE|DICT|INTERRES
   165   84   85 1    
   166   84  205 1    
   167   85   86 1    
   168   85   87 1    
   169   85  206 1    
   170   86  207 1    
   171   86  208 1    
   172   86  209 1    
   173   87   88 2    
   174   87   89 am   BACKBONE|DICT|INTERRES
   175   89   90 1    
   176   89  210 1    
   177   90   91 1    
   178   90   92 1    
   179   90  211 1    
   180   91  212 1    
   181   91  213 1    
   182   91  214 1    
   183   92   93 2    
   184   92   94 am   BACKBONE|DICT|INTERRES
   185   94   95 1    
   186   94  215 1    
   187   95   96 1    
   188   95   97 1    
   189   95  216 1    
   190   96  217 1    
   191   96  218 1    
   192   96  219 1    
   193   97   98 2    
   194   97   99 am   BACKBONE|DICT|INTERRES
   195   99  100 1    
   196   99  220 1    
   197  100  101 1    
   198  100  102 1    
   199  100  221 1    
   200  101  222 1    
   201  101  223 1    
   202  101  224 1    
   203  102  103 2    
   204  102  104 am   BACKBONE|DICT|INTERRES
   205  104  105 1    
   206  104  225 1    
   207  105  106 1    
   208  105  107 1    
   209  105  226 1    
   210  106  227 1    
   211  106  228 1    
   212  106  229 1    
   213  107  108 2    
   214  107  109 am   BACKBONE|DICT|INTERRES
   215  109  110 1    
   216  109  230 1    
   217  110  111 1    
   218  110  112 1    
   219  110  231 1    
   220  111  232 1    
   221  111  233 1    
   222  111  234 1    
   223  112  113 2    
   224  112  114 am   BACKBONE|DICT|INTERRES
   225  114  115 1    
   226  114  235 1    
   227  115  116 1    
   228  115  117 1    
   229  115  236 1    
   230  116  237 1    
   231  116  238 1    
   232  116  239 1    
   233  117  118 2    
   234  117  119 am   BACKBONE|DICT|INTERRES
   235  119  120 1    
   236  119  240 1    
   237  120  121 1    
   238  120  124 1    
   239  120  241 1    
   240  121  122 am   BACKBONE|DICT|INTERRES
   241  121  123 2    
   242  122  242 1    
   243  122  243 1    
   244  124  125 1    
   245  124  244 1    
   246  124  245 1    
   247  125  126 1    
   248  126  246 1    
   249  126  247 1    
@<TRIPOS>SUBSTRUCTURE
     1 UNK         1 GROUP             0       ****    0 ROOT    
