@<TRIPOS>MOLECULE
3R540
247   249    1
SMALL
USER_CHARGES


@<TRIPOS>ATOM
      1 CA         -0.5132  -14.1355  -48.5233 C.3       0 UNK        -0.1800 
      2 C           0.9818  -14.2194  -48.7890 C.2       0 UNK         0.5000 
      3 O           1.6167  -13.1925  -49.0264 O.2       0 UNK        -0.5000 
      4 N           1.5578  -15.4281  -48.7136 N.am      1 UNK        -0.5000 
      5 CA          2.9957  -15.6958  -48.8977 C.3       1 UNK         0.1400 
      6 C6          3.2964  -17.2190  -48.9295 C.3       23 UNK        -0.0398 
      7 S7          4.4991  -17.6906  -50.2234 S.3       23 UNK        -0.2404 
      8 C8          3.4533  -17.9029  -51.7071 C.3       23 UNK        -0.0205 
      9 C9          2.3235  -18.8952  -51.4797 C.ar      23 UNK        -0.0193 
     10 C10         1.0264  -18.4292  -51.2506 C.ar      23 UNK        -0.1150 
     11 C11         0.0029  -19.3171  -50.9139 C.ar      23 UNK        -0.0193 
     12 C12         0.2722  -20.6857  -50.8571 C.ar      23 UNK        -0.1150 
     13 C13         1.5558  -21.1692  -51.1283 C.ar      23 UNK        -0.0193 
     14 C14         2.5786  -20.2692  -51.4433 C.ar      23 UNK        -0.1150 
     15 C15         1.8350  -22.6626  -51.0390 C.3       23 UNK        -0.0205 
     16 S16         2.9906  -23.1101  -49.6970 S.3       23 UNK        -0.2404 
     17 C17         2.3544  -22.1810  -48.2575 C.3       23 UNK        -0.0398 
     18 CA          1.4251  -22.9850  -47.3176 C.3       11 UNK         0.1400 
     19 N           1.3535  -22.3131  -46.0161 N.am      11 UNK        -0.5000 
     20 C           0.6373  -22.6494  -44.9381 C.2       10 UNK         0.5000 
     21 O          -0.0937  -23.6384  -44.8941 O.2       10 UNK        -0.5000 
     22 CA          0.7034  -21.6946  -43.7256 C.3       10 UNK         0.1400 
     23 CB          1.8107  -22.1233  -42.7461 C.3       10 UNK        -0.1800 
     24 N           0.8140  -20.2641  -44.0621 N.am      10 UNK        -0.5000 
     25 C           1.8153  -19.6109  -44.6741 C.2       9 UNK         0.5000 
     26 O           2.8436  -20.1515  -45.0816 O.2       9 UNK        -0.5000 
     27 CA          1.6203  -18.1058  -44.9189 C.3       9 UNK         0.1400 
     28 CB          0.7897  -17.8832  -46.1901 C.3       9 UNK        -0.1800 
     29 N           0.9954  -17.4039  -43.7988 N.am      9 UNK        -0.5000 
     30 C           1.5616  -17.2519  -42.5917 C.2       8 UNK         0.5000 
     31 O           2.6606  -17.7143  -42.2846 O.2       8 UNK        -0.5000 
     32 CA          0.7809  -16.4266  -41.5584 C.3       8 UNK         0.1400 
     33 CB          1.0394  -14.9289  -41.7593 C.3       8 UNK        -0.1800 
     34 N          -0.6544  -16.6870  -41.6330 N.am      8 UNK        -0.5000 
     35 C          -1.2525  -17.7128  -41.0126 C.2       7 UNK         0.5000 
     36 O          -0.6679  -18.5018  -40.2693 O.2       7 UNK        -0.5000 
     37 CA         -2.7555  -17.9031  -41.2810 C.3       7 UNK         0.1400 
     38 CB         -3.5885  -16.9920  -40.3664 C.3       7 UNK        -0.1800 
     39 N          -3.1284  -17.6556  -42.6731 N.am      7 UNK        -0.5000 
     40 C          -2.6920  -18.3605  -43.7260 C.2       6 UNK         0.5000 
     41 O          -1.9011  -19.3015  -43.6517 O.2       6 UNK        -0.5000 
     42 CA         -3.2143  -17.9214  -45.1039 C.3       6 UNK         0.1400 
     43 CB         -4.5420  -18.6291  -45.4191 C.3       6 UNK        -0.1800 
     44 N          -3.4071  -16.4750  -45.2367 N.am      6 UNK        -0.5000 
     45 C          -2.4690  -15.5296  -45.0832 C.2       5 UNK         0.5000 
     46 O          -1.2963  -15.7746  -44.7860 O.2       5 UNK        -0.5000 
     47 CA         -2.9381  -14.0791  -45.3374 C.3       5 UNK         0.1400 
     48 CB         -4.3522  -13.8053  -44.7771 C.3       5 UNK        -0.1800 
     49 N          -2.0106  -13.0494  -44.8608 N.am      5 UNK        -0.5000 
     50 C          -1.5973  -12.8247  -43.6065 C.2       4 UNK         0.5000 
     51 O          -1.8979  -13.5369  -42.6459 O.2       4 UNK        -0.5000 
     52 CA         -0.7243  -11.5641  -43.4040 C.3       4 UNK         0.1400 
     53 CB         -0.1771  -11.4143  -41.9736 C.3       4 UNK        -0.1800 
     54 N           0.3947  -11.4703  -44.3454 N.am      4 UNK        -0.5000 
     55 C           0.3275  -11.0622  -45.6171 C.2       3 UNK         0.5000 
     56 O          -0.7319  -10.7869  -46.1814 O.2       3 UNK        -0.5000 
     57 CA          1.6493  -10.9617  -46.4014 C.3       3 UNK         0.1400 
     58 CB          2.4377   -9.6964  -46.0128 C.3       3 UNK        -0.1800 
     59 N           2.4870  -12.1660  -46.3386 N.am      3 UNK        -0.5000 
     60 C           3.1487  -12.6927  -45.2963 C.2       2 UNK         0.5000 
     61 O           3.1332  -12.2050  -44.1651 O.2       2 UNK        -0.5000 
     62 CA          3.9310  -13.9972  -45.5576 C.3       2 UNK         0.1400 
     63 CB          3.9823  -14.8975  -44.3126 C.3       2 UNK        -0.1800 
     64 N           3.3291  -14.7547  -46.6558 N.am      2 UNK        -0.5000 
     65 C           3.8844  -14.9757  -47.8550 C.2       1 UNK         0.5000 
     66 O           5.0214  -14.6173  -48.1623 O.2       1 UNK        -0.5000 
     67 C           0.0356  -23.2224  -47.9527 C.2       11 UNK         0.5000 
     68 O          -0.1725  -24.2467  -48.6012 O.2       11 UNK        -0.5000 
     69 N          -0.9088  -22.3066  -47.6962 N.am      12 UNK        -0.5000 
     70 CA         -2.3153  -22.3937  -48.0911 C.3       12 UNK         0.1400 
     71 CB         -3.0113  -21.0956  -47.6599 C.3       12 UNK        -0.1800 
     72 C          -3.0647  -23.6087  -47.5058 C.2       12 UNK         0.5000 
     73 O          -4.0164  -24.0793  -48.1258 O.2       12 UNK        -0.5000 
     74 N          -2.6395  -24.0972  -46.3315 N.am      13 UNK        -0.5000 
     75 CA         -3.1997  -25.2959  -45.7055 C.3       13 UNK         0.1400 
     76 CB         -2.9939  -25.2245  -44.1845 C.3       13 UNK        -0.1800 
     77 C          -2.5799  -26.5834  -46.2777 C.2       13 UNK         0.5000 
     78 O          -3.2527  -27.6143  -46.3111 O.2       13 UNK        -0.5000 
     79 N          -1.3149  -26.5055  -46.7141 N.am      14 UNK        -0.5000 
     80 CA         -0.5808  -27.6094  -47.3302 C.3       14 UNK         0.1400 
     81 CB          0.9291  -27.3353  -47.2387 C.3       14 UNK        -0.1800 
     82 C          -1.0140  -27.8371  -48.7885 C.2       14 UNK         0.5000 
     83 O          -1.2660  -28.9781  -49.1777 O.2       14 UNK        -0.5000 
     84 N          -1.1077  -26.7465  -49.5570 N.am      15 UNK        -0.5000 
     85 CA         -1.5376  -26.7247  -50.9482 C.3       15 UNK         0.1400 
     86 CB         -0.4136  -26.1293  -51.8128 C.3       15 UNK        -0.1800 
     87 C          -2.8290  -25.9027  -51.0347 C.2       15 UNK         0.5000 
     88 O          -2.7814  -24.6937  -51.2679 O.2       15 UNK        -0.5000 
     89 N          -3.9701  -26.5788  -50.8484 N.am      16 UNK        -0.5000 
     90 CA         -5.3140  -25.9887  -50.8697 C.3       16 UNK         0.1400 
     91 CB         -6.3424  -27.0724  -50.5139 C.3       16 UNK        -0.1800 
     92 C          -5.6868  -25.3046  -52.2013 C.2       16 UNK         0.5000 
     93 O          -6.4975  -24.3795  -52.2009 O.2       16 UNK        -0.5000 
     94 N          -5.0670  -25.7409  -53.3064 N.am      17 UNK        -0.5000 
     95 CA         -5.1958  -25.1280  -54.6293 C.3       17 UNK         0.1400 
     96 CB         -4.6075  -26.0827  -55.6793 C.3       17 UNK        -0.1800 
     97 C          -4.5251  -23.7421  -54.7278 C.2       17 UNK         0.5000 
     98 O          -4.9623  -22.9191  -55.5327 O.2       17 UNK        -0.5000 
     99 N          -3.4865  -23.5010  -53.9140 N.am      18 UNK        -0.5000 
    100 CA        -2.7460  -22.2386  -53.8717 C.3       18 UNK         0.1400 
    101 CB        -1.2976  -22.5184  -53.4422 C.3       18 UNK        -0.1800 
    102 C         -3.3971  -21.2030  -52.9373 C.2       18 UNK         0.5000 
    103 O         -3.0747  -20.0192  -53.0388 O.2       18 UNK        -0.5000 
    104 N         -4.3128  -21.6471  -52.0608 N.am      19 UNK        -0.5000 
    105 CA        -5.0009  -20.8406  -51.0463 C.3       19 UNK         0.1400 
    106 CB        -5.9475  -21.7359  -50.2370 C.3       19 UNK        -0.1800 
    107 C         -5.7645  -19.6211  -51.5955 C.2       19 UNK         0.5000 
    108 O         -5.9277  -18.6395  -50.8712 O.2       19 UNK        -0.5000 
    109 N         -6.1648  -19.6701  -52.8731 N.am      20 UNK        -0.5000 
    110 CA        -6.7898  -18.5695  -53.6100 C.3       20 UNK         0.1400 
    111 CB        -7.1617  -19.0639  -55.0160 C.3       20 UNK        -0.1800 
    112 C         -5.9222  -17.2950  -53.6984 C.2       20 UNK         0.5000 
    113 O         -6.4768  -16.2003  -53.7999 O.2       20 UNK        -0.5000 
    114 N         -4.5907  -17.4477  -53.6359 N.am      21 UNK        -0.5000 
    115 CA        -3.6365  -16.3370  -53.5975 C.3       21 UNK         0.1400 
    116 CB        -2.3106  -16.7985  -54.2246 C.3       21 UNK        -0.1800 
    117 C         -3.4093  -15.7852  -52.1738 C.2       21 UNK         0.5000 
    118 O         -2.8473  -14.6977  -52.0387 O.2       21 UNK        -0.5000 
    119 N         -3.8312  -16.5342  -51.1472 N.am      22 UNK        -0.5000 
    120 CA        -3.6934  -16.1845  -49.7255 C.3       22 UNK         0.1400 
    121 C         -5.0192  -15.6754  -49.0987 C.2       22 UNK         0.5000 
    122 N         -6.1814  -16.1327  -49.5455 N.am      22 UNK        -0.7600 
    123 O         -4.9888  -14.8555  -48.1859 O.2       22 UNK        -0.5000 
    124 C124       -3.1468  -17.3784  -48.9059 C.3       23 UNK        -0.0398 
    125 S125       -1.3688  -17.6819  -49.1584 S.3       23 UNK        -0.2404 
    126 C126       -1.3862  -18.7944  -50.5960 C.3       23 UNK        -0.0205 
    127 H127       -0.7395  -13.2586  -47.9169 H         1 UNK         0.0600 
    128 H128       -0.8785  -15.0124  -47.9897 H         1 UNK         0.0600 
    129 H129       -1.0518  -14.0465  -49.4663 H         1 UNK         0.0600 
    130 H130        0.9721  -16.2352  -48.5525 H         1 UNK         0.3000 
    131 H131        3.2500  -15.2690  -49.8703 H         1 UNK         0.0600 
    132 H132        3.6793  -17.5747  -47.9707 H         1 UNK         0.0800 
    133 H133        2.3848  -17.7939  -49.0734 H         1 UNK         0.0800 
    134 H134        4.0761  -18.2458  -52.5345 H         1 UNK         0.0800 
    135 H135        3.0567  -16.9314  -52.0063 H         1 UNK         0.0800 
    136 H136        0.8215  -17.3679  -51.2787 H         1 UNK         0.1150 
    137 H137       -0.5169  -21.3753  -50.5936 H         1 UNK         0.1150 
    138 H138        3.5806  -20.6350  -51.6184 H         1 UNK         0.1150 
    139 H139        0.9053  -23.2107  -50.8925 H         1 UNK         0.0800 
    140 H140        2.2438  -23.0077  -51.9895 H         1 UNK         0.0800 
    141 H141        1.8879  -21.2430  -48.5576 H         1 UNK         0.0800 
    142 H142        3.2437  -21.8781  -47.7022 H         1 UNK         0.0800 
    143 H143        1.8725  -23.9643  -47.1377 H         1 UNK         0.0600 
    144 H144        1.9592  -21.5039  -45.9002 H         1 UNK         0.3000 
    145 H145       -0.2504  -21.7954  -43.2051 H         1 UNK         0.0600 
    146 H146        1.8155  -21.4912  -41.8579 H         1 UNK         0.0600 
    147 H147        1.6586  -23.1510  -42.4137 H         1 UNK         0.0600 
    148 H148        2.8007  -22.0717  -43.1999 H         1 UNK         0.0600 
    149 H149       -0.0164  -19.7253  -43.8278 H         1 UNK         0.3000 
    150 H150        2.6073  -17.6662  -45.0779 H         1 UNK         0.0600 
    151 H151        1.2519  -18.3652  -47.0514 H         1 UNK         0.0600 
    152 H152        0.6879  -16.8226  -46.4146 H         1 UNK         0.0600 
    153 H153       -0.2119  -18.2984  -46.0899 H         1 UNK         0.0600 
    154 H154        0.1071  -16.9494  -43.9868 H         1 UNK         0.3000 
    155 H155        1.1470  -16.6953  -40.5650 H         1 UNK         0.0600 
    156 H156        0.7297  -14.5945  -42.7501 H         1 UNK         0.0600 
    157 H157        0.4963  -14.3434  -41.0178 H         1 UNK         0.0600 
    158 H158        2.0988  -14.6943  -41.6483 H         1 UNK         0.0600 
    159 H159       -1.1997  -16.0833  -42.2349 H         1 UNK         0.3000 
    160 H160       -3.0044  -18.9410  -41.0496 H         1 UNK         0.0600 
    161 H161       -3.4082  -15.9369  -40.5772 H         1 UNK         0.0600 
    162 H162       -3.3445  -17.1638  -39.3172 H         1 UNK         0.0600 
    163 H163       -4.6554  -17.1814  -40.4860 H         1 UNK         0.0600 
    164 H164       -3.7622  -16.8889  -42.8426 H         1 UNK         0.3000 
    165 H165       -2.4784  -18.2330  -45.8456 H         1 UNK         0.0600 
    166 H166       -4.8472  -18.4635  -46.4523 H         1 UNK         0.0600 
    167 H167       -4.4611  -19.7067  -45.2742 H         1 UNK         0.0600 
    168 H168       -5.3470  -18.2777  -44.7725 H         1 UNK         0.0600 
    169 H169       -4.3386  -16.1754  -45.4871 H         1 UNK         0.3000 
    170 H170       -2.9795  -13.9607  -46.4209 H         1 UNK         0.0600 
    171 H171       -5.1104  -14.3993  -45.2882 H         1 UNK         0.0600 
    172 H172       -4.4164  -14.0295  -43.7116 H         1 UNK         0.0600 
    173 H173       -4.6317  -12.7605  -44.9135 H         1 UNK         0.0600 
    174 H174       -1.6854  -12.3922  -45.5624 H         1 UNK         0.3000 
    175 H175       -1.3871  -10.7139  -43.5777 H         1 UNK         0.0600 
    176 H176        0.5937  -12.1519  -41.7576 H         1 UNK         0.0600 
    177 H177        0.2649  -10.4284  -41.8294 H         1 UNK         0.0600 
    178 H178       -0.9657  -11.5238  -41.2281 H         1 UNK         0.0600 
    179 H179        1.3144  -11.7188  -43.9905 H         1 UNK         0.3000 
    180 H180        1.3756  -10.8567  -47.4525 H         1 UNK         0.0600 
    181 H181        2.7369   -9.7030  -44.9645 H         1 UNK         0.0600 
    182 H182        1.8352   -8.8012  -46.1713 H         1 UNK         0.0600 
    183 H183        3.3382   -9.5927  -46.6181 H         1 UNK         0.0600 
    184 H184        2.5387  -12.6661  -47.2194 H         1 UNK         0.3000 
    185 H185        4.9529  -13.7052  -45.8066 H         1 UNK         0.0600 
    186 H186        4.4872  -14.4009  -43.4832 H         1 UNK         0.0600 
    187 H187        2.9801  -15.1601  -43.9794 H         1 UNK         0.0600 
    188 H188        4.5229  -15.8225  -44.5135 H         1 UNK         0.0600 
    189 H189        2.3771  -15.0587  -46.5121 H         1 UNK         0.3000 
    190 H190       -0.6506  -21.5074  -47.1376 H         1 UNK         0.3000 
    191 H191       -2.3576  -22.4728  -49.1798 H         1 UNK         0.0600 
    192 H192       -2.9592  -20.9634  -46.5791 H         1 UNK         0.0600 
    193 H193       -4.0648  -21.0956  -47.9411 H         1 UNK         0.0600 
    194 H194       -2.5466  -20.2273  -48.1216 H         1 UNK         0.0600 
    195 H195       -1.8297  -23.6877  -45.8775 H         1 UNK         0.3000 
    196 H196       -4.2752  -25.3300  -45.8931 H         1 UNK         0.0600 
    197 H197       -3.4791  -26.0659  -43.6883 H         1 UNK         0.0600 
    198 H198       -3.4216  -24.3116  -43.7698 H         1 UNK         0.0600 
    199 H199       -1.9380  -25.2539  -43.9151 H         1 UNK         0.0600 
    200 H200       -0.8462  -25.6119  -46.6744 H         1 UNK         0.3000 
    201 H201       -0.7899  -28.5230  -46.7694 H         1 UNK         0.0600 
    202 H202        1.2447  -27.2095  -46.2028 H         1 UNK         0.0600 
    203 H203        1.2152  -26.4375  -47.7870 H         1 UNK         0.0600 
    204 H204        1.5000  -28.1667  -47.6539 H         1 UNK         0.0600 
    205 H205       -0.8784  -25.8384  -49.1556 H         1 UNK         0.3000 
    206 H206       -1.7463  -27.7314  -51.3158 H         1 UNK         0.0600 
    207 H207        0.4833  -26.7473  -51.7709 H         1 UNK         0.0600 
    208 H208       -0.7169  -26.0611  -52.8582 H         1 UNK         0.0600 
    209 H209       -0.1420  -25.1278  -51.4831 H         1 UNK         0.0600 
    210 H210       -3.9190  -27.5662  -50.6425 H         1 UNK         0.3000 
    211 H211       -5.3494  -25.2204  -50.0960 H         1 UNK         0.0600 
    212 H212       -6.3330  -27.8891  -51.2368 H         1 UNK         0.0600 
    213 H213       -7.3527  -26.6615  -50.4951 H         1 UNK         0.0600 
    214 H214       -6.1465  -27.4927  -49.5272 H         1 UNK         0.0600 
    215 H215       -4.4252  -26.5150  -53.2225 H         1 UNK         0.3000 
    216 H216       -6.2586  -24.9967  -54.8438 H         1 UNK         0.0600 
    217 H217       -4.7106  -25.6698  -56.6837 H         1 UNK         0.0600 
    218 H218       -5.1213  -27.0442  -55.6707 H         1 UNK         0.0600 
    219 H219       -3.5461  -26.2662  -55.5072 H         1 UNK         0.0600 
    220 H220       -3.2189  -24.1955  -53.2257 H         1 UNK         0.3000 
    221 H221       -2.7181  -21.8034  -54.8729 H         1 UNK         0.0600 
    222 H222       -1.2437  -22.9025  -52.4238 H         1 UNK         0.0600 
    223 H223       -0.8225  -23.2462  -54.1000 H         1 UNK         0.0600 
    224 H224       -0.6987  -21.6076  -53.4806 H         1 UNK         0.0600 
    225 H225       -4.5217  -22.6355  -52.0619 H         1 UNK         0.3000 
    226 H226       -4.2363  -20.4615  -50.3685 H         1 UNK         0.0600 
    227 H227       -5.4261  -22.6030  -49.8335 H         1 UNK         0.0600 
    228 H228       -6.3743  -21.1911  -49.3939 H         1 UNK         0.0600 
    229 H229       -6.7768  -22.0965  -50.8461 H         1 UNK         0.0600 
    230 H230       -5.9751  -20.5129  -53.3956 H         1 UNK         0.3000 
    231 H231       -7.7090  -18.3018  -53.0851 H         1 UNK         0.0600 
    232 H232       -7.6525  -18.2773  -55.5908 H         1 UNK         0.0600 
    233 H233       -7.8503  -19.9077  -54.9688 H         1 UNK         0.0600 
    234 H234       -6.2807  -19.3801  -55.5763 H         1 UNK         0.0600 
    235 H235       -4.2003  -18.3802  -53.5404 H         1 UNK         0.3000 
    236 H236       -4.0190  -15.5133  -54.2040 H         1 UNK         0.0600 
    237 H237       -2.4530  -17.1027  -55.2616 H         1 UNK         0.0600 
    238 H238       -1.5738  -15.9942  -54.2214 H         1 UNK         0.0600 
    239 H239       -1.8765  -17.6419  -53.6888 H         1 UNK         0.0600 
    240 H240       -4.3519  -17.3784  -51.3447 H         1 UNK         0.3000 
    241 H241       -2.9847  -15.3628  -49.6213 H         1 UNK         0.0600 
    242 H242       -6.2108  -16.9077  -50.2012 H         1 UNK         0.3800 
    243 H243       -7.0365  -15.7928  -49.1361 H         1 UNK         0.3800 
    244 H244       -3.2601  -17.1816  -47.8424 H         1 UNK         0.0800 
    245 H245       -3.7181  -18.2858  -49.1044 H         1 UNK         0.0800 
    246 H246       -2.0703  -19.6209  -50.4104 H         1 UNK         0.0800 
    247 H247       -1.7654  -18.2615  -51.4649 H         1 UNK         0.0800 
@<TRIPOS>BOND
     1    1    2 1    
     2    1  127 1    
     3    1  128 1    
     4    1  129 1    
     5    2    3 2    
     6    2    4 am   BACKBONE|DICT|INTERRES
     7    4    5 1    
     8    4  130 1    
     9    5    6 1    
    10    5   65 1    
    11    5  131 1    
    12    6    7 1    
    13    6  132 1    
    14    6  133 1    
    15    7    8 1    
    16    8    9 1    
    17    8  134 1    
    18    8  135 1    
    19    9   10 ar   
    20    9   14 ar   
    21   10   11 ar   
    22   10  136 1    
    23   11   12 ar   
    24   11  126 1    
    25   12   13 ar   
    26   12  137 1    
    27   13   14 ar   
    28   13   15 1    
    29   14  138 1    
    30   15   16 1    
    31   15  139 1    
    32   15  140 1    
    33   16   17 1    
    34   17   18 1    
    35   17  141 1    
    36   17  142 1    
    37   18   19 1    
    38   18   67 1    
    39   18  143 1    
    40   19   20 am   BACKBONE|DICT|INTERRES
    41   19  144 1    
    42   20   21 2    
    43   20   22 1    
    44   22   23 1    
    45   22   24 1    
    46   22  145 1    
    47   23  146 1    
    48   23  147 1    
    49   23  148 1    
    50   24   25 am   BACKBONE|DICT|INTERRES
    51   24  149 1    
    52   25   26 2    
    53   25   27 1    
    54   27   28 1    
    55   27   29 1    
    56   27  150 1    
    57   28  151 1    
    58   28  152 1    
    59   28  153 1    
    60   29   30 am   BACKBONE|DICT|INTERRES
    61   29  154 1    
    62   30   31 2    
    63   30   32 1    
    64   32   33 1    
    65   32   34 1    
    66   32  155 1    
    67   33  156 1    
    68   33  157 1    
    69   33  158 1    
    70   34   35 am   BACKBONE|DICT|INTERRES
    71   34  159 1    
    72   35   36 2    
    73   35   37 1    
    74   37   38 1    
    75   37   39 1    
    76   37  160 1    
    77   38  161 1    
    78   38  162 1    
    79   38  163 1    
    80   39   40 am   BACKBONE|DICT|INTERRES
    81   39  164 1    
    82   40   41 2    
    83   40   42 1    
    84   42   43 1    
    85   42   44 1    
    86   42  165 1    
    87   43  166 1    
    88   43  167 1    
    89   43  168 1    
    90   44   45 am   BACKBONE|DICT|INTERRES
    91   44  169 1    
    92   45   46 2    
    93   45   47 1    
    94   47   48 1    
    95   47   49 1    
    96   47  170 1    
    97   48  171 1    
    98   48  172 1    
    99   48  173 1    
   100   49   50 am   BACKBONE|DICT|INTERRES
   101   49  174 1    
   102   50   51 2    
   103   50   52 1    
   104   52   53 1    
   105   52   54 1    
   106   52  175 1    
   107   53  176 1    
   108   53  177 1    
   109   53  178 1    
   110   54   55 am   BACKBONE|DICT|INTERRES
   111   54  179 1    
   112   55   56 2    
   113   55   57 1    
   114   57   58 1    
   115   57   59 1    
   116   57  180 1    
   117   58  181 1    
   118   58  182 1    
   119   58  183 1    
   120   59   60 am   BACKBONE|DICT|INTERRES
   121   59  184 1    
   122   60   61 2    
   123   60   62 1    
   124   62   63 1    
   125   62   64 1    
   126   62  185 1    
   127   63  186 1    
   128   63  187 1    
   129   63  188 1    
   130   64   65 am   BACKBONE|DICT|INTERRES
   131   64  189 1    
   132   65   66 2    
   133   67   68 2    
   134   67   69 am   BACKBONE|DICT|INTERRES
   135   69   70 1    
   136   69  190 1    
   137   70   71 1    
   138   70   72 1    
   139   70  191 1    
   140   71  192 1    
   141   71  193 1    
   142   71  194 1    
   143   72   73 2    
   144   72   74 am   BACKBONE|DICT|INTERRES
   145   74   75 1    
   146   74  195 1    
   147   75   76 1    
   148   75   77 1    
   149   75  196 1    
   150   76  197 1    
   151   76  198 1    
   152   76  199 1    
   153   77   78 2    
   154   77   79 am   BACKBONE|DICT|INTERRES
   155   79   80 1    
   156   79  200 1    
   157   80   81 1    
   158   80   82 1    
   159   80  201 1    
   160   81  202 1    
   161   81  203 1    
   162   81  204 1    
   163   82   83 2    
   164   82   84 am   BACKBONE|DICT|INTERRES
   165   84   85 1    
   166   84  205 1    
   167   85   86 1    
   168   85   87 1    
   169   85  206 1    
   170   86  207 1    
   171   86  208 1    
   172   86  209 1    
   173   87   88 2    
   174   87   89 am   BACKBONE|DICT|INTERRES
   175   89   90 1    
   176   89  210 1    
   177   90   91 1    
   178   90   92 1    
   179   90  211 1    
   180   91  212 1    
   181   91  213 1    
   182   91  214 1    
   183   92   93 2    
   184   92   94 am   BACKBONE|DICT|INTERRES
   185   94   95 1    
   186   94  215 1    
   187   95   96 1    
   188   95   97 1    
   189   95  216 1    
   190   96  217 1    
   191   96  218 1    
   192   96  219 1    
   193   97   98 2    
   194   97   99 am   BACKBONE|DICT|INTERRES
   195   99  100 1    
   196   99  220 1    
   197  100  101 1    
   198  100  102 1    
   199  100  221 1    
   200  101  222 1    
   201  101  223 1    
   202  101  224 1    
   203  102  103 2    
   204  102  104 am   BACKBONE|DICT|INTERRES
   205  104  105 1    
   206  104  225 1    
   207  105  106 1    
   208  105  107 1    
   209  105  226 1    
   210  106  227 1    
   211  106  228 1    
   212  106  229 1    
   213  107  108 2    
   214  107  109 am   BACKBONE|DICT|INTERRES
   215  109  110 1    
   216  109  230 1    
   217  110  111 1    
   218  110  112 1    
   219  110  231 1    
   220  111  232 1    
   221  111  233 1    
   222  111  234 1    
   223  112  113 2    
   224  112  114 am   BACKBONE|DICT|INTERRES
   225  114  115 1    
   226  114  235 1    
   227  115  116 1    
   228  115  117 1    
   229  115  236 1    
   230  116  237 1    
   231  116  238 1    
   232  116  239 1    
   233  117  118 2    
   234  117  119 am   BACKBONE|DICT|INTERRES
   235  119  120 1    
   236  119  240 1    
   237  120  121 1    
   238  120  124 1    
   239  120  241 1    
   240  121  122 am   BACKBONE|DICT|INTERRES
   241  121  123 2    
   242  122  242 1    
   243  122  243 1    
   244  124  125 1    
   245  124  244 1    
   246  124  245 1    
   247  125  126 1    
   248  126  246 1    
   249  126  247 1    
@<TRIPOS>SUBSTRUCTURE
     1 UNK         1 GROUP             0       ****    0 ROOT    
