@<TRIPOS>MOLECULE
3R540
247   249    1
SMALL
USER_CHARGES


@<TRIPOS>ATOM
      1 CA          6.9856  -15.6838  -45.2115 C.3       0 UNK        -0.1800 
      2 C           5.9065  -14.6705  -44.8582 C.2       0 UNK         0.5000 
      3 O           5.7238  -14.3564  -43.6826 O.2       0 UNK        -0.5000 
      4 N           5.1906  -14.1598  -45.8681 N.am      1 UNK        -0.5000 
      5 CA          4.2266  -13.0635  -45.7307 C.3       1 UNK         0.1400 
      6 C6          3.3346  -12.9013  -46.9865 C.3       23 UNK        -0.0398 
      7 S7          2.3409  -14.3861  -47.3718 S.3       23 UNK        -0.2404 
      8 C8          3.0640  -14.8769  -48.9724 C.3       23 UNK        -0.0205 
      9 C9          2.2729  -15.9780  -49.6684 C.ar      23 UNK        -0.0193 
     10 C10         1.0257  -15.6874  -50.2303 C.ar      23 UNK        -0.1150 
     11 C11         0.3163  -16.6642  -50.9344 C.ar      23 UNK        -0.0193 
     12 C12         0.8722  -17.9364  -51.0897 C.ar      23 UNK        -0.1150 
     13 C13         2.1161  -18.2447  -50.5360 C.ar      23 UNK        -0.0193 
     14 C14         2.8093  -17.2632  -49.8172 C.ar      23 UNK        -0.1150 
     15 C15         2.7307  -19.6173  -50.7778 C.3       23 UNK        -0.0205 
     16 S16         2.4099  -20.7916  -49.4257 S.3       23 UNK        -0.2404 
     17 C17         0.6183  -21.1131  -49.5892 C.3       23 UNK        -0.0398 
     18 CA          0.1580  -22.2755  -48.6737 C.3       11 UNK         0.1400 
     19 N           0.3288  -21.9692  -47.2502 N.am      11 UNK        -0.5000 
     20 C           0.1919  -22.8466  -46.2477 C.2       10 UNK         0.5000 
     21 O          -0.0686  -24.0371  -46.4143 O.2       10 UNK        -0.5000 
     22 CA          0.3202  -22.2955  -44.8162 C.3       10 UNK         0.1400 
     23 CB          1.7934  -22.1326  -44.4122 C.3       10 UNK        -0.1800 
     24 N          -0.3864  -21.0256  -44.6456 N.am      10 UNK        -0.5000 
     25 C          -1.7203  -20.8952  -44.6756 C.2       9 UNK         0.5000 
     26 O          -2.4954  -21.8405  -44.8188 O.2       9 UNK        -0.5000 
     27 CA         -2.2816  -19.4647  -44.5703 C.3       9 UNK         0.1400 
     28 CB         -2.3210  -18.9977  -43.1078 C.3       9 UNK        -0.1800 
     29 N          -1.5205  -18.5024  -45.3651 N.am      9 UNK        -0.5000 
     30 C          -1.4111  -18.5389  -46.7007 C.2       8 UNK         0.5000 
     31 O          -1.9821  -19.3604  -47.4157 O.2       8 UNK        -0.5000 
     32 CA         -0.4489  -17.5216  -47.3334 C.3       8 UNK         0.1400 
     33 CB         -1.1571  -16.1719  -47.5154 C.3       8 UNK        -0.1800 
     34 N           0.7805  -17.3486  -46.5526 N.am      8 UNK        -0.5000 
     35 C           1.6481  -18.3362  -46.2850 C.2       7 UNK         0.5000 
     36 O           1.4799  -19.4976  -46.6418 O.2       7 UNK        -0.5000 
     37 CA          2.8794  -18.0073  -45.4278 C.3       7 UNK         0.1400 
     38 CB          4.0880  -17.6519  -46.3020 C.3       7 UNK        -0.1800 
     39 N           2.6203  -16.9533  -44.4475 N.am      7 UNK        -0.5000 
     40 C           1.8807  -17.1491  -43.3464 C.2       6 UNK         0.5000 
     41 O           1.3762  -18.2322  -43.0461 O.2       6 UNK        -0.5000 
     42 CA          1.6360  -15.9251  -42.4475 C.3       6 UNK         0.1400 
     43 CB          2.8350  -15.6790  -41.5200 C.3       6 UNK        -0.1800 
     44 N           1.3420  -14.6988  -43.1901 N.am      6 UNK        -0.5000 
     45 C           0.2838  -14.5150  -43.9904 C.2       5 UNK         0.5000 
     46 O          -0.5278  -15.4024  -44.2568 O.2       5 UNK        -0.5000 
     47 CA          0.0905  -13.0841  -44.5354 C.3       5 UNK         0.1400 
     48 CB         -1.1227  -12.9480  -45.4707 C.3       5 UNK        -0.1800 
     49 N          -0.0542  -12.1260  -43.4389 N.am      5 UNK        -0.5000 
     50 C           0.9613  -11.5763  -42.7669 C.2       4 UNK         0.5000 
     51 O           2.1489  -11.8185  -43.0120 O.2       4 UNK        -0.5000 
     52 CA          0.5927  -10.6356  -41.6114 C.3       4 UNK         0.1400 
     53 CB          0.4307  -11.4273  -40.3046 C.3       4 UNK        -0.1800 
     54 N           1.6811   -9.6810  -41.4603 N.am      4 UNK        -0.5000 
     55 C           1.5745   -8.3495  -41.5201 C.2       3 UNK         0.5000 
     56 O           0.5040   -7.7407  -41.5000 O.2       3 UNK        -0.5000 
     57 CA          2.8972   -7.5677  -41.6648 C.3       3 UNK         0.1400 
     58 CB          3.3877   -7.0778  -40.2938 C.3       3 UNK        -0.1800 
     59 N           3.9614   -8.3527  -42.3028 N.am      3 UNK        -0.5000 
     60 C           3.9404   -8.7886  -43.5712 C.2       2 UNK         0.5000 
     61 O           3.0451   -8.5097  -44.3709 O.2       2 UNK        -0.5000 
     62 CA          5.0810   -9.7133  -44.0244 C.3       2 UNK         0.1400 
     63 CB          6.1613   -9.9810  -42.9540 C.3       2 UNK        -0.1800 
     64 N           4.4959  -10.9790  -44.4580 N.am      2 UNK        -0.5000 
     65 C           4.9802  -11.7483  -45.4361 C.2       1 UNK         0.5000 
     66 O           5.9765  -11.4592  -46.1047 O.2       1 UNK        -0.5000 
     67 C          -1.2883  -22.7109  -48.9914 C.2       11 UNK         0.5000 
     68 O          -1.4785  -23.6743  -49.7345 O.2       11 UNK        -0.5000 
     69 N          -2.2796  -22.0392  -48.3864 N.am      12 UNK        -0.5000 
     70 CA         -3.6924  -22.4095  -48.4624 C.3       12 UNK         0.1400 
     71 CB         -4.5645  -21.3016  -47.8555 C.3       12 UNK        -0.1800 
     72 C          -3.9867  -23.7668  -47.8032 C.2       12 UNK         0.5000 
     73 O          -4.6977  -24.5776  -48.3966 O.2       12 UNK        -0.5000 
     74 N          -3.4110  -24.0080  -46.6164 N.am      13 UNK        -0.5000 
     75 CA         -3.5202  -25.2722  -45.8855 C.3       13 UNK         0.1400 
     76 CB         -2.9133  -25.1209  -44.4829 C.3       13 UNK        -0.1800 
     77 C          -2.8806  -26.4538  -46.6367 C.2       13 UNK         0.5000 
     78 O          -3.4820  -27.5261  -46.6963 O.2       13 UNK        -0.5000 
     79 N          -1.7065  -26.2279  -47.2433 N.am      14 UNK        -0.5000 
     80 CA         -1.0014  -27.1932  -48.0924 C.3       14 UNK         0.1400 
     81 CB          0.3827  -26.6363  -48.4576 C.3       14 UNK        -0.1800 
     82 C          -1.7886  -27.5672  -49.3639 C.2       14 UNK         0.5000 
     83 O          -1.7329  -28.7173  -49.7997 O.2       14 UNK        -0.5000 
     84 N          -2.5395  -26.6006  -49.9066 N.am      15 UNK        -0.5000 
     85 CA         -3.4651  -26.7742  -51.0267 C.3       15 UNK         0.1400 
     86 CB         -3.6108  -25.4240  -51.7450 C.3       15 UNK        -0.1800 
     87 C          -4.8486  -27.3119  -50.6005 C.2       15 UNK         0.5000 
     88 O          -5.7270  -27.4375  -51.4549 O.2       15 UNK        -0.5000 
     89 N          -5.0460  -27.5729  -49.2977 N.am      16 UNK        -0.5000 
     90 CA         -6.2824  -28.0334  -48.6515 C.3       16 UNK         0.1400 
     91 CB         -6.6023  -29.4807  -49.0787 C.3       16 UNK        -0.1800 
     92 C          -7.4799  -27.0771  -48.8511 C.2       16 UNK         0.5000 
     93 O          -8.6297  -27.5195  -48.8288 O.2       16 UNK        -0.5000 
     94 N          -7.1811  -25.7867  -49.0682 N.am      17 UNK        -0.5000 
     95 CA         -8.0947  -24.6917  -49.4063 C.3       17 UNK         0.1400 
     96 CB         -8.9838  -24.3414  -48.1957 C.3       17 UNK        -0.1800 
     97 C          -8.9093  -24.9223  -50.7016 C.2       17 UNK         0.5000 
     98 O          -9.9764  -24.3265  -50.8597 O.2       17 UNK        -0.5000 
     99 N          -8.4054  -25.7741  -51.6100 N.am      18 UNK        -0.5000 
    100 CA        -9.0812  -26.1482  -52.8564 C.3       18 UNK         0.1400 
    101 CB        -8.3911  -27.3825  -53.4559 C.3       18 UNK        -0.1800 
    102 C         -9.1332  -25.0047  -53.8868 C.2       18 UNK         0.5000 
    103 O        -10.1167  -24.8902  -54.6193 O.2       18 UNK        -0.5000 
    104 N         -8.0829  -24.1769  -53.9051 N.am      19 UNK        -0.5000 
    105 CA        -7.9429  -22.9759  -54.7261 C.3       19 UNK         0.1400 
    106 CB        -7.8006  -23.3202  -56.2230 C.3       19 UNK        -0.1800 
    107 C         -6.7333  -22.1799  -54.2239 C.2       19 UNK         0.5000 
    108 O         -6.8771  -21.0064  -53.8811 O.2       19 UNK        -0.5000 
    109 N         -5.5838  -22.8706  -54.1465 N.am      20 UNK        -0.5000 
    110 CA        -4.2663  -22.3969  -53.7061 C.3       20 UNK         0.1400 
    111 CB        -4.3352  -21.8524  -52.2636 C.3       20 UNK        -0.1800 
    112 C         -3.6200  -21.3710  -54.6583 C.2       20 UNK         0.5000 
    113 O         -4.2651  -20.8450  -55.5688 O.2       20 UNK        -0.5000 
    114 N         -2.3357  -21.0831  -54.4060 N.am      21 UNK        -0.5000 
    115 CA        -1.5404  -20.0812  -55.1256 C.3       21 UNK         0.1400 
    116 CB        -0.0785  -20.1818  -54.6623 C.3       21 UNK        -0.1800 
    117 C         -2.0642  -18.6402  -54.9533 C.2       21 UNK         0.5000 
    118 O         -1.7992  -17.7903  -55.8040 O.2       21 UNK        -0.5000 
    119 N         -2.8072  -18.4027  -53.8657 N.am      22 UNK        -0.5000 
    120 CA        -3.4932  -17.1399  -53.5596 C.3       22 UNK         0.1400 
    121 C         -4.7991  -16.9068  -54.3770 C.2       22 UNK         0.5000 
    122 N         -5.2980  -17.8728  -55.1410 N.am      22 UNK        -0.7600 
    123 O         -5.3684  -15.8202  -54.3225 O.2       22 UNK        -0.5000 
    124 C124       -3.7561  -16.9767  -52.0359 C.3       23 UNK        -0.0398 
    125 S125       -2.3533  -17.4191  -50.9476 S.3       23 UNK        -0.2404 
    126 C126       -1.0249  -16.3400  -51.5735 C.3       23 UNK        -0.0205 
    127 H127        6.8910  -16.5704  -44.5845 H         1 UNK         0.0600 
    128 H128        6.9237  -15.9948  -46.2547 H         1 UNK         0.0600 
    129 H129        7.9719  -15.2519  -45.0422 H         1 UNK         0.0600 
    130 H130        5.4083  -14.4317  -46.8149 H         1 UNK         0.3000 
    131 H131        3.5792  -13.2911  -44.8814 H         1 UNK         0.0600 
    132 H132        2.6371  -12.0736  -46.8462 H         1 UNK         0.0800 
    133 H133        3.9426  -12.6316  -47.8519 H         1 UNK         0.0800 
    134 H134        3.0985  -14.0090  -49.6326 H         1 UNK         0.0800 
    135 H135        4.0987  -15.1863  -48.8193 H         1 UNK         0.0800 
    136 H136        0.6148  -14.6930  -50.1260 H         1 UNK         0.1150 
    137 H137        0.3340  -18.6855  -51.6517 H         1 UNK         0.1150 
    138 H138        3.7803  -17.4932  -49.4028 H         1 UNK         0.1150 
    139 H139        2.3677  -20.0382  -51.7168 H         1 UNK         0.0800 
    140 H140        3.8102  -19.5121  -50.8951 H         1 UNK         0.0800 
    141 H141        0.4097  -21.3427  -50.6357 H         1 UNK         0.0800 
    142 H142        0.0705  -20.1993  -49.3528 H         1 UNK         0.0800 
    143 H143        0.7932  -23.1370  -48.8907 H         1 UNK         0.0600 
    144 H144        0.6165  -21.0168  -47.0281 H         1 UNK         0.3000 
    145 H145       -0.1322  -23.0229  -44.1392 H         1 UNK         0.0600 
    146 H146        1.8841  -21.7726  -43.3872 H         1 UNK         0.0600 
    147 H147        2.3181  -23.0869  -44.4701 H         1 UNK         0.0600 
    148 H148        2.3199  -21.4325  -45.0605 H         1 UNK         0.0600 
    149 H149        0.1817  -20.1937  -44.5656 H         1 UNK         0.3000 
    150 H150       -3.3044  -19.4797  -44.9524 H         1 UNK         0.0600 
    151 H151       -2.9045  -19.6854  -42.4944 H         1 UNK         0.0600 
    152 H152       -2.7809  -18.0131  -43.0208 H         1 UNK         0.0600 
    153 H153       -1.3212  -18.9388  -42.6760 H         1 UNK         0.0600 
    154 H154       -1.0144  -17.7849  -44.8621 H         1 UNK         0.3000 
    155 H155       -0.1611  -17.8960  -48.3170 H         1 UNK         0.0600 
    156 H156       -0.4799  -15.4090  -47.8948 H         1 UNK         0.0600 
    157 H157       -1.5846  -15.8115  -46.5810 H         1 UNK         0.0600 
    158 H158       -1.9780  -16.2601  -48.2267 H         1 UNK         0.0600 
    159 H159        0.9735  -16.4206  -46.2069 H         1 UNK         0.3000 
    160 H160        3.1375  -18.9192  -44.8844 H         1 UNK         0.0600 
    161 H161        3.9695  -16.6893  -46.7936 H         1 UNK         0.0600 
    162 H162        4.2405  -18.4018  -47.0797 H         1 UNK         0.0600 
    163 H163        4.9978  -17.6217  -45.7060 H         1 UNK         0.0600 
    164 H164        2.9927  -16.0347  -44.6368 H         1 UNK         0.3000 
    165 H165        0.7669  -16.1469  -41.8246 H         1 UNK         0.0600 
    166 H166        3.7309  -15.4128  -42.0817 H         1 UNK         0.0600 
    167 H167        2.6297  -14.8724  -40.8157 H         1 UNK         0.0600 
    168 H168        3.0664  -16.5701  -40.9350 H         1 UNK         0.0600 
    169 H169        1.9347  -13.8985  -43.0025 H         1 UNK         0.3000 
    170 H170        0.9789  -12.8303  -45.1150 H         1 UNK         0.0600 
    171 H171       -0.9863  -13.5470  -46.3697 H         1 UNK         0.0600 
    172 H172       -2.0473  -13.2700  -44.9900 H         1 UNK         0.0600 
    173 H173       -1.2557  -11.9160  -45.7958 H         1 UNK         0.0600 
    174 H174       -1.0007  -11.9157  -43.1554 H         1 UNK         0.3000 
    175 H175       -0.3436  -10.1275  -41.8518 H         1 UNK         0.0600 
    176 H176        0.1934  -10.7650  -39.4719 H         1 UNK         0.0600 
    177 H177       -0.3791  -12.1535  -40.3840 H         1 UNK         0.0600 
    178 H178        1.3393  -11.9742  -40.0484 H         1 UNK         0.0600 
    179 H179        2.6034  -10.0853  -41.5432 H         1 UNK         0.3000 
    180 H180        2.6978   -6.6954  -42.2907 H         1 UNK         0.0600 
    181 H181        3.6204   -7.9101  -39.6283 H         1 UNK         0.0600 
    182 H182        2.6284   -6.4675  -39.8029 H         1 UNK         0.0600 
    183 H183        4.2831   -6.4636  -40.3911 H         1 UNK         0.0600 
    184 H184        4.7374   -8.6203  -41.7144 H         1 UNK         0.3000 
    185 H185        5.5536   -9.2159  -44.8739 H         1 UNK         0.0600 
    186 H186        6.9622  -10.6007  -43.3580 H         1 UNK         0.0600 
    187 H187        6.6218   -9.0533  -42.6120 H         1 UNK         0.0600 
    188 H188        5.7541  -10.5006  -42.0857 H         1 UNK         0.0600 
    189 H189        3.6498  -11.2629  -43.9670 H         1 UNK         0.3000 
    190 H190       -2.0574  -21.2121  -47.8378 H         1 UNK         0.3000 
    191 H191       -3.9535  -22.4999  -49.5159 H         1 UNK         0.0600 
    192 H192       -4.4335  -20.3616  -48.3920 H         1 UNK         0.0600 
    193 H193       -5.6223  -21.5624  -47.9095 H         1 UNK         0.0600 
    194 H194       -4.3211  -21.1249  -46.8075 H         1 UNK         0.0600 
    195 H195       -2.8776  -23.2695  -46.1682 H         1 UNK         0.3000 
    196 H196       -4.5831  -25.4941  -45.7693 H         1 UNK         0.0600 
    197 H197       -3.0037  -26.0483  -43.9160 H         1 UNK         0.0600 
    198 H198       -3.4233  -24.3424  -43.9154 H         1 UNK         0.0600 
    199 H199       -1.8550  -24.8642  -44.5259 H         1 UNK         0.0600 
    200 H200       -1.2445  -25.3337  -47.0929 H         1 UNK         0.3000 
    201 H201       -0.8595  -28.1064  -47.5109 H         1 UNK         0.0600 
    202 H202        0.9772  -26.4416  -47.5648 H         1 UNK         0.0600 
    203 H203        0.3054  -25.7039  -49.0175 H         1 UNK         0.0600 
    204 H204        0.9401  -27.3443  -49.0719 H         1 UNK         0.0600 
    205 H205       -2.4912  -25.6711  -49.5063 H         1 UNK         0.3000 
    206 H206       -3.0420  -27.4912  -51.7329 H         1 UNK         0.0600 
    207 H207       -2.6433  -25.0499  -52.0801 H         1 UNK         0.0600 
    208 H208       -4.2492  -25.5107  -52.6249 H         1 UNK         0.0600 
    209 H209       -4.0503  -24.6722  -51.0899 H         1 UNK         0.0600 
    210 H210       -4.2746  -27.4086  -48.6621 H         1 UNK         0.3000 
    211 H211       -6.0807  -28.0414  -47.5797 H         1 UNK         0.0600 
    212 H212       -6.8811  -29.5392  -50.1313 H         1 UNK         0.0600 
    213 H213       -7.4303  -29.8881  -48.4977 H         1 UNK         0.0600 
    214 H214       -5.7453  -30.1358  -48.9215 H         1 UNK         0.0600 
    215 H215       -6.2017  -25.5169  -49.0006 H         1 UNK         0.3000 
    216 H216       -7.4593  -23.8277  -49.6060 H         1 UNK         0.0600 
    217 H217       -8.3818  -24.1640  -47.3044 H         1 UNK         0.0600 
    218 H218       -9.6915  -25.1395  -47.9699 H         1 UNK         0.0600 
    219 H219       -9.5607  -23.4345  -48.3801 H         1 UNK         0.0600 
    220 H220       -7.5319  -26.2484  -51.4088 H         1 UNK         0.3000 
    221 H221      -10.1101  -26.4219  -52.6131 H         1 UNK         0.0600 
    222 H222       -7.3545  -27.1740  -53.7236 H         1 UNK         0.0600 
    223 H223       -8.3931  -28.2159  -52.7528 H         1 UNK         0.0600 
    224 H224       -8.9031  -27.7166  -54.3592 H         1 UNK         0.0600 
    225 H225       -7.3505  -24.3294  -53.2261 H         1 UNK         0.3000 
    226 H226       -8.8322  -22.3570  -54.5893 H         1 UNK         0.0600 
    227 H227       -8.7160  -23.7562  -56.6221 H         1 UNK         0.0600 
    228 H228       -7.5912  -22.4248  -56.8097 H         1 UNK         0.0600 
    229 H229       -6.9902  -24.0273  -56.4018 H         1 UNK         0.0600 
    230 H230       -5.5896  -23.8108  -54.5150 H         1 UNK         0.3000 
    231 H231       -3.6214  -23.2762  -53.7078 H         1 UNK         0.0600 
    232 H232       -3.3411  -21.7778  -51.8214 H         1 UNK         0.0600 
    233 H233       -4.9283  -22.5070  -51.6261 H         1 UNK         0.0600 
    234 H234       -4.7852  -20.8596  -52.2230 H         1 UNK         0.0600 
    235 H235       -1.8665  -21.5641  -53.6526 H         1 UNK         0.3000 
    236 H236       -1.5816  -20.3184  -56.1907 H         1 UNK         0.0600 
    237 H237        0.5472  -19.4508  -55.1763 H         1 UNK         0.0600 
    238 H238        0.0176  -20.0010  -53.5917 H         1 UNK         0.0600 
    239 H239        0.3357  -21.1676  -54.8745 H         1 UNK         0.0600 
    240 H240       -2.9595  -19.1565  -53.2138 H         1 UNK         0.3000 
    241 H241       -2.8299  -16.3288  -53.8630 H         1 UNK         0.0600 
    242 H242       -4.8570  -18.7824  -55.1972 H         1 UNK         0.3800 
    243 H243       -6.1445  -17.7017  -55.6599 H         1 UNK         0.3800 
    244 H244       -4.0485  -15.9492  -51.8128 H         1 UNK         0.0800 
    245 H245       -4.5991  -17.6008  -51.7341 H         1 UNK         0.0800 
    246 H246       -0.9148  -16.4648  -52.6503 H         1 UNK         0.0800 
    247 H247       -1.3003  -15.2985  -51.4016 H         1 UNK         0.0800 
@<TRIPOS>BOND
     1    1    2 1    
     2    1  127 1    
     3    1  128 1    
     4    1  129 1    
     5    2    3 2    
     6    2    4 am   BACKBONE|DICT|INTERRES
     7    4    5 1    
     8    4  130 1    
     9    5    6 1    
    10    5   65 1    
    11    5  131 1    
    12    6    7 1    
    13    6  132 1    
    14    6  133 1    
    15    7    8 1    
    16    8    9 1    
    17    8  134 1    
    18    8  135 1    
    19    9   10 ar   
    20    9   14 ar   
    21   10   11 ar   
    22   10  136 1    
    23   11   12 ar   
    24   11  126 1    
    25   12   13 ar   
    26   12  137 1    
    27   13   14 ar   
    28   13   15 1    
    29   14  138 1    
    30   15   16 1    
    31   15  139 1    
    32   15  140 1    
    33   16   17 1    
    34   17   18 1    
    35   17  141 1    
    36   17  142 1    
    37   18   19 1    
    38   18   67 1    
    39   18  143 1    
    40   19   20 am   BACKBONE|DICT|INTERRES
    41   19  144 1    
    42   20   21 2    
    43   20   22 1    
    44   22   23 1    
    45   22   24 1    
    46   22  145 1    
    47   23  146 1    
    48   23  147 1    
    49   23  148 1    
    50   24   25 am   BACKBONE|DICT|INTERRES
    51   24  149 1    
    52   25   26 2    
    53   25   27 1    
    54   27   28 1    
    55   27   29 1    
    56   27  150 1    
    57   28  151 1    
    58   28  152 1    
    59   28  153 1    
    60   29   30 am   BACKBONE|DICT|INTERRES
    61   29  154 1    
    62   30   31 2    
    63   30   32 1    
    64   32   33 1    
    65   32   34 1    
    66   32  155 1    
    67   33  156 1    
    68   33  157 1    
    69   33  158 1    
    70   34   35 am   BACKBONE|DICT|INTERRES
    71   34  159 1    
    72   35   36 2    
    73   35   37 1    
    74   37   38 1    
    75   37   39 1    
    76   37  160 1    
    77   38  161 1    
    78   38  162 1    
    79   38  163 1    
    80   39   40 am   BACKBONE|DICT|INTERRES
    81   39  164 1    
    82   40   41 2    
    83   40   42 1    
    84   42   43 1    
    85   42   44 1    
    86   42  165 1    
    87   43  166 1    
    88   43  167 1    
    89   43  168 1    
    90   44   45 am   BACKBONE|DICT|INTERRES
    91   44  169 1    
    92   45   46 2    
    93   45   47 1    
    94   47   48 1    
    95   47   49 1    
    96   47  170 1    
    97   48  171 1    
    98   48  172 1    
    99   48  173 1    
   100   49   50 am   BACKBONE|DICT|INTERRES
   101   49  174 1    
   102   50   51 2    
   103   50   52 1    
   104   52   53 1    
   105   52   54 1    
   106   52  175 1    
   107   53  176 1    
   108   53  177 1    
   109   53  178 1    
   110   54   55 am   BACKBONE|DICT|INTERRES
   111   54  179 1    
   112   55   56 2    
   113   55   57 1    
   114   57   58 1    
   115   57   59 1    
   116   57  180 1    
   117   58  181 1    
   118   58  182 1    
   119   58  183 1    
   120   59   60 am   BACKBONE|DICT|INTERRES
   121   59  184 1    
   122   60   61 2    
   123   60   62 1    
   124   62   63 1    
   125   62   64 1    
   126   62  185 1    
   127   63  186 1    
   128   63  187 1    
   129   63  188 1    
   130   64   65 am   BACKBONE|DICT|INTERRES
   131   64  189 1    
   132   65   66 2    
   133   67   68 2    
   134   67   69 am   BACKBONE|DICT|INTERRES
   135   69   70 1    
   136   69  190 1    
   137   70   71 1    
   138   70   72 1    
   139   70  191 1    
   140   71  192 1    
   141   71  193 1    
   142   71  194 1    
   143   72   73 2    
   144   72   74 am   BACKBONE|DICT|INTERRES
   145   74   75 1    
   146   74  195 1    
   147   75   76 1    
   148   75   77 1    
   149   75  196 1    
   150   76  197 1    
   151   76  198 1    
   152   76  199 1    
   153   77   78 2    
   154   77   79 am   BACKBONE|DICT|INTERRES
   155   79   80 1    
   156   79  200 1    
   157   80   81 1    
   158   80   82 1    
   159   80  201 1    
   160   81  202 1    
   161   81  203 1    
   162   81  204 1    
   163   82   83 2    
   164   82   84 am   BACKBONE|DICT|INTERRES
   165   84   85 1    
   166   84  205 1    
   167   85   86 1    
   168   85   87 1    
   169   85  206 1    
   170   86  207 1    
   171   86  208 1    
   172   86  209 1    
   173   87   88 2    
   174   87   89 am   BACKBONE|DICT|INTERRES
   175   89   90 1    
   176   89  210 1    
   177   90   91 1    
   178   90   92 1    
   179   90  211 1    
   180   91  212 1    
   181   91  213 1    
   182   91  214 1    
   183   92   93 2    
   184   92   94 am   BACKBONE|DICT|INTERRES
   185   94   95 1    
   186   94  215 1    
   187   95   96 1    
   188   95   97 1    
   189   95  216 1    
   190   96  217 1    
   191   96  218 1    
   192   96  219 1    
   193   97   98 2    
   194   97   99 am   BACKBONE|DICT|INTERRES
   195   99  100 1    
   196   99  220 1    
   197  100  101 1    
   198  100  102 1    
   199  100  221 1    
   200  101  222 1    
   201  101  223 1    
   202  101  224 1    
   203  102  103 2    
   204  102  104 am   BACKBONE|DICT|INTERRES
   205  104  105 1    
   206  104  225 1    
   207  105  106 1    
   208  105  107 1    
   209  105  226 1    
   210  106  227 1    
   211  106  228 1    
   212  106  229 1    
   213  107  108 2    
   214  107  109 am   BACKBONE|DICT|INTERRES
   215  109  110 1    
   216  109  230 1    
   217  110  111 1    
   218  110  112 1    
   219  110  231 1    
   220  111  232 1    
   221  111  233 1    
   222  111  234 1    
   223  112  113 2    
   224  112  114 am   BACKBONE|DICT|INTERRES
   225  114  115 1    
   226  114  235 1    
   227  115  116 1    
   228  115  117 1    
   229  115  236 1    
   230  116  237 1    
   231  116  238 1    
   232  116  239 1    
   233  117  118 2    
   234  117  119 am   BACKBONE|DICT|INTERRES
   235  119  120 1    
   236  119  240 1    
   237  120  121 1    
   238  120  124 1    
   239  120  241 1    
   240  121  122 am   BACKBONE|DICT|INTERRES
   241  121  123 2    
   242  122  242 1    
   243  122  243 1    
   244  124  125 1    
   245  124  244 1    
   246  124  245 1    
   247  125  126 1    
   248  126  246 1    
   249  126  247 1    
@<TRIPOS>SUBSTRUCTURE
     1 UNK         1 GROUP             0       ****    0 ROOT    
