@<TRIPOS>MOLECULE
3R540
247   249    1
SMALL
USER_CHARGES


@<TRIPOS>ATOM
      1 CA         -6.0034  -13.5698  -44.4986 C.3       0 UNK        -0.1800 
      2 C          -4.5077  -13.5249  -44.7743 C.2       0 UNK         0.5000 
      3 O          -3.8166  -12.6407  -44.2672 O.2       0 UNK        -0.5000 
      4 N          -4.0008  -14.4847  -45.5617 N.am      1 UNK        -0.5000 
      5 CA         -2.5950  -14.5850  -45.9902 C.3       1 UNK         0.1400 
      6 C6         -2.3696  -15.6832  -47.0609 C.3       23 UNK        -0.0398 
      7 S7         -3.5310  -15.5452  -48.4615 S.3       23 UNK        -0.2404 
      8 C8         -3.5244  -17.2401  -49.1259 C.3       23 UNK        -0.0205 
      9 C9         -2.3876  -17.4635  -50.1104 C.ar      23 UNK        -0.0193 
     10 C10        -2.4578  -16.8882  -51.3819 C.ar      23 UNK        -0.1150 
     11 C11        -1.4645  -17.1369  -52.3305 C.ar      23 UNK        -0.0193 
     12 C12        -0.3948  -17.9730  -52.0008 C.ar      23 UNK        -0.1150 
     13 C13        -0.3039  -18.5504  -50.7298 C.ar      23 UNK        -0.0193 
     14 C14        -1.2992  -18.2793  -49.7814 C.ar      23 UNK        -0.1150 
     15 C15         0.8806  -19.4519  -50.3997 C.3       23 UNK        -0.0205 
     16 S16         0.3833  -21.1435  -49.9292 S.3       23 UNK        -0.2404 
     17 C17         0.6336  -21.0492  -48.1282 C.3       23 UNK        -0.0398 
     18 CA         -0.0583  -22.1617  -47.3074 C.3       11 UNK         0.1400 
     19 N           0.4479  -22.1752  -45.9321 N.am      11 UNK        -0.5000 
     20 C           0.1146  -23.0558  -44.9789 C.2       10 UNK         0.5000 
     21 O          -0.6187  -24.0248  -45.1652 O.2       10 UNK        -0.5000 
     22 CA          0.6406  -22.7677  -43.5610 C.3       10 UNK         0.1400 
     23 CB          2.0880  -23.2541  -43.3979 C.3       10 UNK        -0.1800 
     24 N           0.5534  -21.3487  -43.2121 N.am      10 UNK        -0.5000 
     25 C          -0.5926  -20.6582  -43.1201 C.2       9 UNK         0.5000 
     26 O          -1.7066  -21.1585  -43.2690 O.2       9 UNK        -0.5000 
     27 CA         -0.4685  -19.1460  -42.8677 C.3       9 UNK         0.1400 
     28 CB         -0.1476  -18.8718  -41.3877 C.3       9 UNK        -0.1800 
     29 N           0.5422  -18.5312  -43.7315 N.am      9 UNK        -0.5000 
     30 C           0.4559  -18.4575  -45.0686 C.2       8 UNK         0.5000 
     31 O          -0.5366  -18.8078  -45.7067 O.2       8 UNK        -0.5000 
     32 CA          1.7073  -17.9778  -45.8297 C.3       8 UNK         0.1400 
     33 CB          1.6958  -16.4611  -46.0495 C.3       8 UNK        -0.1800 
     34 N           2.9451  -18.3627  -45.1547 N.am      8 UNK        -0.5000 
     35 C           3.4189  -19.6152  -45.1065 C.2       7 UNK         0.5000 
     36 O           2.8793  -20.5687  -45.6658 O.2       7 UNK        -0.5000 
     37 CA          4.6747  -19.8434  -44.2452 C.3       7 UNK         0.1400 
     38 CB          5.9450  -19.5041  -45.0386 C.3       7 UNK        -0.1800 
     39 N           4.6470  -19.0557  -43.0114 N.am      7 UNK        -0.5000 
     40 C           3.7672  -19.2421  -42.0167 C.2       6 UNK         0.5000 
     41 O           2.9453  -20.1575  -42.0040 O.2       6 UNK        -0.5000 
     42 CA          3.7686  -18.2014  -40.8787 C.3       6 UNK         0.1400 
     43 CB          4.6990  -18.6475  -39.7417 C.3       6 UNK        -0.1800 
     44 N           4.1602  -16.8621  -41.3313 N.am      6 UNK        -0.5000 
     45 C           3.4541  -16.1152  -42.1905 C.2       5 UNK         0.5000 
     46 O           2.3619  -16.4532  -42.6529 O.2       5 UNK        -0.5000 
     47 CA          4.1299  -14.8293  -42.6833 C.3       5 UNK         0.1400 
     48 CB          5.2036  -15.1857  -43.7347 C.3       5 UNK        -0.1800 
     49 N           3.1286  -13.9361  -43.2623 N.am      5 UNK        -0.5000 
     50 C           3.3461  -12.6702  -43.6424 C.2       4 UNK         0.5000 
     51 O           4.4189  -12.0838  -43.4917 O.2       4 UNK        -0.5000 
     52 CA          2.1722  -11.9271  -44.3018 C.3       4 UNK         0.1400 
     53 CB          2.0070  -12.3613  -45.7669 C.3       4 UNK        -0.1800 
     54 N           0.9150  -12.1223  -43.5810 N.am      4 UNK        -0.5000 
     55 C           0.5976  -11.4817  -42.4447 C.2       3 UNK         0.5000 
     56 O           1.3371  -10.6608  -41.8998 O.2       3 UNK        -0.5000 
     57 CA         -0.7739  -11.7851  -41.8057 C.3       3 UNK         0.1400 
     58 CB         -1.7913  -10.6961  -42.1781 C.3       3 UNK        -0.1800 
     59 N          -1.3171  -13.0876  -42.1855 N.am      3 UNK        -0.5000 
     60 C          -0.8007  -14.2647  -41.8057 C.2       2 UNK         0.5000 
     61 O           0.1311  -14.3714  -41.0085 O.2       2 UNK        -0.5000 
     62 CA         -1.4070  -15.5367  -42.4310 C.3       2 UNK         0.1400 
     63 CB         -2.3659  -16.2078  -41.4345 C.3       2 UNK        -0.1800 
     64 N          -2.1212  -15.3281  -43.6923 N.am      2 UNK        -0.5000 
     65 C          -1.6200  -14.7812  -44.8098 C.2       1 UNK         0.5000 
     66 O          -0.4594  -14.3886  -44.9110 O.2       1 UNK        -0.5000 
     67 C          -1.5981  -22.0481  -47.3464 C.2       11 UNK         0.5000 
     68 O          -2.2494  -22.8781  -47.9813 O.2       11 UNK        -0.5000 
     69 N          -2.1519  -21.0679  -46.6161 N.am      12 UNK        -0.5000 
     70 CA         -3.5930  -20.8537  -46.4693 C.3       12 UNK         0.1400 
     71 CB         -3.8409  -19.5661  -45.6685 C.3       12 UNK        -0.1800 
     72 C          -4.3186  -22.0398  -45.8076 C.2       12 UNK         0.5000 
     73 O          -5.4147  -22.3958  -46.2358 O.2       12 UNK        -0.5000 
     74 N          -3.6972  -22.6415  -44.7854 N.am      13 UNK        -0.5000 
     75 CA         -4.2188  -23.8160  -44.0888 C.3       13 UNK         0.1400 
     76 CB         -3.4078  -24.0552  -42.8059 C.3       13 UNK        -0.1800 
     77 C          -4.2311  -25.0768  -44.9733 C.2       13 UNK         0.5000 
     78 O          -5.2220  -25.8083  -44.9721 O.2       13 UNK        -0.5000 
     79 N          -3.1328  -25.3117  -45.7024 N.am      14 UNK        -0.5000 
     80 CA         -2.9355  -26.4979  -46.5315 C.3       14 UNK         0.1400 
     81 CB         -1.4334  -26.6941  -46.7911 C.3       14 UNK        -0.1800 
     82 C          -3.7042  -26.4488  -47.8619 C.2       14 UNK         0.5000 
     83 O          -4.3239  -27.4466  -48.2335 O.2       14 UNK        -0.5000 
     84 N          -3.6227  -25.3151  -48.5703 N.am      15 UNK        -0.5000 
     85 CA         -4.0708  -25.1819  -49.9589 C.3       15 UNK         0.1400 
     86 CB         -2.9093  -24.6167  -50.7934 C.3       15 UNK        -0.1800 
     87 C          -5.3451  -24.3315  -50.1151 C.2       15 UNK         0.5000 
     88 O          -5.7609  -24.0924  -51.2509 O.2       15 UNK        -0.5000 
     89 N          -5.9520  -23.8999  -48.9988 N.am      16 UNK        -0.5000 
     90 CA         -7.1810  -23.1021  -48.9120 C.3       16 UNK         0.1400 
     91 CB         -8.4010  -23.9265  -49.3832 C.3       16 UNK        -0.1800 
     92 C          -7.0259  -21.7436  -49.6265 C.2       16 UNK         0.5000 
     93 O          -6.3560  -20.8556  -49.0979 O.2       16 UNK        -0.5000 
     94 N          -7.6231  -21.6112  -50.8194 N.am      17 UNK        -0.5000 
     95 CA         -7.4838  -20.4512  -51.7032 C.3       17 UNK         0.1400 
     96 CB         -8.5144  -20.5616  -52.8376 C.3       17 UNK        -0.1800 
     97 C          -6.0623  -20.2939  -52.2811 C.2       17 UNK         0.5000 
     98 O          -5.6785  -19.1772  -52.6269 O.2       17 UNK        -0.5000 
     99 N          -5.3206  -21.4105  -52.3657 N.am      18 UNK        -0.5000 
    100 CA        -3.9101  -21.5219  -52.7474 C.3       18 UNK         0.1400 
    101 CB        -3.0137  -20.8339  -51.7003 C.3       18 UNK        -0.1800 
    102 C         -3.5905  -21.0695  -54.1853 C.2       18 UNK         0.5000 
    103 O         -2.4452  -20.7226  -54.4701 O.2       18 UNK        -0.5000 
    104 N         -4.5837  -21.1234  -55.0857 N.am      19 UNK        -0.5000 
    105 CA        -4.5097  -20.6444  -56.4724 C.3       19 UNK         0.1400 
    106 CB        -5.8584  -20.8967  -57.1618 C.3       19 UNK        -0.1800 
    107 C         -3.3561  -21.2399  -57.3064 C.2       19 UNK         0.5000 
    108 O         -2.8155  -20.5525  -58.1739 O.2       19 UNK        -0.5000 
    109 N         -2.9686  -22.4846  -56.9959 N.am      20 UNK        -0.5000 
    110 CA        -1.8169  -23.1761  -57.5774 C.3       20 UNK         0.1400 
    111 CB        -1.8514  -24.6500  -57.1453 C.3       20 UNK        -0.1800 
    112 C         -0.4605  -22.5384  -57.2096 C.2       20 UNK         0.5000 
    113 O          0.4831  -22.6467  -57.9938 O.2       20 UNK        -0.5000 
    114 N         -0.3832  -21.8846  -56.0417 N.am      21 UNK        -0.5000 
    115 CA         0.7781  -21.1132  -55.6022 C.3       21 UNK         0.1400 
    116 CB         0.8568  -21.1180  -54.0660 C.3       21 UNK        -0.1800 
    117 C          0.7245  -19.6741  -56.1431 C.2       21 UNK         0.5000 
    118 O          1.7731  -19.1228  -56.4809 O.2       21 UNK        -0.5000 
    119 N         -0.4824  -19.0941  -56.2230 N.am      22 UNK        -0.5000 
    120 CA        -0.7175  -17.7465  -56.7707 C.3       22 UNK         0.1400 
    121 C         -0.4546  -17.6412  -58.2990 C.2       22 UNK         0.5000 
    122 N         -0.8339  -18.6373  -59.0904 N.am      22 UNK        -0.7600 
    123 O          0.0959  -16.6492  -58.7686 O.2       22 UNK        -0.5000 
    124 C124       -2.1249  -17.1757  -56.4398 C.3       23 UNK        -0.0398 
    125 S125       -2.7193  -17.4802  -54.7429 S.3       23 UNK        -0.2404 
    126 C126       -1.5614  -16.5259  -53.7188 C.3       23 UNK        -0.0205 
    127 H127       -6.4750  -12.6490  -44.8418 H         1 UNK         0.0600 
    128 H128       -6.1844  -13.6686  -43.4283 H         1 UNK         0.0600 
    129 H129       -6.4841  -14.4075  -45.0044 H         1 UNK         0.0600 
    130 H130       -4.6229  -15.1715  -45.9641 H         1 UNK         0.3000 
    131 H131       -2.3386  -13.6260  -46.4457 H         1 UNK         0.0600 
    132 H132       -2.4623  -16.6728  -46.6136 H         1 UNK         0.0800 
    133 H133       -1.3567  -15.6234  -47.4620 H         1 UNK         0.0800 
    134 H134       -4.4701  -17.4145  -49.6417 H         1 UNK         0.0800 
    135 H135       -3.4898  -17.9698  -48.3176 H         1 UNK         0.0800 
    136 H136       -3.3011  -16.2638  -51.6418 H         1 UNK         0.1150 
    137 H137        0.3654  -18.1782  -52.7413 H         1 UNK         0.1150 
    138 H138       -1.2455  -18.7253  -48.7991 H         1 UNK         0.1150 
    139 H139        1.5458  -19.5319  -51.2607 H         1 UNK         0.0800 
    140 H140        1.4742  -18.9895  -49.6100 H         1 UNK         0.0800 
    141 H141        0.3166  -20.0695  -47.7779 H         1 UNK         0.0800 
    142 H142        1.7111  -21.0928  -47.9662 H         1 UNK         0.0800 
    143 H143        0.2097  -23.1239  -47.7489 H         1 UNK         0.0600 
    144 H144        1.1173  -21.4500  -45.6945 H         1 UNK         0.3000 
    145 H145        0.0164  -23.3210  -42.8566 H         1 UNK         0.0600 
    146 H146        2.4412  -23.1030  -42.3776 H         1 UNK         0.0600 
    147 H147        2.7701  -22.7302  -44.0673 H         1 UNK         0.0600 
    148 H148        2.1675  -24.3198  -43.6162 H         1 UNK         0.0600 
    149 H149        1.4275  -20.8713  -43.0126 H         1 UNK         0.3000 
    150 H150       -1.4276  -18.6831  -43.1065 H         1 UNK         0.0600 
    151 H151       -1.0180  -19.0794  -40.7645 H         1 UNK         0.0600 
    152 H152        0.1403  -17.8362  -41.2132 H         1 UNK         0.0600 
    153 H153        0.6624  -19.4992  -41.0186 H         1 UNK         0.0600 
    154 H154        1.3648  -18.1480  -43.2808 H         1 UNK         0.3000 
    155 H155        1.6990  -18.4493  -46.8136 H         1 UNK         0.0600 
    156 H156        0.8117  -16.1575  -46.6091 H         1 UNK         0.0600 
    157 H157        2.5659  -16.1368  -46.6203 H         1 UNK         0.0600 
    158 H158        1.6929  -15.9154  -45.1074 H         1 UNK         0.0600 
    159 H159        3.4155  -17.6429  -44.6281 H         1 UNK         0.3000 
    160 H160        4.7089  -20.9014  -43.9764 H         1 UNK         0.0600 
    161 H161        5.9798  -18.4498  -45.3162 H         1 UNK         0.0600 
    162 H162        5.9974  -20.0880  -45.9586 H         1 UNK         0.0600 
    163 H163        6.8419  -19.7290  -44.4611 H         1 UNK         0.0600 
    164 H164        5.3049  -18.2945  -42.9383 H         1 UNK         0.3000 
    165 H165        2.7522  -18.1404  -40.4848 H         1 UNK         0.0600 
    166 H166        4.6506  -17.9578  -38.8989 H         1 UNK         0.0600 
    167 H167        4.4152  -19.6331  -39.3698 H         1 UNK         0.0600 
    168 H168        5.7377  -18.7067  -40.0692 H         1 UNK         0.0600 
    169 H169        5.0501  -16.5189  -40.9987 H         1 UNK         0.3000 
    170 H170        4.5942  -14.3324  -41.8293 H         1 UNK         0.0600 
    171 H171        4.7592  -15.6313  -44.6257 H         1 UNK         0.0600 
    172 H172        5.7671  -14.3082  -44.0503 H         1 UNK         0.0600 
    173 H173        5.9301  -15.8961  -43.3387 H         1 UNK         0.0600 
    174 H174        2.2107  -14.3492  -43.3734 H         1 UNK         0.3000 
    175 H175        2.4082  -10.8606  -44.3009 H         1 UNK         0.0600 
    176 H176        1.8177  -13.4309  -45.8560 H         1 UNK         0.0600 
    177 H177        1.1814  -11.8341  -46.2451 H         1 UNK         0.0600 
    178 H178        2.9090  -12.1428  -46.3398 H         1 UNK         0.0600 
    179 H179        0.2761  -12.8126  -43.9633 H         1 UNK         0.3000 
    180 H180       -0.6424  -11.7736  -40.7217 H         1 UNK         0.0600 
    181 H181       -2.7494  -10.8655  -41.6862 H         1 UNK         0.0600 
    182 H182       -1.9686  -10.6642  -43.2540 H         1 UNK         0.0600 
    183 H183       -1.4391   -9.7099  -41.8732 H         1 UNK         0.0600 
    184 H184       -2.0865  -13.0819  -42.8443 H         1 UNK         0.3000 
    185 H185       -0.5753  -16.2075  -42.6435 H         1 UNK         0.0600 
    186 H186       -3.2178  -15.5659  -41.2067 H         1 UNK         0.0600 
    187 H187       -2.7534  -17.1494  -41.8226 H         1 UNK         0.0600 
    188 H188       -1.8622  -16.4275  -40.4922 H         1 UNK         0.0600 
    189 H189       -3.0963  -15.5886  -43.7001 H         1 UNK         0.3000 
    190 H190       -1.5479  -20.4117  -46.1296 H         1 UNK         0.3000 
    191 H191       -4.0095  -20.7224  -47.4703 H         1 UNK         0.0600 
    192 H192       -3.3404  -18.7152  -46.1237 H         1 UNK         0.0600 
    193 H193       -3.4787  -19.6503  -44.6438 H         1 UNK         0.0600 
    194 H194       -4.9056  -19.3345  -45.6236 H         1 UNK         0.0600 
    195 H195       -2.8263  -22.2487  -44.4401 H         1 UNK         0.3000 
    196 H196       -5.2500  -23.6039  -43.7985 H         1 UNK         0.0600 
    197 H197       -3.4553  -23.1908  -42.1434 H         1 UNK         0.0600 
    198 H198       -2.3578  -24.2518  -43.0226 H         1 UNK         0.0600 
    199 H199       -3.7953  -24.9116  -42.2528 H         1 UNK         0.0600 
    200 H200       -2.3394  -24.6810  -45.6166 H         1 UNK         0.3000 
    201 H201       -3.2907  -27.3681  -45.9752 H         1 UNK         0.0600 
    202 H202       -0.8861  -26.8200  -45.8568 H         1 UNK         0.0600 
    203 H203       -1.0014  -25.8422  -47.3184 H         1 UNK         0.0600 
    204 H204       -1.2525  -27.5829  -47.3968 H         1 UNK         0.0600 
    205 H205       -3.1090  -24.5197  -48.1942 H         1 UNK         0.3000 
    206 H206       -4.3106  -26.1638  -50.3714 H         1 UNK         0.0600 
    207 H207       -2.6902  -23.5812  -50.5335 H         1 UNK         0.0600 
    208 H208       -1.9982  -25.1964  -50.6452 H         1 UNK         0.0600 
    209 H209       -3.1405  -24.6545  -51.8578 H         1 UNK         0.0600 
    210 H210       -5.5011  -24.0941  -48.1151 H         1 UNK         0.3000 
    211 H211       -7.3412  -22.8765  -47.8579 H         1 UNK         0.0600 
    212 H212       -8.3125  -24.2564  -50.4185 H         1 UNK         0.0600 
    213 H213       -9.3214  -23.3475  -49.2966 H         1 UNK         0.0600 
    214 H214       -8.5252  -24.8171  -48.7671 H         1 UNK         0.0600 
    215 H215       -8.1347  -22.4009  -51.1858 H         1 UNK         0.3000 
    216 H216       -7.7050  -19.5531  -51.1227 H         1 UNK         0.0600 
    217 H217       -8.4551  -19.7002  -53.5042 H         1 UNK         0.0600 
    218 H218       -9.5309  -20.5977  -52.4453 H         1 UNK         0.0600 
    219 H219       -8.3546  -21.4556  -53.4416 H         1 UNK         0.0600 
    220 H220       -5.7386  -22.2794  -52.0449 H         1 UNK         0.3000 
    221 H221       -3.6820  -22.5859  -52.7258 H         1 UNK         0.0600 
    222 H222       -3.1304  -19.7511  -51.7308 H         1 UNK         0.0600 
    223 H223       -3.2464  -21.1681  -50.6889 H         1 UNK         0.0600 
    224 H224       -1.9607  -21.0511  -51.8803 H         1 UNK         0.0600 
    225 H225       -5.4881  -21.4356  -54.7651 H         1 UNK         0.3000 
    226 H226       -4.3489  -19.5659  -56.4285 H         1 UNK         0.0600 
    227 H227       -6.6690  -20.3848  -56.6426 H         1 UNK         0.0600 
    228 H228       -5.8482  -20.5276  -58.1883 H         1 UNK         0.0600 
    229 H229       -6.0991  -21.9599  -57.1970 H         1 UNK         0.0600 
    230 H230       -3.4670  -22.9687  -56.2640 H         1 UNK         0.3000 
    231 H231       -1.9148  -23.1354  -58.6643 H         1 UNK         0.0600 
    232 H232       -1.7796  -24.7532  -56.0618 H         1 UNK         0.0600 
    233 H233       -1.0210  -25.2051  -57.5837 H         1 UNK         0.0600 
    234 H234       -2.7720  -25.1354  -57.4698 H         1 UNK         0.0600 
    235 H235       -1.2211  -21.7741  -55.4784 H         1 UNK         0.3000 
    236 H236        1.6881  -21.5827  -55.9819 H         1 UNK         0.0600 
    237 H237        0.0055  -20.6129  -53.6095 H         1 UNK         0.0600 
    238 H238        0.8904  -22.1346  -53.6742 H         1 UNK         0.0600 
    239 H239        1.7572  -20.6074  -53.7229 H         1 UNK         0.0600 
    240 H240       -1.2894  -19.5860  -55.8579 H         1 UNK         0.3000 
    241 H241        0.0136  -17.0906  -56.2959 H         1 UNK         0.0600 
    242 H242       -0.6633  -18.5772  -60.0814 H         1 UNK         0.3800 
    243 H243       -1.3706  -19.4171  -58.7197 H         1 UNK         0.3800 
    244 H244       -2.8710  -17.6094  -57.1082 H         1 UNK         0.0800 
    245 H245       -2.1472  -16.1004  -56.6250 H         1 UNK         0.0800 
    246 H246       -1.9011  -15.4914  -53.6535 H         1 UNK         0.0800 
    247 H247       -0.5738  -16.4994  -54.1781 H         1 UNK         0.0800 
@<TRIPOS>BOND
     1    1    2 1    
     2    1  127 1    
     3    1  128 1    
     4    1  129 1    
     5    2    3 2    
     6    2    4 am   BACKBONE|DICT|INTERRES
     7    4    5 1    
     8    4  130 1    
     9    5    6 1    
    10    5   65 1    
    11    5  131 1    
    12    6    7 1    
    13    6  132 1    
    14    6  133 1    
    15    7    8 1    
    16    8    9 1    
    17    8  134 1    
    18    8  135 1    
    19    9   10 ar   
    20    9   14 ar   
    21   10   11 ar   
    22   10  136 1    
    23   11   12 ar   
    24   11  126 1    
    25   12   13 ar   
    26   12  137 1    
    27   13   14 ar   
    28   13   15 1    
    29   14  138 1    
    30   15   16 1    
    31   15  139 1    
    32   15  140 1    
    33   16   17 1    
    34   17   18 1    
    35   17  141 1    
    36   17  142 1    
    37   18   19 1    
    38   18   67 1    
    39   18  143 1    
    40   19   20 am   BACKBONE|DICT|INTERRES
    41   19  144 1    
    42   20   21 2    
    43   20   22 1    
    44   22   23 1    
    45   22   24 1    
    46   22  145 1    
    47   23  146 1    
    48   23  147 1    
    49   23  148 1    
    50   24   25 am   BACKBONE|DICT|INTERRES
    51   24  149 1    
    52   25   26 2    
    53   25   27 1    
    54   27   28 1    
    55   27   29 1    
    56   27  150 1    
    57   28  151 1    
    58   28  152 1    
    59   28  153 1    
    60   29   30 am   BACKBONE|DICT|INTERRES
    61   29  154 1    
    62   30   31 2    
    63   30   32 1    
    64   32   33 1    
    65   32   34 1    
    66   32  155 1    
    67   33  156 1    
    68   33  157 1    
    69   33  158 1    
    70   34   35 am   BACKBONE|DICT|INTERRES
    71   34  159 1    
    72   35   36 2    
    73   35   37 1    
    74   37   38 1    
    75   37   39 1    
    76   37  160 1    
    77   38  161 1    
    78   38  162 1    
    79   38  163 1    
    80   39   40 am   BACKBONE|DICT|INTERRES
    81   39  164 1    
    82   40   41 2    
    83   40   42 1    
    84   42   43 1    
    85   42   44 1    
    86   42  165 1    
    87   43  166 1    
    88   43  167 1    
    89   43  168 1    
    90   44   45 am   BACKBONE|DICT|INTERRES
    91   44  169 1    
    92   45   46 2    
    93   45   47 1    
    94   47   48 1    
    95   47   49 1    
    96   47  170 1    
    97   48  171 1    
    98   48  172 1    
    99   48  173 1    
   100   49   50 am   BACKBONE|DICT|INTERRES
   101   49  174 1    
   102   50   51 2    
   103   50   52 1    
   104   52   53 1    
   105   52   54 1    
   106   52  175 1    
   107   53  176 1    
   108   53  177 1    
   109   53  178 1    
   110   54   55 am   BACKBONE|DICT|INTERRES
   111   54  179 1    
   112   55   56 2    
   113   55   57 1    
   114   57   58 1    
   115   57   59 1    
   116   57  180 1    
   117   58  181 1    
   118   58  182 1    
   119   58  183 1    
   120   59   60 am   BACKBONE|DICT|INTERRES
   121   59  184 1    
   122   60   61 2    
   123   60   62 1    
   124   62   63 1    
   125   62   64 1    
   126   62  185 1    
   127   63  186 1    
   128   63  187 1    
   129   63  188 1    
   130   64   65 am   BACKBONE|DICT|INTERRES
   131   64  189 1    
   132   65   66 2    
   133   67   68 2    
   134   67   69 am   BACKBONE|DICT|INTERRES
   135   69   70 1    
   136   69  190 1    
   137   70   71 1    
   138   70   72 1    
   139   70  191 1    
   140   71  192 1    
   141   71  193 1    
   142   71  194 1    
   143   72   73 2    
   144   72   74 am   BACKBONE|DICT|INTERRES
   145   74   75 1    
   146   74  195 1    
   147   75   76 1    
   148   75   77 1    
   149   75  196 1    
   150   76  197 1    
   151   76  198 1    
   152   76  199 1    
   153   77   78 2    
   154   77   79 am   BACKBONE|DICT|INTERRES
   155   79   80 1    
   156   79  200 1    
   157   80   81 1    
   158   80   82 1    
   159   80  201 1    
   160   81  202 1    
   161   81  203 1    
   162   81  204 1    
   163   82   83 2    
   164   82   84 am   BACKBONE|DICT|INTERRES
   165   84   85 1    
   166   84  205 1    
   167   85   86 1    
   168   85   87 1    
   169   85  206 1    
   170   86  207 1    
   171   86  208 1    
   172   86  209 1    
   173   87   88 2    
   174   87   89 am   BACKBONE|DICT|INTERRES
   175   89   90 1    
   176   89  210 1    
   177   90   91 1    
   178   90   92 1    
   179   90  211 1    
   180   91  212 1    
   181   91  213 1    
   182   91  214 1    
   183   92   93 2    
   184   92   94 am   BACKBONE|DICT|INTERRES
   185   94   95 1    
   186   94  215 1    
   187   95   96 1    
   188   95   97 1    
   189   95  216 1    
   190   96  217 1    
   191   96  218 1    
   192   96  219 1    
   193   97   98 2    
   194   97   99 am   BACKBONE|DICT|INTERRES
   195   99  100 1    
   196   99  220 1    
   197  100  101 1    
   198  100  102 1    
   199  100  221 1    
   200  101  222 1    
   201  101  223 1    
   202  101  224 1    
   203  102  103 2    
   204  102  104 am   BACKBONE|DICT|INTERRES
   205  104  105 1    
   206  104  225 1    
   207  105  106 1    
   208  105  107 1    
   209  105  226 1    
   210  106  227 1    
   211  106  228 1    
   212  106  229 1    
   213  107  108 2    
   214  107  109 am   BACKBONE|DICT|INTERRES
   215  109  110 1    
   216  109  230 1    
   217  110  111 1    
   218  110  112 1    
   219  110  231 1    
   220  111  232 1    
   221  111  233 1    
   222  111  234 1    
   223  112  113 2    
   224  112  114 am   BACKBONE|DICT|INTERRES
   225  114  115 1    
   226  114  235 1    
   227  115  116 1    
   228  115  117 1    
   229  115  236 1    
   230  116  237 1    
   231  116  238 1    
   232  116  239 1    
   233  117  118 2    
   234  117  119 am   BACKBONE|DICT|INTERRES
   235  119  120 1    
   236  119  240 1    
   237  120  121 1    
   238  120  124 1    
   239  120  241 1    
   240  121  122 am   BACKBONE|DICT|INTERRES
   241  121  123 2    
   242  122  242 1    
   243  122  243 1    
   244  124  125 1    
   245  124  244 1    
   246  124  245 1    
   247  125  126 1    
   248  126  246 1    
   249  126  247 1    
@<TRIPOS>SUBSTRUCTURE
     1 UNK         1 GROUP             0       ****    0 ROOT    
