@<TRIPOS>MOLECULE
3R540
247   249    1
SMALL
USER_CHARGES


@<TRIPOS>ATOM
      1 CA          1.7545   -8.5990  -48.1596 C.3       0 UNK        -0.1800 
      2 C           1.7684   -9.5655  -49.3360 C.2       0 UNK         0.5000 
      3 O           1.9609   -9.1401  -50.4756 O.2       0 UNK        -0.5000 
      4 N           1.5559  -10.8573  -49.0610 N.am      1 UNK        -0.5000 
      5 CA          1.5965  -11.9528  -50.0333 C.3       1 UNK         0.1400 
      6 C6          0.5293  -13.0311  -49.7005 C.3       23 UNK        -0.0398 
      7 S7          0.8496  -13.9432  -48.1467 S.3       23 UNK        -0.2404 
      8 C8         -0.2059  -15.4186  -48.2950 C.3       23 UNK        -0.0205 
      9 C9          0.3663  -16.4647  -49.2402 C.ar      23 UNK        -0.0193 
     10 C10         0.0948  -16.3937  -50.6067 C.ar      23 UNK        -0.1150 
     11 C11         0.6156  -17.3353  -51.4938 C.ar      23 UNK        -0.0193 
     12 C12         1.3963  -18.3831  -50.9973 C.ar      23 UNK        -0.1150 
     13 C13         1.6630  -18.4808  -49.6267 C.ar      23 UNK        -0.0193 
     14 C14         1.1466  -17.5177  -48.7531 C.ar      23 UNK        -0.1150 
     15 C15         2.5339  -19.6116  -49.0995 C.3       23 UNK        -0.0205 
     16 S16         1.6309  -21.1907  -49.0211 S.3       23 UNK        -0.2404 
     17 C17         0.5276  -20.9244  -47.5929 C.3       23 UNK        -0.0398 
     18 CA          0.2399  -22.2447  -46.8336 C.3       11 UNK         0.1400 
     19 N          -0.0478  -22.0215  -45.4175 N.am      11 UNK        -0.5000 
     20 C          -0.1820  -22.9863  -44.4970 C.2       10 UNK         0.5000 
     21 O          -0.0094  -24.1836  -44.7269 O.2       10 UNK        -0.5000 
     22 CA         -0.6445  -22.5375  -43.0998 C.3       10 UNK         0.1400 
     23 CB          0.5381  -22.0279  -42.2621 C.3       10 UNK        -0.1800 
     24 N          -1.6798  -21.5047  -43.1753 N.am      10 UNK        -0.5000 
     25 C          -2.9257  -21.7183  -43.6217 C.2       9 UNK         0.5000 
     26 O          -3.3449  -22.8209  -43.9709 O.2       9 UNK        -0.5000 
     27 CA         -3.8442  -20.4885  -43.7334 C.3       9 UNK         0.1400 
     28 CB         -4.4686  -20.1507  -42.3716 C.3       9 UNK        -0.1800 
     29 N          -3.1469  -19.3115  -44.2498 N.am      9 UNK        -0.5000 
     30 C          -2.6672  -19.1942  -45.4965 C.2       8 UNK         0.5000 
     31 O          -2.7803  -20.0617  -46.3607 O.2       8 UNK        -0.5000 
     32 CA         -1.8802  -17.9083  -45.8081 C.3       8 UNK         0.1400 
     33 CB         -2.8535  -16.7717  -46.1604 C.3       8 UNK        -0.1800 
     34 N          -1.0169  -17.4880  -44.6997 N.am      8 UNK        -0.5000 
     35 C          -0.0550  -18.2375  -44.1397 C.2       7 UNK         0.5000 
     36 O           0.2376  -19.3638  -44.5357 O.2       7 UNK        -0.5000 
     37 CA          0.6857  -17.6706  -42.9156 C.3       7 UNK         0.1400 
     38 CB          2.1335  -17.3042  -43.2725 C.3       7 UNK        -0.1800 
     39 N           0.0197  -16.5067  -42.3322 N.am      7 UNK        -0.5000 
     40 C          -1.0417  -16.5598  -41.5159 C.2       6 UNK         0.5000 
     41 O          -1.5794  -17.6103  -41.1644 O.2       6 UNK        -0.5000 
     42 CA         -1.6036  -15.2108  -41.0257 C.3       6 UNK         0.1400 
     43 CB         -0.9450  -14.8067  -39.6981 C.3       6 UNK        -0.1800 
     44 N          -1.4133  -14.1347  -42.0015 N.am      6 UNK        -0.5000 
     45 C          -2.1209  -14.0116  -43.1330 C.2       5 UNK         0.5000 
     46 O          -3.0514  -14.7564  -43.4384 O.2       5 UNK        -0.5000 
     47 CA         -1.6877  -12.8972  -44.1067 C.3       5 UNK         0.1400 
     48 CB         -2.4041  -11.5801  -43.7734 C.3       5 UNK        -0.1800 
     49 N          -0.2383  -12.6657  -44.1425 N.am      5 UNK        -0.5000 
     50 C           0.6658  -13.5854  -44.5023 C.2       4 UNK         0.5000 
     51 O           0.3771  -14.7526  -44.7776 O.2       4 UNK        -0.5000 
     52 CA          2.1364  -13.1478  -44.5245 C.3       4 UNK         0.1400 
     53 CB          2.7188  -13.1092  -43.1007 C.3       4 UNK        -0.1800 
     54 N           2.8767  -14.1074  -45.3347 N.am      4 UNK        -0.5000 
     55 C           4.0278  -13.8892  -45.9765 C.2       3 UNK         0.5000 
     56 O           4.6402  -12.8214  -45.9353 O.2       3 UNK        -0.5000 
     57 CA          4.5845  -15.0452  -46.8248 C.3       3 UNK         0.1400 
     58 CB          4.0958  -16.4406  -46.3864 C.3       3 UNK        -0.1800 
     59 N           4.2033  -14.8183  -48.2139 N.am      3 UNK        -0.5000 
     60 C           5.0349  -14.8360  -49.2634 C.2       2 UNK         0.5000 
     61 O           6.2363  -15.0955  -49.1807 O.2       2 UNK        -0.5000 
     62 CA          4.4309  -14.5138  -50.6481 C.3       2 UNK         0.1400 
     63 CB          4.2044  -15.8083  -51.4433 C.3       2 UNK        -0.1800 
     64 N           3.1649  -13.7794  -50.5786 N.am      2 UNK        -0.5000 
     65 C           3.0385  -12.5056  -50.1789 C.2       1 UNK         0.5000 
     66 O           4.0087  -11.7907  -49.9147 O.2       1 UNK        -0.5000 
     67 C          -0.8757  -23.0712  -47.5042 C.2       11 UNK         0.5000 
     68 O          -0.5758  -24.0654  -48.1606 O.2       11 UNK        -0.5000 
     69 N          -2.1415  -22.6924  -47.2742 N.am      12 UNK        -0.5000 
     70 CA         -3.3244  -23.4061  -47.7574 C.3       12 UNK         0.1400 
     71 CB         -4.5778  -22.5680  -47.4775 C.3       12 UNK        -0.1800 
     72 C          -3.4678  -24.8225  -47.1754 C.2       12 UNK         0.5000 
     73 O          -3.8923  -25.7231  -47.8971 O.2       12 UNK        -0.5000 
     74 N          -3.0899  -25.0178  -45.9056 N.am      13 UNK        -0.5000 
     75 CA         -3.0496  -26.3337  -45.2652 C.3       13 UNK         0.1400 
     76 CB         -2.8100  -26.1747  -43.7563 C.3       13 UNK        -0.1800 
     77 C          -1.9970  -27.2641  -45.8987 C.2       13 UNK         0.5000 
     78 O          -2.2761  -28.4468  -46.0975 O.2       13 UNK        -0.5000 
     79 N          -0.8228  -26.7097  -46.2297 N.am      14 UNK        -0.5000 
     80 CA          0.2663  -27.4173  -46.9026 C.3       14 UNK         0.1400 
     81 CB          1.5648  -26.6089  -46.7541 C.3       14 UNK        -0.1800 
     82 C          -0.0354  -27.7035  -48.3865 C.2       14 UNK         0.5000 
     83 O           0.2127  -28.8153  -48.8545 O.2       14 UNK        -0.5000 
     84 N          -0.5607  -26.6980  -49.0983 N.am      15 UNK        -0.5000 
     85 CA         -0.8575  -26.7444  -50.5322 C.3       15 UNK         0.1400 
     86 CB         -0.9330  -25.3052  -51.0673 C.3       15 UNK        -0.1800 
     87 C          -2.1433  -27.5164  -50.8879 C.2       15 UNK         0.5000 
     88 O          -2.3303  -27.8407  -52.0613 O.2       15 UNK        -0.5000 
     89 N          -2.9931  -27.7893  -49.8862 N.am      16 UNK        -0.5000 
     90 CA         -4.3331  -28.3763  -49.9843 C.3       16 UNK         0.1400 
     91 CB         -4.2961  -29.7981  -50.5843 C.3       16 UNK        -0.1800 
     92 C          -5.2947  -27.4179  -50.7143 C.2       16 UNK         0.5000 
     93 O          -5.7612  -27.7100  -51.8173 O.2       16 UNK        -0.5000 
     94 N          -5.5385  -26.2748  -50.0608 N.am      17 UNK        -0.5000 
     95 CA         -6.2631  -25.0912  -50.5267 C.3       17 UNK         0.1400 
     96 CB         -7.6975  -25.4330  -50.9898 C.3       17 UNK        -0.1800 
     97 C          -5.4374  -24.2930  -51.5562 C.2       17 UNK         0.5000 
     98 O          -4.2086  -24.3927  -51.5621 O.2       17 UNK        -0.5000 
     99 N          -6.1185  -23.4696  -52.3658 N.am      18 UNK        -0.5000 
    100 CA        -5.6136  -22.5907  -53.4316 C.3       18 UNK         0.1400 
    101 CB        -4.8923  -23.3934  -54.5311 C.3       18 UNK        -0.1800 
    102 C         -4.7468  -21.4110  -52.9476 C.2       18 UNK         0.5000 
    103 O         -5.0048  -20.2742  -53.3420 O.2       18 UNK        -0.5000 
    104 N         -3.7592  -21.6784  -52.0846 N.am      19 UNK        -0.5000 
    105 CA        -2.7781  -20.7071  -51.5879 C.3       19 UNK         0.1400 
    106 CB        -1.6378  -21.4509  -50.8837 C.3       19 UNK        -0.1800 
    107 C         -3.3608  -19.5992  -50.6845 C.2       19 UNK         0.5000 
    108 O         -2.6846  -18.6043  -50.4317 O.2       19 UNK        -0.5000 
    109 N         -4.6121  -19.7613  -50.2354 N.am      20 UNK        -0.5000 
    110 CA        -5.3695  -18.7168  -49.5480 C.3       20 UNK         0.1400 
    111 CB        -6.5904  -19.3469  -48.8599 C.3       20 UNK        -0.1800 
    112 C         -5.8147  -17.5834  -50.4960 C.2       20 UNK         0.5000 
    113 O         -5.9680  -16.4484  -50.0440 O.2       20 UNK        -0.5000 
    114 N         -6.0266  -17.8998  -51.7836 N.am      21 UNK        -0.5000 
    115 CA        -6.5557  -16.9673  -52.7818 C.3       21 UNK         0.1400 
    116 CB        -7.1413  -17.7587  -53.9613 C.3       21 UNK        -0.1800 
    117 C         -5.5123  -15.9520  -53.2796 C.2       21 UNK         0.5000 
    118 O         -5.8855  -14.8336  -53.6356 O.2       21 UNK        -0.5000 
    119 N         -4.2335  -16.3488  -53.2930 N.am      22 UNK        -0.5000 
    120 CA        -3.0952  -15.4965  -53.6767 C.3       22 UNK         0.1400 
    121 C         -2.5662  -14.5703  -52.5410 C.2       22 UNK         0.5000 
    122 N         -3.1415  -14.5832  -51.3437 N.am      22 UNK        -0.7600 
    123 O         -1.6266  -13.8088  -52.7532 O.2       22 UNK        -0.5000 
    124 C124       -1.9734  -16.3044  -54.3847 C.3       23 UNK        -0.0398 
    125 S125       -1.3288  -17.7230  -53.4285 S.3       23 UNK        -0.2404 
    126 C126        0.3543  -17.1870  -52.9849 C.3       23 UNK        -0.0205 
    127 H127        2.7174   -8.0946  -48.0778 H         1 UNK         0.0600 
    128 H128        1.5575   -9.1098  -47.2166 H         1 UNK         0.0600 
    129 H129        0.9830   -7.8426  -48.3039 H         1 UNK         0.0600 
    130 H130        1.4305  -11.1443  -48.1012 H         1 UNK         0.3000 
    131 H131        1.3349  -11.5531  -51.0153 H         1 UNK         0.0600 
    132 H132       -0.4521  -12.5616  -49.6201 H         1 UNK         0.0800 
    133 H133        0.4442  -13.7213  -50.5356 H         1 UNK         0.0800 
    134 H134       -0.2998  -15.8508  -47.2995 H         1 UNK         0.0800 
    135 H135       -1.2115  -15.1307  -48.6051 H         1 UNK         0.0800 
    136 H136       -0.5308  -15.6042  -50.9877 H         1 UNK         0.1150 
    137 H137        1.8024  -19.1202  -51.6754 H         1 UNK         0.1150 
    138 H138        1.3465  -17.5906  -47.6941 H         1 UNK         0.1150 
    139 H139        3.3947  -19.7341  -49.7584 H         1 UNK         0.0800 
    140 H140        2.9401  -19.3662  -48.1169 H         1 UNK         0.0800 
    141 H141       -0.3886  -20.4302  -47.9224 H         1 UNK         0.0800 
    142 H142        1.0224  -20.2184  -46.9255 H         1 UNK         0.0800 
    143 H143        1.1472  -22.8529  -46.8554 H         1 UNK         0.0600 
    144 H144       -0.1455  -21.0532  -45.1203 H         1 UNK         0.3000 
    145 H145       -1.0682  -23.4071  -42.5930 H         1 UNK         0.0600 
    146 H146        0.2186  -21.7478  -41.2582 H         1 UNK         0.0600 
    147 H147        1.2996  -22.8017  -42.1565 H         1 UNK         0.0600 
    148 H148        1.0165  -21.1601  -42.7163 H         1 UNK         0.0600 
    149 H149       -1.4016  -20.5621  -42.9469 H         1 UNK         0.3000 
    150 H150       -4.6503  -20.7365  -44.4272 H         1 UNK         0.0600 
    151 H151       -5.0036  -21.0093  -41.9635 H         1 UNK         0.0600 
    152 H152       -5.1851  -19.3337  -42.4588 H         1 UNK         0.0600 
    153 H153       -3.7124  -19.8567  -41.6422 H         1 UNK         0.0600 
    154 H154       -2.9890  -18.5537  -43.6011 H         1 UNK         0.3000 
    155 H155       -1.2402  -18.1025  -46.6711 H         1 UNK         0.0600 
    156 H156       -3.6113  -16.6363  -45.3877 H         1 UNK         0.0600 
    157 H157       -3.3733  -16.9837  -47.0953 H         1 UNK         0.0600 
    158 H158       -2.3414  -15.8179  -46.2797 H         1 UNK         0.0600 
    159 H159       -1.1476  -16.5482  -44.3510 H         1 UNK         0.3000 
    160 H160        0.7194  -18.4639  -42.1658 H         1 UNK         0.0600 
    161 H161        2.1755  -16.5246  -44.0300 H         1 UNK         0.0600 
    162 H162        2.6704  -18.1691  -43.6642 H         1 UNK         0.0600 
    163 H163        2.6798  -16.9519  -42.3975 H         1 UNK         0.0600 
    164 H164        0.3508  -15.6037  -42.6391 H         1 UNK         0.3000 
    165 H165       -2.6739  -15.3395  -40.8503 H         1 UNK         0.0600 
    166 H166       -1.3789  -13.8864  -39.3069 H         1 UNK         0.0600 
    167 H167       -1.0872  -15.5792  -38.9411 H         1 UNK         0.0600 
    168 H168        0.1288  -14.6512  -39.8108 H         1 UNK         0.0600 
    169 H169       -0.6725  -13.4737  -41.8197 H         1 UNK         0.3000 
    170 H170       -1.9941  -13.2066  -45.1085 H         1 UNK         0.0600 
    171 H171       -3.4864  -11.7163  -43.7609 H         1 UNK         0.0600 
    172 H172       -2.1099  -11.1976  -42.7952 H         1 UNK         0.0600 
    173 H173       -2.1837  -10.8123  -44.5153 H         1 UNK         0.0600 
    174 H174        0.0728  -11.7324  -43.9149 H         1 UNK         0.3000 
    175 H175        2.1976  -12.1587  -44.9830 H         1 UNK         0.0600 
    176 H176        2.6704  -14.0875  -42.6204 H         1 UNK         0.0600 
    177 H177        3.7624  -12.7944  -43.1097 H         1 UNK         0.0600 
    178 H178        2.1754  -12.4044  -42.4704 H         1 UNK         0.0600 
    179 H179        2.3787  -14.9771  -45.4771 H         1 UNK         0.3000 
    180 H180        5.6705  -15.0172  -46.7146 H         1 UNK         0.0600 
    181 H181        3.0173  -16.5523  -46.4930 H         1 UNK         0.0600 
    182 H182        4.3527  -16.6347  -45.3444 H         1 UNK         0.0600 
    183 H183        4.5658  -17.2217  -46.9843 H         1 UNK         0.0600 
    184 H184        3.2380  -14.5606  -48.3704 H         1 UNK         0.3000 
    185 H185        5.1537  -13.9002  -51.1899 H         1 UNK         0.0600 
    186 H186        5.1390  -16.3548  -51.5753 H         1 UNK         0.0600 
    187 H187        3.5080  -16.4719  -50.9313 H         1 UNK         0.0600 
    188 H188        3.8054  -15.6018  -52.4366 H         1 UNK         0.0600 
    189 H189        2.3334  -14.3178  -50.7725 H         1 UNK         0.3000 
    190 H190       -2.3148  -21.8341  -46.7563 H         1 UNK         0.3000 
    191 H191       -3.2311  -23.5180  -48.8389 H         1 UNK         0.0600 
    192 H192       -4.5086  -21.5977  -47.9674 H         1 UNK         0.0600 
    193 H193       -5.4761  -23.0607  -47.8496 H         1 UNK         0.0600 
    194 H194       -4.7152  -22.3943  -46.4100 H         1 UNK         0.0600 
    195 H195       -2.8275  -24.2188  -45.3381 H         1 UNK         0.3000 
    196 H196       -4.0275  -26.8005  -45.4008 H         1 UNK         0.0600 
    197 H197       -2.8154  -27.1444  -43.2571 H         1 UNK         0.0600 
    198 H198       -3.5893  -25.5675  -43.2955 H         1 UNK         0.0600 
    199 H199       -1.8505  -25.7036  -43.5452 H         1 UNK         0.0600 
    200 H200       -0.6618  -25.7349  -45.9996 H         1 UNK         0.3000 
    201 H201        0.4104  -28.3769  -46.4014 H         1 UNK         0.0600 
    202 H202        1.8212  -26.4667  -45.7041 H         1 UNK         0.0600 
    203 H203        1.4825  -25.6227  -47.2121 H         1 UNK         0.0600 
    204 H204        2.4019  -27.1231  -47.2279 H         1 UNK         0.0600 
    205 H205       -0.6797  -25.7911  -48.6484 H         1 UNK         0.3000 
    206 H206       -0.0302  -27.2470  -51.0372 H         1 UNK         0.0600 
    207 H207        0.0048  -24.7731  -50.9069 H         1 UNK         0.0600 
    208 H208       -1.1379  -25.2903  -52.1384 H         1 UNK         0.0600 
    209 H209       -1.7250  -24.7397  -50.5758 H         1 UNK         0.0600 
    210 H210       -2.7555  -27.4177  -48.9757 H         1 UNK         0.3000 
    211 H211       -4.6986  -28.4700  -48.9603 H         1 UNK         0.0600 
    212 H212       -3.9905  -29.7998  -51.6305 H         1 UNK         0.0600 
    213 H213       -5.2824  -30.2608  -50.5364 H         1 UNK         0.0600 
    214 H214       -3.6085  -30.4395  -50.0330 H         1 UNK         0.0600 
    215 H215       -5.0101  -26.1271  -49.2013 H         1 UNK         0.3000 
    216 H216       -6.3519  -24.4462  -49.6524 H         1 UNK         0.0600 
    217 H217       -8.3095  -24.5352  -51.0793 H         1 UNK         0.0600 
    218 H218       -8.1964  -26.0850  -50.2726 H         1 UNK         0.0600 
    219 H219       -7.7064  -25.9345  -51.9581 H         1 UNK         0.0600 
    220 H220       -7.1218  -23.4444  -52.2488 H         1 UNK         0.3000 
    221 H221       -6.5016  -22.1504  -53.8881 H         1 UNK         0.0600 
    222 H222       -3.9772  -23.8601  -54.1657 H         1 UNK         0.0600 
    223 H223       -5.5334  -24.1802  -54.9286 H         1 UNK         0.0600 
    224 H224       -4.6157  -22.7472  -55.3650 H         1 UNK         0.0600 
    225 H225       -3.6415  -22.6492  -51.8029 H         1 UNK         0.3000 
    226 H226       -2.3542  -20.2117  -52.4613 H         1 UNK         0.0600 
    227 H227       -1.1637  -22.1752  -51.5459 H         1 UNK         0.0600 
    228 H228       -0.8659  -20.7521  -50.5605 H         1 UNK         0.0600 
    229 H229       -1.9927  -21.9803  -50.0035 H         1 UNK         0.0600 
    230 H230       -5.1044  -20.6062  -50.4813 H         1 UNK         0.3000 
    231 H231       -4.7346  -18.2764  -48.7762 H         1 UNK         0.0600 
    232 H232       -7.2401  -19.8536  -49.5746 H         1 UNK         0.0600 
    233 H233       -7.1884  -18.5870  -48.3550 H         1 UNK         0.0600 
    234 H234       -6.2908  -20.0711  -48.1034 H         1 UNK         0.0600 
    235 H235       -5.8128  -18.8352  -52.1117 H         1 UNK         0.3000 
    236 H236       -7.3708  -16.4032  -52.3231 H         1 UNK         0.0600 
    237 H237       -7.8919  -18.4743  -53.6254 H         1 UNK         0.0600 
    238 H238       -7.6251  -17.0908  -54.6750 H         1 UNK         0.0600 
    239 H239       -6.3701  -18.3081  -54.5019 H         1 UNK         0.0600 
    240 H240       -4.0024  -17.2763  -52.9664 H         1 UNK         0.3000 
    241 H241       -3.4606  -14.7960  -54.4300 H         1 UNK         0.0600 
    242 H242       -2.8104  -13.9586  -50.6279 H         1 UNK         0.3800 
    243 H243       -3.9179  -15.1980  -51.1539 H         1 UNK         0.3800 
    244 H244       -2.3723  -16.7094  -55.3155 H         1 UNK         0.0800 
    245 H245       -1.1586  -15.6482  -54.6932 H         1 UNK         0.0800 
    246 H246        1.0741  -17.7717  -53.5594 H         1 UNK         0.0800 
    247 H247        0.5169  -16.1457  -53.2654 H         1 UNK         0.0800 
@<TRIPOS>BOND
     1    1    2 1    
     2    1  127 1    
     3    1  128 1    
     4    1  129 1    
     5    2    3 2    
     6    2    4 am   BACKBONE|DICT|INTERRES
     7    4    5 1    
     8    4  130 1    
     9    5    6 1    
    10    5   65 1    
    11    5  131 1    
    12    6    7 1    
    13    6  132 1    
    14    6  133 1    
    15    7    8 1    
    16    8    9 1    
    17    8  134 1    
    18    8  135 1    
    19    9   10 ar   
    20    9   14 ar   
    21   10   11 ar   
    22   10  136 1    
    23   11   12 ar   
    24   11  126 1    
    25   12   13 ar   
    26   12  137 1    
    27   13   14 ar   
    28   13   15 1    
    29   14  138 1    
    30   15   16 1    
    31   15  139 1    
    32   15  140 1    
    33   16   17 1    
    34   17   18 1    
    35   17  141 1    
    36   17  142 1    
    37   18   19 1    
    38   18   67 1    
    39   18  143 1    
    40   19   20 am   BACKBONE|DICT|INTERRES
    41   19  144 1    
    42   20   21 2    
    43   20   22 1    
    44   22   23 1    
    45   22   24 1    
    46   22  145 1    
    47   23  146 1    
    48   23  147 1    
    49   23  148 1    
    50   24   25 am   BACKBONE|DICT|INTERRES
    51   24  149 1    
    52   25   26 2    
    53   25   27 1    
    54   27   28 1    
    55   27   29 1    
    56   27  150 1    
    57   28  151 1    
    58   28  152 1    
    59   28  153 1    
    60   29   30 am   BACKBONE|DICT|INTERRES
    61   29  154 1    
    62   30   31 2    
    63   30   32 1    
    64   32   33 1    
    65   32   34 1    
    66   32  155 1    
    67   33  156 1    
    68   33  157 1    
    69   33  158 1    
    70   34   35 am   BACKBONE|DICT|INTERRES
    71   34  159 1    
    72   35   36 2    
    73   35   37 1    
    74   37   38 1    
    75   37   39 1    
    76   37  160 1    
    77   38  161 1    
    78   38  162 1    
    79   38  163 1    
    80   39   40 am   BACKBONE|DICT|INTERRES
    81   39  164 1    
    82   40   41 2    
    83   40   42 1    
    84   42   43 1    
    85   42   44 1    
    86   42  165 1    
    87   43  166 1    
    88   43  167 1    
    89   43  168 1    
    90   44   45 am   BACKBONE|DICT|INTERRES
    91   44  169 1    
    92   45   46 2    
    93   45   47 1    
    94   47   48 1    
    95   47   49 1    
    96   47  170 1    
    97   48  171 1    
    98   48  172 1    
    99   48  173 1    
   100   49   50 am   BACKBONE|DICT|INTERRES
   101   49  174 1    
   102   50   51 2    
   103   50   52 1    
   104   52   53 1    
   105   52   54 1    
   106   52  175 1    
   107   53  176 1    
   108   53  177 1    
   109   53  178 1    
   110   54   55 am   BACKBONE|DICT|INTERRES
   111   54  179 1    
   112   55   56 2    
   113   55   57 1    
   114   57   58 1    
   115   57   59 1    
   116   57  180 1    
   117   58  181 1    
   118   58  182 1    
   119   58  183 1    
   120   59   60 am   BACKBONE|DICT|INTERRES
   121   59  184 1    
   122   60   61 2    
   123   60   62 1    
   124   62   63 1    
   125   62   64 1    
   126   62  185 1    
   127   63  186 1    
   128   63  187 1    
   129   63  188 1    
   130   64   65 am   BACKBONE|DICT|INTERRES
   131   64  189 1    
   132   65   66 2    
   133   67   68 2    
   134   67   69 am   BACKBONE|DICT|INTERRES
   135   69   70 1    
   136   69  190 1    
   137   70   71 1    
   138   70   72 1    
   139   70  191 1    
   140   71  192 1    
   141   71  193 1    
   142   71  194 1    
   143   72   73 2    
   144   72   74 am   BACKBONE|DICT|INTERRES
   145   74   75 1    
   146   74  195 1    
   147   75   76 1    
   148   75   77 1    
   149   75  196 1    
   150   76  197 1    
   151   76  198 1    
   152   76  199 1    
   153   77   78 2    
   154   77   79 am   BACKBONE|DICT|INTERRES
   155   79   80 1    
   156   79  200 1    
   157   80   81 1    
   158   80   82 1    
   159   80  201 1    
   160   81  202 1    
   161   81  203 1    
   162   81  204 1    
   163   82   83 2    
   164   82   84 am   BACKBONE|DICT|INTERRES
   165   84   85 1    
   166   84  205 1    
   167   85   86 1    
   168   85   87 1    
   169   85  206 1    
   170   86  207 1    
   171   86  208 1    
   172   86  209 1    
   173   87   88 2    
   174   87   89 am   BACKBONE|DICT|INTERRES
   175   89   90 1    
   176   89  210 1    
   177   90   91 1    
   178   90   92 1    
   179   90  211 1    
   180   91  212 1    
   181   91  213 1    
   182   91  214 1    
   183   92   93 2    
   184   92   94 am   BACKBONE|DICT|INTERRES
   185   94   95 1    
   186   94  215 1    
   187   95   96 1    
   188   95   97 1    
   189   95  216 1    
   190   96  217 1    
   191   96  218 1    
   192   96  219 1    
   193   97   98 2    
   194   97   99 am   BACKBONE|DICT|INTERRES
   195   99  100 1    
   196   99  220 1    
   197  100  101 1    
   198  100  102 1    
   199  100  221 1    
   200  101  222 1    
   201  101  223 1    
   202  101  224 1    
   203  102  103 2    
   204  102  104 am   BACKBONE|DICT|INTERRES
   205  104  105 1    
   206  104  225 1    
   207  105  106 1    
   208  105  107 1    
   209  105  226 1    
   210  106  227 1    
   211  106  228 1    
   212  106  229 1    
   213  107  108 2    
   214  107  109 am   BACKBONE|DICT|INTERRES
   215  109  110 1    
   216  109  230 1    
   217  110  111 1    
   218  110  112 1    
   219  110  231 1    
   220  111  232 1    
   221  111  233 1    
   222  111  234 1    
   223  112  113 2    
   224  112  114 am   BACKBONE|DICT|INTERRES
   225  114  115 1    
   226  114  235 1    
   227  115  116 1    
   228  115  117 1    
   229  115  236 1    
   230  116  237 1    
   231  116  238 1    
   232  116  239 1    
   233  117  118 2    
   234  117  119 am   BACKBONE|DICT|INTERRES
   235  119  120 1    
   236  119  240 1    
   237  120  121 1    
   238  120  124 1    
   239  120  241 1    
   240  121  122 am   BACKBONE|DICT|INTERRES
   241  121  123 2    
   242  122  242 1    
   243  122  243 1    
   244  124  125 1    
   245  124  244 1    
   246  124  245 1    
   247  125  126 1    
   248  126  246 1    
   249  126  247 1    
@<TRIPOS>SUBSTRUCTURE
     1 UNK         1 GROUP             0       ****    0 ROOT    
