@<TRIPOS>MOLECULE
3R540
247   249    1
SMALL
USER_CHARGES


@<TRIPOS>ATOM
      1 CA         -0.8127   -9.0745  -44.8664 C.3       0 UNK        -0.1800 
      2 C          -0.6064  -10.4844  -45.3986 C.2       0 UNK         0.5000 
      3 O          -1.5246  -11.3018  -45.3316 O.2       0 UNK        -0.5000 
      4 N           0.5951  -10.7799  -45.9158 N.am      1 UNK        -0.5000 
      5 CA          0.9887  -12.0741  -46.4849 C.3       1 UNK         0.1400 
      6 C6          0.2065  -12.3883  -47.7930 C.3       23 UNK        -0.0398 
      7 S7          0.9617  -13.7169  -48.7886 S.3       23 UNK        -0.2404 
      8 C8         -0.5000  -14.7286  -49.1764 C.3       23 UNK        -0.0205 
      9 C9         -0.1051  -16.0752  -49.7579 C.ar      23 UNK        -0.0193 
     10 C10        -0.2132  -16.3272  -51.1289 C.ar      23 UNK        -0.1150 
     11 C11         0.1180  -17.5849  -51.6447 C.ar      23 UNK        -0.0193 
     12 C12         0.5673  -18.5894  -50.7814 C.ar      23 UNK        -0.1150 
     13 C13         0.6912  -18.3409  -49.4122 C.ar      23 UNK        -0.0193 
     14 C14         0.3508  -17.0849  -48.9085 C.ar      23 UNK        -0.1150 
     15 C15         1.1827  -19.4220  -48.4672 C.3       23 UNK        -0.0205 
     16 S16        -0.2193  -20.2839  -47.6990 S.3       23 UNK        -0.2404 
     17 C17        -0.0067  -21.9853  -48.3384 C.3       23 UNK        -0.0398 
     18 CA         -0.6615  -23.0639  -47.4415 C.3       11 UNK         0.1400 
     19 N          -0.1198  -23.0383  -46.0788 N.am      11 UNK        -0.5000 
     20 C          -0.4422  -23.8858  -45.0909 C.2       10 UNK         0.5000 
     21 O          -1.1598  -24.8712  -45.2536 O.2       10 UNK        -0.5000 
     22 CA          0.0580  -23.5484  -43.6697 C.3       10 UNK         0.1400 
     23 CB          1.2897  -24.3963  -43.3217 C.3       10 UNK        -0.1800 
     24 N           0.3832  -22.1332  -43.4699 N.am      10 UNK        -0.5000 
     25 C          -0.4434  -21.0975  -43.6735 C.2       9 UNK         0.5000 
     26 O          -1.6353  -21.2323  -43.9540 O.2       9 UNK        -0.5000 
     27 CA          0.1596  -19.6779  -43.6113 C.3       9 UNK         0.1400 
     28 CB         -0.3660  -18.9274  -42.3784 C.3       9 UNK        -0.1800 
     29 N           1.6263  -19.5917  -43.6182 N.am      9 UNK        -0.5000 
     30 C           2.4605  -20.0709  -44.5511 C.2       8 UNK         0.5000 
     31 O           2.1073  -20.7724  -45.4991 O.2       8 UNK        -0.5000 
     32 CA          3.9427  -19.6856  -44.3991 C.3       8 UNK         0.1400 
     33 CB          4.8763  -20.8333  -44.8207 C.3       8 UNK        -0.1800 
     34 N           4.2529  -18.5017  -45.1986 N.am      8 UNK        -0.5000 
     35 C           3.8584  -17.2566  -44.9082 C.2       7 UNK         0.5000 
     36 O           3.2004  -16.9591  -43.9063 O.2       7 UNK        -0.5000 
     37 CA          4.2587  -16.1648  -45.9122 C.3       7 UNK         0.1400 
     38 CB          3.2160  -16.0557  -47.0326 C.3       7 UNK        -0.1800 
     39 N           4.3180  -14.8932  -45.2048 N.am      7 UNK        -0.5000 
     40 C           5.4223  -14.1761  -44.9705 C.2       6 UNK         0.5000 
     41 O           6.5192  -14.4069  -45.4804 O.2       6 UNK        -0.5000 
     42 CA          5.2759  -13.0218  -43.9626 C.3       6 UNK         0.1400 
     43 CB          4.9733  -11.7000  -44.6850 C.3       6 UNK        -0.1800 
     44 N           4.2098  -13.2917  -42.9986 N.am      6 UNK        -0.5000 
     45 C           4.3191  -14.0989  -41.9335 C.2       5 UNK         0.5000 
     46 O           5.3754  -14.6349  -41.5938 O.2       5 UNK        -0.5000 
     47 CA          3.0239  -14.3562  -41.1305 C.3       5 UNK         0.1400 
     48 CB          3.2865  -14.7172  -39.6541 C.3       5 UNK        -0.1800 
     49 N           2.0550  -13.2607  -41.2468 N.am      5 UNK        -0.5000 
     50 C           2.2074  -11.9861  -40.8525 C.2       4 UNK         0.5000 
     51 O           3.1690  -11.5785  -40.2002 O.2       4 UNK        -0.5000 
     52 CA          1.1295  -10.9806  -41.3037 C.3       4 UNK         0.1400 
     53 CB          1.7228   -9.9891  -42.3183 C.3       4 UNK        -0.1800 
     54 N          -0.0266  -11.6376  -41.9162 N.am      4 UNK        -0.5000 
     55 C          -1.0896  -12.0975  -41.2432 C.2       3 UNK         0.5000 
     56 O          -1.2551  -11.9397  -40.0335 O.2       3 UNK        -0.5000 
     57 CA         -2.1300  -12.8922  -42.0551 C.3       3 UNK         0.1400 
     58 CB         -3.2895  -11.9820  -42.4875 C.3       3 UNK        -0.1800 
     59 N          -1.5528  -13.5480  -43.2337 N.am      3 UNK        -0.5000 
     60 C          -0.7553  -14.6262  -43.1758 C.2       2 UNK         0.5000 
     61 O          -0.4127  -15.1586  -42.1211 O.2       2 UNK        -0.5000 
     62 CA         -0.2132  -15.1815  -44.5069 C.3       2 UNK         0.1400 
     63 CB         -1.1822  -16.2250  -45.0841 C.3       2 UNK        -0.1800 
     64 N           0.0338  -14.1430  -45.5086 N.am      2 UNK        -0.5000 
     65 C           0.9404  -13.1642  -45.3869 C.2       1 UNK         0.5000 
     66 O           1.7026  -13.0703  -44.4212 O.2       1 UNK        -0.5000 
     67 C          -2.2040  -22.9631  -47.4965 C.2       11 UNK         0.5000 
     68 O          -2.8107  -23.5441  -48.3977 O.2       11 UNK        -0.5000 
     69 N          -2.8138  -22.2428  -46.5435 N.am      12 UNK        -0.5000 
     70 CA         -4.2640  -22.1087  -46.4223 C.3       12 UNK         0.1400 
     71 CB         -4.6005  -20.8410  -45.6240 C.3       12 UNK        -0.1800 
     72 C          -4.8919  -23.3529  -45.7747 C.2       12 UNK         0.5000 
     73 O          -5.9545  -23.7903  -46.2144 O.2       12 UNK        -0.5000 
     74 N          -4.2044  -23.9288  -44.7774 N.am      13 UNK        -0.5000 
     75 CA         -4.5990  -25.1664  -44.0976 C.3       13 UNK         0.1400 
     76 CB         -3.7371  -25.3587  -42.8404 C.3       13 UNK        -0.1800 
     77 C          -4.5079  -26.3964  -45.0208 C.2       13 UNK         0.5000 
     78 O          -5.3788  -27.2651  -44.9721 O.2       13 UNK        -0.5000 
     79 N          -3.4783  -26.4186  -45.8776 N.am      14 UNK        -0.5000 
     80 CA         -3.2748  -27.4067  -46.9386 C.3       14 UNK         0.1400 
     81 CB         -1.8150  -27.3165  -47.4120 C.3       14 UNK        -0.1800 
     82 C          -4.2312  -27.2302  -48.1371 C.2       14 UNK         0.5000 
     83 O          -4.2959  -28.1202  -48.9855 O.2       14 UNK        -0.5000 
     84 N          -4.9279  -26.0844  -48.1993 N.am      15 UNK        -0.5000 
     85 CA         -5.8358  -25.6379  -49.2614 C.3       15 UNK         0.1400 
     86 CB         -7.0583  -26.5707  -49.3818 C.3       15 UNK        -0.1800 
     87 C          -5.1297  -25.3921  -50.6123 C.2       15 UNK         0.5000 
     88 O          -5.7780  -25.4147  -51.6588 O.2       15 UNK        -0.5000 
     89 N          -3.8199  -25.1168  -50.5662 N.am      16 UNK        -0.5000 
     90 CA         -3.0074  -24.7318  -51.7166 C.3       16 UNK         0.1400 
     91 CB         -1.5199  -24.9387  -51.3907 C.3       16 UNK        -0.1800 
     92 C          -3.2898  -23.2749  -52.1088 C.2       16 UNK         0.5000 
     93 O          -3.5464  -22.9975  -53.2781 O.2       16 UNK        -0.5000 
     94 N          -3.3118  -22.3818  -51.1085 N.am      17 UNK        -0.5000 
     95 CA         -3.6293  -20.9604  -51.2792 C.3       17 UNK         0.1400 
     96 CB         -3.1976  -20.1874  -50.0257 C.3       17 UNK        -0.1800 
     97 C          -5.1137  -20.6994  -51.6047 C.2       17 UNK         0.5000 
     98 O          -5.4469  -19.6242  -52.1024 O.2       17 UNK        -0.5000 
     99 N          -5.9764  -21.6856  -51.3223 N.am      18 UNK        -0.5000 
    100 CA        -7.3972  -21.6748  -51.6669 C.3       18 UNK         0.1400 
    101 CB        -8.1344  -22.6898  -50.7791 C.3       18 UNK        -0.1800 
    102 C         -7.6521  -21.9714  -53.1588 C.2       18 UNK         0.5000 
    103 O         -8.7034  -21.5869  -53.6733 O.2       18 UNK        -0.5000 
    104 N         -6.7048  -22.6440  -53.8280 N.am      19 UNK        -0.5000 
    105 CA        -6.7433  -22.9127  -55.2635 C.3       19 UNK         0.1400 
    106 CB        -5.8792  -24.1469  -55.5672 C.3       19 UNK        -0.1800 
    107 C         -6.2351  -21.6945  -56.0522 C.2       19 UNK         0.5000 
    108 O         -5.3970  -20.9419  -55.5509 O.2       19 UNK        -0.5000 
    109 N         -6.7107  -21.5490  -57.2960 N.am      20 UNK        -0.5000 
    110 CA        -6.3651  -20.4479  -58.2042 C.3       20 UNK         0.1400 
    111 CB        -7.2443  -20.5412  -59.4607 C.3       20 UNK        -0.1800 
    112 C         -4.8732  -20.3919  -58.5934 C.2       20 UNK         0.5000 
    113 O         -4.3661  -19.3123  -58.9002 O.2       20 UNK        -0.5000 
    114 N         -4.1957  -21.5476  -58.5556 N.am      21 UNK        -0.5000 
    115 CA        -2.7545  -21.6791  -58.7750 C.3       21 UNK         0.1400 
    116 CB        -2.4321  -23.1551  -59.0568 C.3       21 UNK        -0.1800 
    117 C         -1.9068  -21.1612  -57.5942 C.2       21 UNK         0.5000 
    118 O         -0.7329  -20.8467  -57.7927 O.2       21 UNK        -0.5000 
    119 N         -2.5039  -21.0893  -56.3956 N.am      22 UNK        -0.5000 
    120 CA        -1.8808  -20.6560  -55.1342 C.3       22 UNK         0.1400 
    121 C         -0.7681  -21.6071  -54.5839 C.2       22 UNK         0.5000 
    122 N         -0.6629  -22.8440  -55.0555 N.am      22 UNK        -0.7600 
    123 O          0.0016  -21.2384  -53.7021 O.2       22 UNK        -0.5000 
    124 C124       -1.4671  -19.1555  -55.1711 C.3       23 UNK        -0.0398 
    125 S125       -1.7159  -18.3203  -53.5667 S.3       23 UNK        -0.2404 
    126 C126       -0.0098  -17.8647  -53.1326 C.3       23 UNK        -0.0205 
    127 H127       -1.5719   -8.5606  -45.4557 H         1 UNK         0.0600 
    128 H128        0.1052   -8.4876  -44.9051 H         1 UNK         0.0600 
    129 H129       -1.1522   -9.1111  -43.8312 H         1 UNK         0.0600 
    130 H130        1.3160  -10.0719  -45.9175 H         1 UNK         0.3000 
    131 H131        2.0413  -11.9695  -46.7520 H         1 UNK         0.0600 
    132 H132       -0.8432  -12.6038  -47.5895 H         1 UNK         0.0800 
    133 H133        0.1964  -11.4993  -48.4252 H         1 UNK         0.0800 
    134 H134       -1.0913  -14.8953  -48.2753 H         1 UNK         0.0800 
    135 H135       -1.1416  -14.1832  -49.8705 H         1 UNK         0.0800 
    136 H136       -0.5671  -15.5517  -51.7938 H         1 UNK         0.1150 
    137 H137        0.8154  -19.5653  -51.1759 H         1 UNK         0.1150 
    138 H138        0.4382  -16.8942  -47.8499 H         1 UNK         0.1150 
    139 H139        1.8337  -20.1186  -48.9964 H         1 UNK         0.0800 
    140 H140        1.7922  -18.9801  -47.6783 H         1 UNK         0.0800 
    141 H141        1.0596  -22.2009  -48.4165 H         1 UNK         0.0800 
    142 H142       -0.3953  -22.0328  -49.3574 H         1 UNK         0.0800 
    143 H143       -0.4033  -24.0387  -47.8597 H         1 UNK         0.0600 
    144 H144        0.4847  -22.2531  -45.8620 H         1 UNK         0.3000 
    145 H145       -0.7443  -23.8021  -42.9743 H         1 UNK         0.0600 
    146 H146        1.6002  -24.2373  -42.2889 H         1 UNK         0.0600 
    147 H147        1.0768  -25.4603  -43.4354 H         1 UNK         0.0600 
    148 H148        2.1356  -24.1592  -43.9684 H         1 UNK         0.0600 
    149 H149        1.3484  -21.9212  -43.2663 H         1 UNK         0.3000 
    150 H150       -0.1902  -19.1560  -44.5039 H         1 UNK         0.0600 
    151 H151       -0.0385  -19.4003  -41.4518 H         1 UNK         0.0600 
    152 H152       -1.4566  -18.9024  -42.3678 H         1 UNK         0.0600 
    153 H153       -0.0197  -17.8939  -42.3674 H         1 UNK         0.0600 
    154 H154        2.0253  -18.9925  -42.9088 H         1 UNK         0.3000 
    155 H155        4.1409  -19.4635  -43.3481 H         1 UNK         0.0600 
    156 H156        4.7697  -21.0764  -45.8788 H         1 UNK         0.0600 
    157 H157        4.6609  -21.7395  -44.2529 H         1 UNK         0.0600 
    158 H158        5.9206  -20.5778  -44.6399 H         1 UNK         0.0600 
    159 H159        4.7626  -18.6671  -46.0542 H         1 UNK         0.3000 
    160 H160        5.2288  -16.4165  -46.3458 H         1 UNK         0.0600 
    161 H161        2.2199  -15.8559  -46.6369 H         1 UNK         0.0600 
    162 H162        3.1654  -16.9771  -47.6127 H         1 UNK         0.0600 
    163 H163        3.4672  -15.2526  -47.7254 H         1 UNK         0.0600 
    164 H164        3.4850  -14.6530  -44.6837 H         1 UNK         0.3000 
    165 H165        6.2222  -12.9144  -43.4284 H         1 UNK         0.0600 
    166 H166        4.8957  -10.8739  -43.9778 H         1 UNK         0.0600 
    167 H167        5.7665  -11.4514  -45.3911 H         1 UNK         0.0600 
    168 H168        4.0391  -11.7500  -45.2444 H         1 UNK         0.0600 
    169 H169        3.2873  -12.9469  -43.2443 H         1 UNK         0.3000 
    170 H170        2.5521  -15.2213  -41.5993 H         1 UNK         0.0600 
    171 H171        3.8754  -15.6316  -39.5753 H         1 UNK         0.0600 
    172 H172        3.8346  -13.9315  -39.1339 H         1 UNK         0.0600 
    173 H173        2.3525  -14.8876  -39.1187 H         1 UNK         0.0600 
    174 H174        1.2160  -13.4904  -41.7615 H         1 UNK         0.3000 
    175 H175        0.8123  -10.4193  -40.4224 H         1 UNK         0.0600 
    176 H176        2.5991   -9.4844  -41.9094 H         1 UNK         0.0600 
    177 H177        2.0326  -10.4876  -43.2375 H         1 UNK         0.0600 
    178 H178        1.0021   -9.2147  -42.5772 H         1 UNK         0.0600 
    179 H179        0.0364  -11.8348  -42.9047 H         1 UNK         0.3000 
    180 H180       -2.5371  -13.6661  -41.4006 H         1 UNK         0.0600 
    181 H181       -2.9457  -11.1510  -43.1033 H         1 UNK         0.0600 
    182 H182       -3.7923  -11.5556  -41.6186 H         1 UNK         0.0600 
    183 H183       -4.0370  -12.5357  -43.0558 H         1 UNK         0.0600 
    184 H184       -1.7451  -13.1177  -44.1311 H         1 UNK         0.3000 
    185 H185        0.7353  -15.6784  -44.2919 H         1 UNK         0.0600 
    186 H186       -1.4504  -16.9702  -44.3349 H         1 UNK         0.0600 
    187 H187       -2.1089  -15.7667  -45.4311 H         1 UNK         0.0600 
    188 H188       -0.7365  -16.7601  -45.9209 H         1 UNK         0.0600 
    189 H189       -0.5735  -14.1411  -46.3130 H         1 UNK         0.3000 
    190 H190       -2.2544  -21.7975  -45.8232 H         1 UNK         0.3000 
    191 H191       -4.6933  -21.9996  -47.4205 H         1 UNK         0.0600 
    192 H192       -4.1662  -19.9562  -46.0898 H         1 UNK         0.0600 
    193 H193       -5.6792  -20.6877  -45.5746 H         1 UNK         0.0600 
    194 H194       -4.2306  -20.8961  -44.5997 H         1 UNK         0.0600 
    195 H195       -3.3269  -23.5151  -44.4980 H         1 UNK         0.3000 
    196 H196       -5.6397  -25.0614  -43.7837 H         1 UNK         0.0600 
    197 H197       -4.0528  -26.2430  -42.2854 H         1 UNK         0.0600 
    198 H198       -3.8231  -24.5053  -42.1676 H         1 UNK         0.0600 
    199 H199       -2.6831  -25.4880  -43.0866 H         1 UNK         0.0600 
    200 H200       -2.7565  -25.7082  -45.7810 H         1 UNK         0.3000 
    201 H201       -3.4441  -28.4022  -46.5236 H         1 UNK         0.0600 
    202 H202       -1.6009  -28.0664  -48.1745 H         1 UNK         0.0600 
    203 H203       -1.1217  -27.4850  -46.5876 H         1 UNK         0.0600 
    204 H204       -1.5929  -26.3385  -47.8410 H         1 UNK         0.0600 
    205 H205       -4.8054  -25.4283  -47.4400 H         1 UNK         0.3000 
    206 H206       -6.2044  -24.6625  -48.9413 H         1 UNK         0.0600 
    207 H207       -7.5362  -26.7195  -48.4135 H         1 UNK         0.0600 
    208 H208       -7.8090  -26.1483  -50.0505 H         1 UNK         0.0600 
    209 H209       -6.7858  -27.5495  -49.7769 H         1 UNK         0.0600 
    210 H210       -3.3868  -25.0177  -49.6549 H         1 UNK         0.3000 
    211 H211       -3.2652  -25.3709  -52.5640 H         1 UNK         0.0600 
    212 H212       -1.2002  -24.3355  -50.5406 H         1 UNK         0.0600 
    213 H213       -0.8946  -24.6636  -52.2411 H         1 UNK         0.0600 
    214 H214       -1.3112  -25.9826  -51.1563 H         1 UNK         0.0600 
    215 H215       -3.1259  -22.7055  -50.1647 H         1 UNK         0.3000 
    216 H216       -3.0447  -20.5824  -52.1182 H         1 UNK         0.0600 
    217 H217       -3.4418  -19.1279  -50.1133 H         1 UNK         0.0600 
    218 H218       -2.1198  -20.2523  -49.8881 H         1 UNK         0.0600 
    219 H219       -3.6814  -20.5653  -49.1253 H         1 UNK         0.0600 
    220 H220       -5.6108  -22.5344  -50.9200 H         1 UNK         0.3000 
    221 H221       -7.7995  -20.6823  -51.4525 H         1 UNK         0.0600 
    222 H222       -7.8125  -23.7111  -50.9815 H         1 UNK         0.0600 
    223 H223       -7.9695  -22.4863  -49.7208 H         1 UNK         0.0600 
    224 H224       -9.2102  -22.6480  -50.9537 H         1 UNK         0.0600 
    225 H225       -5.8332  -22.8596  -53.3621 H         1 UNK         0.3000 
    226 H226       -7.7718  -23.1281  -55.5613 H         1 UNK         0.0600 
    227 H227       -5.9662  -24.4366  -56.6149 H         1 UNK         0.0600 
    228 H228       -4.8233  -23.9630  -55.3671 H         1 UNK         0.0600 
    229 H229       -6.1883  -25.0028  -54.9666 H         1 UNK         0.0600 
    230 H230       -7.3833  -22.2179  -57.6433 H         1 UNK         0.3000 
    231 H231       -6.6000  -19.5121  -57.6925 H         1 UNK         0.0600 
    232 H232       -7.0753  -21.4732  -60.0016 H         1 UNK         0.0600 
    233 H233       -7.0336  -19.7203  -60.1475 H         1 UNK         0.0600 
    234 H234       -8.3032  -20.4860  -59.2073 H         1 UNK         0.0600 
    235 H235       -4.6976  -22.3871  -58.3075 H         1 UNK         0.3000 
    236 H236       -2.4827  -21.0952  -59.6570 H         1 UNK         0.0600 
    237 H237       -2.9677  -23.5149  -59.9355 H         1 UNK         0.0600 
    238 H238       -1.3671  -23.2933  -59.2485 H         1 UNK         0.0600 
    239 H239       -2.7001  -23.7943  -58.2146 H         1 UNK         0.0600 
    240 H240       -3.4876  -21.3211  -56.3219 H         1 UNK         0.3000 
    241 H241       -2.6956  -20.7490  -54.4176 H         1 UNK         0.0600 
    242 H242        0.0568  -23.4501  -54.6969 H         1 UNK         0.3800 
    243 H243       -1.3035  -23.1793  -55.7554 H         1 UNK         0.3800 
    244 H244       -0.4408  -19.0377  -55.5224 H         1 UNK         0.0800 
    245 H245       -2.0847  -18.6152  -55.8901 H         1 UNK         0.0800 
    246 H246        0.6741  -18.6661  -53.4153 H         1 UNK         0.0800 
    247 H247        0.2890  -16.9875  -53.7082 H         1 UNK         0.0800 
@<TRIPOS>BOND
     1    1    2 1    
     2    1  127 1    
     3    1  128 1    
     4    1  129 1    
     5    2    3 2    
     6    2    4 am   BACKBONE|DICT|INTERRES
     7    4    5 1    
     8    4  130 1    
     9    5    6 1    
    10    5   65 1    
    11    5  131 1    
    12    6    7 1    
    13    6  132 1    
    14    6  133 1    
    15    7    8 1    
    16    8    9 1    
    17    8  134 1    
    18    8  135 1    
    19    9   10 ar   
    20    9   14 ar   
    21   10   11 ar   
    22   10  136 1    
    23   11   12 ar   
    24   11  126 1    
    25   12   13 ar   
    26   12  137 1    
    27   13   14 ar   
    28   13   15 1    
    29   14  138 1    
    30   15   16 1    
    31   15  139 1    
    32   15  140 1    
    33   16   17 1    
    34   17   18 1    
    35   17  141 1    
    36   17  142 1    
    37   18   19 1    
    38   18   67 1    
    39   18  143 1    
    40   19   20 am   BACKBONE|DICT|INTERRES
    41   19  144 1    
    42   20   21 2    
    43   20   22 1    
    44   22   23 1    
    45   22   24 1    
    46   22  145 1    
    47   23  146 1    
    48   23  147 1    
    49   23  148 1    
    50   24   25 am   BACKBONE|DICT|INTERRES
    51   24  149 1    
    52   25   26 2    
    53   25   27 1    
    54   27   28 1    
    55   27   29 1    
    56   27  150 1    
    57   28  151 1    
    58   28  152 1    
    59   28  153 1    
    60   29   30 am   BACKBONE|DICT|INTERRES
    61   29  154 1    
    62   30   31 2    
    63   30   32 1    
    64   32   33 1    
    65   32   34 1    
    66   32  155 1    
    67   33  156 1    
    68   33  157 1    
    69   33  158 1    
    70   34   35 am   BACKBONE|DICT|INTERRES
    71   34  159 1    
    72   35   36 2    
    73   35   37 1    
    74   37   38 1    
    75   37   39 1    
    76   37  160 1    
    77   38  161 1    
    78   38  162 1    
    79   38  163 1    
    80   39   40 am   BACKBONE|DICT|INTERRES
    81   39  164 1    
    82   40   41 2    
    83   40   42 1    
    84   42   43 1    
    85   42   44 1    
    86   42  165 1    
    87   43  166 1    
    88   43  167 1    
    89   43  168 1    
    90   44   45 am   BACKBONE|DICT|INTERRES
    91   44  169 1    
    92   45   46 2    
    93   45   47 1    
    94   47   48 1    
    95   47   49 1    
    96   47  170 1    
    97   48  171 1    
    98   48  172 1    
    99   48  173 1    
   100   49   50 am   BACKBONE|DICT|INTERRES
   101   49  174 1    
   102   50   51 2    
   103   50   52 1    
   104   52   53 1    
   105   52   54 1    
   106   52  175 1    
   107   53  176 1    
   108   53  177 1    
   109   53  178 1    
   110   54   55 am   BACKBONE|DICT|INTERRES
   111   54  179 1    
   112   55   56 2    
   113   55   57 1    
   114   57   58 1    
   115   57   59 1    
   116   57  180 1    
   117   58  181 1    
   118   58  182 1    
   119   58  183 1    
   120   59   60 am   BACKBONE|DICT|INTERRES
   121   59  184 1    
   122   60   61 2    
   123   60   62 1    
   124   62   63 1    
   125   62   64 1    
   126   62  185 1    
   127   63  186 1    
   128   63  187 1    
   129   63  188 1    
   130   64   65 am   BACKBONE|DICT|INTERRES
   131   64  189 1    
   132   65   66 2    
   133   67   68 2    
   134   67   69 am   BACKBONE|DICT|INTERRES
   135   69   70 1    
   136   69  190 1    
   137   70   71 1    
   138   70   72 1    
   139   70  191 1    
   140   71  192 1    
   141   71  193 1    
   142   71  194 1    
   143   72   73 2    
   144   72   74 am   BACKBONE|DICT|INTERRES
   145   74   75 1    
   146   74  195 1    
   147   75   76 1    
   148   75   77 1    
   149   75  196 1    
   150   76  197 1    
   151   76  198 1    
   152   76  199 1    
   153   77   78 2    
   154   77   79 am   BACKBONE|DICT|INTERRES
   155   79   80 1    
   156   79  200 1    
   157   80   81 1    
   158   80   82 1    
   159   80  201 1    
   160   81  202 1    
   161   81  203 1    
   162   81  204 1    
   163   82   83 2    
   164   82   84 am   BACKBONE|DICT|INTERRES
   165   84   85 1    
   166   84  205 1    
   167   85   86 1    
   168   85   87 1    
   169   85  206 1    
   170   86  207 1    
   171   86  208 1    
   172   86  209 1    
   173   87   88 2    
   174   87   89 am   BACKBONE|DICT|INTERRES
   175   89   90 1    
   176   89  210 1    
   177   90   91 1    
   178   90   92 1    
   179   90  211 1    
   180   91  212 1    
   181   91  213 1    
   182   91  214 1    
   183   92   93 2    
   184   92   94 am   BACKBONE|DICT|INTERRES
   185   94   95 1    
   186   94  215 1    
   187   95   96 1    
   188   95   97 1    
   189   95  216 1    
   190   96  217 1    
   191   96  218 1    
   192   96  219 1    
   193   97   98 2    
   194   97   99 am   BACKBONE|DICT|INTERRES
   195   99  100 1    
   196   99  220 1    
   197  100  101 1    
   198  100  102 1    
   199  100  221 1    
   200  101  222 1    
   201  101  223 1    
   202  101  224 1    
   203  102  103 2    
   204  102  104 am   BACKBONE|DICT|INTERRES
   205  104  105 1    
   206  104  225 1    
   207  105  106 1    
   208  105  107 1    
   209  105  226 1    
   210  106  227 1    
   211  106  228 1    
   212  106  229 1    
   213  107  108 2    
   214  107  109 am   BACKBONE|DICT|INTERRES
   215  109  110 1    
   216  109  230 1    
   217  110  111 1    
   218  110  112 1    
   219  110  231 1    
   220  111  232 1    
   221  111  233 1    
   222  111  234 1    
   223  112  113 2    
   224  112  114 am   BACKBONE|DICT|INTERRES
   225  114  115 1    
   226  114  235 1    
   227  115  116 1    
   228  115  117 1    
   229  115  236 1    
   230  116  237 1    
   231  116  238 1    
   232  116  239 1    
   233  117  118 2    
   234  117  119 am   BACKBONE|DICT|INTERRES
   235  119  120 1    
   236  119  240 1    
   237  120  121 1    
   238  120  124 1    
   239  120  241 1    
   240  121  122 am   BACKBONE|DICT|INTERRES
   241  121  123 2    
   242  122  242 1    
   243  122  243 1    
   244  124  125 1    
   245  124  244 1    
   246  124  245 1    
   247  125  126 1    
   248  126  246 1    
   249  126  247 1    
@<TRIPOS>SUBSTRUCTURE
     1 UNK         1 GROUP             0       ****    0 ROOT    
