@<TRIPOS>MOLECULE
3R540
247   249    1
SMALL
USER_CHARGES


@<TRIPOS>ATOM
      1 CA          0.6744  -17.4484  -53.2063 C.3       0 UNK        -0.1800 
      2 C           1.3434  -16.0859  -53.3201 C.2       0 UNK         0.5000 
      3 O           1.1589  -15.3920  -54.3210 O.2       0 UNK        -0.5000 
      4 N           2.1306  -15.7104  -52.3070 N.am      1 UNK        -0.5000 
      5 CA          2.8129  -14.4167  -52.1991 C.3       1 UNK         0.1400 
      6 C6          3.9855  -14.4532  -51.1813 C.3       23 UNK        -0.0398 
      7 S7          5.1257  -15.8652  -51.3934 S.3       23 UNK        -0.2404 
      8 C8          4.9519  -16.7225  -49.7937 C.3       23 UNK        -0.0205 
      9 C9          3.6864  -17.5656  -49.7190 C.ar      23 UNK        -0.0193 
     10 C10         2.4799  -17.0036  -49.2922 C.ar      23 UNK        -0.1150 
     11 C11         1.3237  -17.7829  -49.2038 C.ar      23 UNK        -0.0193 
     12 C12         1.3831  -19.1413  -49.5217 C.ar      23 UNK        -0.1150 
     13 C13         2.5851  -19.7196  -49.9344 C.ar      23 UNK        -0.0193 
     14 C14         3.7298  -18.9244  -50.0437 C.ar      23 UNK        -0.1150 
     15 C15         2.6554  -21.2030  -50.2573 C.3       23 UNK        -0.0205 
     16 S16         3.2917  -22.1652  -48.8481 S.3       23 UNK        -0.2404 
     17 C17         1.7855  -22.4568  -47.8631 C.3       23 UNK        -0.0398 
     18 CA          2.0491  -22.3574  -46.3375 C.3       11 UNK         0.1400 
     19 N           1.8731  -21.0023  -45.8297 N.am      11 UNK        -0.5000 
     20 C           2.8366  -20.1453  -45.4879 C.2       10 UNK         0.5000 
     21 O           4.0371  -20.3279  -45.6909 O.2       10 UNK        -0.5000 
     22 CA          2.3622  -18.8876  -44.7410 C.3       10 UNK         0.1400 
     23 CB          1.8171  -17.8514  -45.7311 C.3       10 UNK        -0.1800 
     24 N           1.3267  -19.2047  -43.7519 N.am      10 UNK        -0.5000 
     25 C           1.5793  -19.7070  -42.5359 C.2       9 UNK         0.5000 
     26 O           2.7123  -19.9485  -42.1183 O.2       9 UNK        -0.5000 
     27 CA          0.3694  -20.0000  -41.6380 C.3       9 UNK         0.1400 
     28 CB         -0.4927  -18.7493  -41.3825 C.3       9 UNK        -0.1800 
     29 N          -0.4386  -21.0772  -42.2032 N.am      9 UNK        -0.5000 
     30 C          -1.1942  -21.9189  -41.4843 C.2       8 UNK         0.5000 
     31 O          -1.2949  -21.8616  -40.2572 O.2       8 UNK        -0.5000 
     32 CA         -1.9469  -23.0182  -42.2648 C.3       8 UNK         0.1400 
     33 CB         -3.1490  -23.6048  -41.4951 C.3       8 UNK        -0.1800 
     34 N          -2.3235  -22.5910  -43.6144 N.am      8 UNK        -0.5000 
     35 C          -3.2197  -21.6587  -43.9576 C.2       7 UNK         0.5000 
     36 O          -3.9731  -21.0826  -43.1698 O.2       7 UNK        -0.5000 
     37 CA         -3.2717  -21.3111  -45.4561 C.3       7 UNK         0.1400 
     38 CB         -4.4997  -21.9530  -46.1228 C.3       7 UNK        -0.1800 
     39 N          -3.3073  -19.8666  -45.6771 N.am      7 UNK        -0.5000 
     40 C          -2.3431  -19.0050  -45.3277 C.2       6 UNK         0.5000 
     41 O          -1.2686  -19.3485  -44.8280 O.2       6 UNK        -0.5000 
     42 CA         -2.6015  -17.5168  -45.6177 C.3       6 UNK         0.1400 
     43 CB         -4.0929  -17.1416  -45.7443 C.3       6 UNK        -0.1800 
     44 N          -1.9849  -16.6704  -44.5966 N.am      6 UNK        -0.5000 
     45 C          -1.2433  -15.5889  -44.8588 C.2       5 UNK         0.5000 
     46 O          -0.9082  -15.2452  -45.9926 O.2       5 UNK        -0.5000 
     47 CA         -0.7870  -14.7483  -43.6521 C.3       5 UNK         0.1400 
     48 CB          0.5177  -15.3004  -43.0566 C.3       5 UNK        -0.1800 
     49 N          -0.5657  -13.3578  -44.0485 N.am      5 UNK        -0.5000 
     50 C          -1.5327  -12.4699  -44.3193 C.2       4 UNK         0.5000 
     51 O          -2.7283  -12.6710  -44.1028 O.2       4 UNK        -0.5000 
     52 CA         -1.0853  -11.1342  -44.9460 C.3       4 UNK         0.1400 
     53 CB         -0.8138  -10.0893  -43.8525 C.3       4 UNK        -0.1800 
     54 N           0.1153  -11.2895  -45.7725 N.am      4 UNK        -0.5000 
     55 C           0.1078  -11.7445  -47.0320 C.2       3 UNK         0.5000 
     56 O          -0.9181  -11.9824  -47.6752 O.2       3 UNK        -0.5000 
     57 CA          1.4831  -12.0172  -47.6591 C.3       3 UNK         0.1400 
     58 CB          1.9337  -13.4508  -47.3325 C.3       3 UNK        -0.1800 
     59 N           1.4230  -11.8751  -49.1097 N.am      3 UNK        -0.5000 
     60 C           1.6786  -10.7608  -49.8033 C.2       2 UNK         0.5000 
     61 O           2.0282   -9.7024  -49.2774 O.2       2 UNK        -0.5000 
     62 CA          1.5567  -10.8676  -51.3446 C.3       2 UNK         0.1400 
     63 CB          2.0696   -9.6101  -52.0699 C.3       2 UNK        -0.1800 
     64 N           2.2658  -12.0393  -51.8759 N.am      2 UNK        -0.5000 
     65 C           1.8194  -13.3002  -51.8049 C.2       1 UNK         0.5000 
     66 O           0.7067  -13.5814  -51.3546 O.2       1 UNK        -0.5000 
     67 C           1.0635  -23.2351  -45.5489 C.2       11 UNK         0.5000 
     68 O           0.0999  -22.7168  -44.9751 O.2       11 UNK        -0.5000 
     69 N           1.3142  -24.5492  -45.5372 N.am      12 UNK        -0.5000 
     70 CA          0.4566  -25.5591  -44.9153 C.3       12 UNK         0.1400 
     71 CB          1.1593  -26.9227  -45.0097 C.3       12 UNK        -0.1800 
     72 C          -0.9369  -25.6362  -45.5676 C.2       12 UNK         0.5000 
     73 O          -1.1011  -25.2454  -46.7256 O.2       12 UNK        -0.5000 
     74 N          -1.9073  -26.1920  -44.8291 N.am      13 UNK        -0.5000 
     75 CA         -3.2992  -26.3772  -45.2612 C.3       13 UNK         0.1400 
     76 CB         -4.1007  -27.0109  -44.1147 C.3       13 UNK        -0.1800 
     77 C          -3.4598  -27.2118  -46.5492 C.2       13 UNK         0.5000 
     78 O          -4.4326  -27.0192  -47.2776 O.2       13 UNK        -0.5000 
     79 N          -2.4790  -28.0822  -46.8293 N.am      14 UNK        -0.5000 
     80 CA         -2.3612  -28.8844  -48.0478 C.3       14 UNK         0.1400 
     81 CB         -1.1780  -29.8513  -47.8871 C.3       14 UNK        -0.1800 
     82 C          -2.2072  -28.0574  -49.3423 C.2       14 UNK         0.5000 
     83 O          -2.5324  -28.5686  -50.4146 O.2       14 UNK        -0.5000 
     84 N          -1.7379  -26.8031  -49.2355 N.am      15 UNK        -0.5000 
     85 CA         -1.6793  -25.8538  -50.3518 C.3       15 UNK         0.1400 
     86 CB         -0.7629  -24.6801  -49.9767 C.3       15 UNK        -0.1800 
     87 C          -3.0725  -25.3406  -50.7674 C.2       15 UNK         0.5000 
     88 O          -3.2516  -24.9549  -51.9237 O.2       15 UNK        -0.5000 
     89 N          -4.0278  -25.3665  -49.8239 N.am      16 UNK        -0.5000 
     90 CA         -5.4477  -25.0461  -49.9730 C.3       16 UNK         0.1400 
     91 CB         -6.1716  -26.2319  -50.6482 C.3       16 UNK        -0.1800 
     92 C          -5.6776  -23.6862  -50.6637 C.2       16 UNK         0.5000 
     93 O          -5.2275  -22.6630  -50.1438 O.2       16 UNK        -0.5000 
     94 N          -6.3373  -23.7027  -51.8300 N.am      17 UNK        -0.5000 
     95 CA         -6.6871  -22.5433  -52.6516 C.3       17 UNK         0.1400 
     96 CB         -7.4350  -23.0286  -53.9024 C.3       17 UNK        -0.1800 
     97 C          -5.4970  -21.6523  -53.0548 C.2       17 UNK         0.5000 
     98 O          -5.6847  -20.4471  -53.2161 O.2       17 UNK        -0.5000 
     99 N          -4.2990  -22.2406  -53.1898 N.am      18 UNK        -0.5000 
    100 CA        -3.0729  -21.5172  -53.5295 C.3       18 UNK         0.1400 
    101 CB        -1.9776  -22.5158  -53.9329 C.3       18 UNK        -0.1800 
    102 C         -2.5798  -20.6092  -52.3889 C.2       18 UNK         0.5000 
    103 O         -2.0184  -19.5510  -52.6668 O.2       18 UNK        -0.5000 
    104 N         -2.8066  -21.0286  -51.1366 N.am      19 UNK        -0.5000 
    105 CA        -2.4305  -20.2749  -49.9420 C.3       19 UNK         0.1400 
    106 CB        -1.9142  -21.2464  -48.8747 C.3       19 UNK        -0.1800 
    107 C         -3.5937  -19.4260  -49.4100 C.2       19 UNK         0.5000 
    108 O         -3.3536  -18.3498  -48.8671 O.2       19 UNK        -0.5000 
    109 N         -4.8376  -19.8845  -49.6071 N.am      20 UNK        -0.5000 
    110 CA        -6.0579  -19.1409  -49.2784 C.3       20 UNK         0.1400 
    111 CB        -7.2653  -20.0830  -49.3788 C.3       20 UNK        -0.1800 
    112 C         -6.2690  -17.8844  -50.1512 C.2       20 UNK         0.5000 
    113 O         -7.0468  -17.0102  -49.7698 O.2       20 UNK        -0.5000 
    114 N         -5.5683  -17.8078  -51.2919 N.am      21 UNK        -0.5000 
    115 CA        -5.5068  -16.6436  -52.1767 C.3       21 UNK         0.1400 
    116 CB        -4.8588  -17.0666  -53.5045 C.3       21 UNK        -0.1800 
    117 C         -4.7499  -15.4413  -51.5722 C.2       21 UNK         0.5000 
    118 O         -4.9423  -14.3185  -52.0422 O.2       21 UNK        -0.5000 
    119 N         -3.9029  -15.6866  -50.5640 N.am      22 UNK        -0.5000 
    120 CA        -3.1693  -14.6603  -49.8069 C.3       22 UNK         0.1400 
    121 C         -4.0904  -13.8146  -48.8717 C.2       22 UNK         0.5000 
    122 N         -3.5684  -12.7841  -48.2211 N.am      22 UNK        -0.7600 
    123 O         -5.2791  -14.0804  -48.7062 O.2       22 UNK        -0.5000 
    124 C124       -1.9917  -15.2809  -49.0180 C.3       23 UNK        -0.0398 
    125 S125       -0.8387  -16.2650  -50.0342 S.3       23 UNK        -0.2404 
    126 C126        0.0285  -17.1606  -48.7154 C.3       23 UNK        -0.0205 
    127 H127        0.9317  -18.0714  -54.0626 H         1 UNK         0.0600 
    128 H128       -0.4089  -17.3301  -53.1807 H         1 UNK         0.0600 
    129 H129        0.9766  -17.9743  -52.3002 H         1 UNK         0.0600 
    130 H130        2.2227  -16.3177  -51.5046 H         1 UNK         0.3000 
    131 H131        3.2222  -14.1686  -53.1806 H         1 UNK         0.0600 
    132 H132        3.6119  -14.4406  -50.1575 H         1 UNK         0.0800 
    133 H133        4.5861  -13.5473  -51.2762 H         1 UNK         0.0800 
    134 H134        5.8249  -17.3609  -49.6493 H         1 UNK         0.0800 
    135 H135        4.9756  -16.0003  -48.9762 H         1 UNK         0.0800 
    136 H136        2.4337  -15.9613  -49.0152 H         1 UNK         0.1150 
    137 H137        0.5000  -19.7534  -49.4331 H         1 UNK         0.1150 
    138 H138        4.6614  -19.3707  -50.3624 H         1 UNK         0.1150 
    139 H139        1.6789  -21.5835  -50.5618 H         1 UNK         0.0800 
    140 H140        3.3176  -21.3543  -51.1111 H         1 UNK         0.0800 
    141 H141        1.0025  -21.7594  -48.1574 H         1 UNK         0.0800 
    142 H142        1.4245  -23.4473  -48.1462 H         1 UNK         0.0800 
    143 H143        3.0536  -22.7169  -46.1034 H         1 UNK         0.0600 
    144 H144        0.9238  -20.7945  -45.5477 H         1 UNK         0.3000 
    145 H145        3.2231  -18.4490  -44.2319 H         1 UNK         0.0600 
    146 H146        0.9271  -18.2197  -46.2408 H         1 UNK         0.0600 
    147 H147        1.5538  -16.9216  -45.2321 H         1 UNK         0.0600 
    148 H148        2.5622  -17.6107  -46.4896 H         1 UNK         0.0600 
    149 H149        0.3598  -19.0917  -44.0515 H         1 UNK         0.3000 
    150 H150        0.7708  -20.3300  -40.6771 H         1 UNK         0.0600 
    151 H151        0.1142  -17.9290  -40.9981 H         1 UNK         0.0600 
    152 H152       -1.2669  -18.9511  -40.6424 H         1 UNK         0.0600 
    153 H153       -0.9868  -18.4038  -42.2897 H         1 UNK         0.0600 
    154 H154       -0.3886  -21.2029  -43.2068 H         1 UNK         0.3000 
    155 H155       -1.2278  -23.8264  -42.4030 H         1 UNK         0.0600 
    156 H156       -3.6828  -24.3396  -42.0959 H         1 UNK         0.0600 
    157 H157       -3.8602  -22.8328  -41.2006 H         1 UNK         0.0600 
    158 H158       -2.8202  -24.1061  -40.5842 H         1 UNK         0.0600 
    159 H159       -1.6775  -22.8978  -44.3366 H         1 UNK         0.3000 
    160 H160       -2.3736  -21.7008  -45.9393 H         1 UNK         0.0600 
    161 H161       -5.4286  -21.6199  -45.6581 H         1 UNK         0.0600 
    162 H162       -4.4631  -23.0398  -46.0410 H         1 UNK         0.0600 
    163 H163       -4.5554  -21.7103  -47.1837 H         1 UNK         0.0600 
    164 H164       -4.1623  -19.4954  -46.0619 H         1 UNK         0.3000 
    165 H165       -2.1247  -17.3431  -46.5800 H         1 UNK         0.0600 
    166 H166       -4.6449  -17.3712  -44.8322 H         1 UNK         0.0600 
    167 H167       -4.2087  -16.0757  -45.9434 H         1 UNK         0.0600 
    168 H168       -4.5740  -17.6642  -46.5703 H         1 UNK         0.0600 
    169 H169       -2.1688  -16.9311  -43.6387 H         1 UNK         0.3000 
    170 H170       -1.5668  -14.7826  -42.8884 H         1 UNK         0.0600 
    171 H171        0.4425  -16.3686  -42.8550 H         1 UNK         0.0600 
    172 H172        1.3619  -15.1537  -43.7306 H         1 UNK         0.0600 
    173 H173        0.7567  -14.8074  -42.1143 H         1 UNK         0.0600 
    174 H174        0.3794  -13.1155  -44.3001 H         1 UNK         0.3000 
    175 H175       -1.9036  -10.7673  -45.5696 H         1 UNK         0.0600 
    176 H176       -0.0003  -10.3954  -43.1936 H         1 UNK         0.0600 
    177 H177       -0.5504   -9.1245  -44.2864 H         1 UNK         0.0600 
    178 H178       -1.6981   -9.9354  -43.2326 H         1 UNK         0.0600 
    179 H179        0.9992  -11.0942  -45.3249 H         1 UNK         0.3000 
    180 H180        2.2121  -11.3158  -47.2480 H         1 UNK         0.0600 
    181 H181        2.0081  -13.6063  -46.2556 H         1 UNK         0.0600 
    182 H182        2.9134  -13.6647  -47.7596 H         1 UNK         0.0600 
    183 H183        1.2293  -14.1886  -47.7190 H         1 UNK         0.0600 
    184 H184        1.0596  -12.6697  -49.6260 H         1 UNK         0.3000 
    185 H185        0.4931  -10.9662  -51.5722 H         1 UNK         0.0600 
    186 H186        1.5259   -8.7214  -51.7468 H         1 UNK         0.0600 
    187 H187        3.1290   -9.4374  -51.8762 H         1 UNK         0.0600 
    188 H188        1.9348   -9.6947  -53.1484 H         1 UNK         0.0600 
    189 H189        3.1965  -11.8664  -52.2278 H         1 UNK         0.3000 
    190 H190        2.1118  -24.8998  -46.0469 H         1 UNK         0.3000 
    191 H191        0.3324  -25.2958  -43.8631 H         1 UNK         0.0600 
    192 H192        0.5783  -27.7029  -44.5164 H         1 UNK         0.0600 
    193 H193        2.1364  -26.8972  -44.5267 H         1 UNK         0.0600 
    194 H194        1.3058  -27.2289  -46.0466 H         1 UNK         0.0600 
    195 H195       -1.6876  -26.5150  -43.8979 H         1 UNK         0.3000 
    196 H196       -3.7132  -25.3874  -45.4630 H         1 UNK         0.0600 
    197 H197       -5.1497  -27.1292  -44.3899 H         1 UNK         0.0600 
    198 H198       -4.0709  -26.3922  -43.2187 H         1 UNK         0.0600 
    199 H199       -3.7168  -27.9979  -43.8537 H         1 UNK         0.0600 
    200 H200       -1.7234  -28.1654  -46.1663 H         1 UNK         0.3000 
    201 H201       -3.2757  -29.4729  -48.1460 H         1 UNK         0.0600 
    202 H202       -1.3159  -30.5054  -47.0259 H         1 UNK         0.0600 
    203 H203       -0.2366  -29.3158  -47.7564 H         1 UNK         0.0600 
    204 H204       -1.0728  -30.4908  -48.7646 H         1 UNK         0.0600 
    205 H205       -1.4914  -26.4382  -48.3207 H         1 UNK         0.3000 
    206 H206       -1.2436  -26.3605  -51.2154 H         1 UNK         0.0600 
    207 H207        0.2438  -25.0259  -49.7429 H         1 UNK         0.0600 
    208 H208       -0.6810  -23.9664  -50.7976 H         1 UNK         0.0600 
    209 H209       -1.1427  -24.1414  -49.1092 H         1 UNK         0.0600 
    210 H210       -3.7731  -25.7226  -48.9117 H         1 UNK         0.3000 
    211 H211       -5.8486  -24.9437  -48.9637 H         1 UNK         0.0600 
    212 H212       -5.7966  -26.4236  -51.6544 H         1 UNK         0.0600 
    213 H213       -7.2466  -26.0586  -50.7128 H         1 UNK         0.0600 
    214 H214       -6.0325  -27.1457  -50.0697 H         1 UNK         0.0600 
    215 H215       -6.6325  -24.6000  -52.1859 H         1 UNK         0.3000 
    216 H216       -7.3743  -21.9291  -52.0700 H         1 UNK         0.0600 
    217 H217       -6.8136  -23.6856  -54.5124 H         1 UNK         0.0600 
    218 H218       -7.7371  -22.1878  -54.5286 H         1 UNK         0.0600 
    219 H219       -8.3406  -23.5736  -53.6355 H         1 UNK         0.0600 
    220 H220       -4.2080  -23.2308  -52.9939 H         1 UNK         0.3000 
    221 H221       -3.2833  -20.8812  -54.3922 H         1 UNK         0.0600 
    222 H222       -1.6845  -23.1535  -53.0987 H         1 UNK         0.0600 
    223 H223       -2.3081  -23.1590  -54.7485 H         1 UNK         0.0600 
    224 H224       -1.0825  -21.9931  -54.2724 H         1 UNK         0.0600 
    225 H225       -3.3309  -21.8827  -50.9943 H         1 UNK         0.3000 
    226 H226       -1.6222  -19.5827  -50.1837 H         1 UNK         0.0600 
    227 H227       -1.0469  -21.7899  -49.2446 H         1 UNK         0.0600 
    228 H228       -1.6030  -20.7111  -47.9774 H         1 UNK         0.0600 
    229 H229       -2.6696  -21.9794  -48.5912 H         1 UNK         0.0600 
    230 H230       -4.9648  -20.8176  -49.9902 H         1 UNK         0.3000 
    231 H231       -5.9771  -18.8072  -48.2424 H         1 UNK         0.0600 
    232 H232       -8.1765  -19.5863  -49.0434 H         1 UNK         0.0600 
    233 H233       -7.1304  -20.9700  -48.7592 H         1 UNK         0.0600 
    234 H234       -7.4299  -20.4080  -50.4046 H         1 UNK         0.0600 
    235 H235       -5.0011  -18.6014  -51.5548 H         1 UNK         0.3000 
    236 H236       -6.5287  -16.3182  -52.3814 H         1 UNK         0.0600 
    237 H237       -3.8464  -17.4444  -53.3545 H         1 UNK         0.0600 
    238 H238       -5.4393  -17.8467  -53.9967 H         1 UNK         0.0600 
    239 H239       -4.7966  -16.2259  -54.1967 H         1 UNK         0.0600 
    240 H240       -3.8083  -16.6328  -50.2181 H         1 UNK         0.3000 
    241 H241       -2.7485  -13.9636  -50.5344 H         1 UNK         0.0600 
    242 H242       -2.5757  -12.5569  -48.2452 H         1 UNK         0.3800 
    243 H243       -4.1705  -12.2476  -47.6183 H         1 UNK         0.3800 
    244 H244       -1.4052  -14.5019  -48.5299 H         1 UNK         0.0800 
    245 H245       -2.3853  -15.9110  -48.2233 H         1 UNK         0.0800 
    246 H246        0.2549  -16.4727  -47.9017 H         1 UNK         0.0800 
    247 H247       -0.6316  -17.9248  -48.3044 H         1 UNK         0.0800 
@<TRIPOS>BOND
     1    1    2 1    
     2    1  127 1    
     3    1  128 1    
     4    1  129 1    
     5    2    3 2    
     6    2    4 am   BACKBONE|DICT|INTERRES
     7    4    5 1    
     8    4  130 1    
     9    5    6 1    
    10    5   65 1    
    11    5  131 1    
    12    6    7 1    
    13    6  132 1    
    14    6  133 1    
    15    7    8 1    
    16    8    9 1    
    17    8  134 1    
    18    8  135 1    
    19    9   10 ar   
    20    9   14 ar   
    21   10   11 ar   
    22   10  136 1    
    23   11   12 ar   
    24   11  126 1    
    25   12   13 ar   
    26   12  137 1    
    27   13   14 ar   
    28   13   15 1    
    29   14  138 1    
    30   15   16 1    
    31   15  139 1    
    32   15  140 1    
    33   16   17 1    
    34   17   18 1    
    35   17  141 1    
    36   17  142 1    
    37   18   19 1    
    38   18   67 1    
    39   18  143 1    
    40   19   20 am   BACKBONE|DICT|INTERRES
    41   19  144 1    
    42   20   21 2    
    43   20   22 1    
    44   22   23 1    
    45   22   24 1    
    46   22  145 1    
    47   23  146 1    
    48   23  147 1    
    49   23  148 1    
    50   24   25 am   BACKBONE|DICT|INTERRES
    51   24  149 1    
    52   25   26 2    
    53   25   27 1    
    54   27   28 1    
    55   27   29 1    
    56   27  150 1    
    57   28  151 1    
    58   28  152 1    
    59   28  153 1    
    60   29   30 am   BACKBONE|DICT|INTERRES
    61   29  154 1    
    62   30   31 2    
    63   30   32 1    
    64   32   33 1    
    65   32   34 1    
    66   32  155 1    
    67   33  156 1    
    68   33  157 1    
    69   33  158 1    
    70   34   35 am   BACKBONE|DICT|INTERRES
    71   34  159 1    
    72   35   36 2    
    73   35   37 1    
    74   37   38 1    
    75   37   39 1    
    76   37  160 1    
    77   38  161 1    
    78   38  162 1    
    79   38  163 1    
    80   39   40 am   BACKBONE|DICT|INTERRES
    81   39  164 1    
    82   40   41 2    
    83   40   42 1    
    84   42   43 1    
    85   42   44 1    
    86   42  165 1    
    87   43  166 1    
    88   43  167 1    
    89   43  168 1    
    90   44   45 am   BACKBONE|DICT|INTERRES
    91   44  169 1    
    92   45   46 2    
    93   45   47 1    
    94   47   48 1    
    95   47   49 1    
    96   47  170 1    
    97   48  171 1    
    98   48  172 1    
    99   48  173 1    
   100   49   50 am   BACKBONE|DICT|INTERRES
   101   49  174 1    
   102   50   51 2    
   103   50   52 1    
   104   52   53 1    
   105   52   54 1    
   106   52  175 1    
   107   53  176 1    
   108   53  177 1    
   109   53  178 1    
   110   54   55 am   BACKBONE|DICT|INTERRES
   111   54  179 1    
   112   55   56 2    
   113   55   57 1    
   114   57   58 1    
   115   57   59 1    
   116   57  180 1    
   117   58  181 1    
   118   58  182 1    
   119   58  183 1    
   120   59   60 am   BACKBONE|DICT|INTERRES
   121   59  184 1    
   122   60   61 2    
   123   60   62 1    
   124   62   63 1    
   125   62   64 1    
   126   62  185 1    
   127   63  186 1    
   128   63  187 1    
   129   63  188 1    
   130   64   65 am   BACKBONE|DICT|INTERRES
   131   64  189 1    
   132   65   66 2    
   133   67   68 2    
   134   67   69 am   BACKBONE|DICT|INTERRES
   135   69   70 1    
   136   69  190 1    
   137   70   71 1    
   138   70   72 1    
   139   70  191 1    
   140   71  192 1    
   141   71  193 1    
   142   71  194 1    
   143   72   73 2    
   144   72   74 am   BACKBONE|DICT|INTERRES
   145   74   75 1    
   146   74  195 1    
   147   75   76 1    
   148   75   77 1    
   149   75  196 1    
   150   76  197 1    
   151   76  198 1    
   152   76  199 1    
   153   77   78 2    
   154   77   79 am   BACKBONE|DICT|INTERRES
   155   79   80 1    
   156   79  200 1    
   157   80   81 1    
   158   80   82 1    
   159   80  201 1    
   160   81  202 1    
   161   81  203 1    
   162   81  204 1    
   163   82   83 2    
   164   82   84 am   BACKBONE|DICT|INTERRES
   165   84   85 1    
   166   84  205 1    
   167   85   86 1    
   168   85   87 1    
   169   85  206 1    
   170   86  207 1    
   171   86  208 1    
   172   86  209 1    
   173   87   88 2    
   174   87   89 am   BACKBONE|DICT|INTERRES
   175   89   90 1    
   176   89  210 1    
   177   90   91 1    
   178   90   92 1    
   179   90  211 1    
   180   91  212 1    
   181   91  213 1    
   182   91  214 1    
   183   92   93 2    
   184   92   94 am   BACKBONE|DICT|INTERRES
   185   94   95 1    
   186   94  215 1    
   187   95   96 1    
   188   95   97 1    
   189   95  216 1    
   190   96  217 1    
   191   96  218 1    
   192   96  219 1    
   193   97   98 2    
   194   97   99 am   BACKBONE|DICT|INTERRES
   195   99  100 1    
   196   99  220 1    
   197  100  101 1    
   198  100  102 1    
   199  100  221 1    
   200  101  222 1    
   201  101  223 1    
   202  101  224 1    
   203  102  103 2    
   204  102  104 am   BACKBONE|DICT|INTERRES
   205  104  105 1    
   206  104  225 1    
   207  105  106 1    
   208  105  107 1    
   209  105  226 1    
   210  106  227 1    
   211  106  228 1    
   212  106  229 1    
   213  107  108 2    
   214  107  109 am   BACKBONE|DICT|INTERRES
   215  109  110 1    
   216  109  230 1    
   217  110  111 1    
   218  110  112 1    
   219  110  231 1    
   220  111  232 1    
   221  111  233 1    
   222  111  234 1    
   223  112  113 2    
   224  112  114 am   BACKBONE|DICT|INTERRES
   225  114  115 1    
   226  114  235 1    
   227  115  116 1    
   228  115  117 1    
   229  115  236 1    
   230  116  237 1    
   231  116  238 1    
   232  116  239 1    
   233  117  118 2    
   234  117  119 am   BACKBONE|DICT|INTERRES
   235  119  120 1    
   236  119  240 1    
   237  120  121 1    
   238  120  124 1    
   239  120  241 1    
   240  121  122 am   BACKBONE|DICT|INTERRES
   241  121  123 2    
   242  122  242 1    
   243  122  243 1    
   244  124  125 1    
   245  124  244 1    
   246  124  245 1    
   247  125  126 1    
   248  126  246 1    
   249  126  247 1    
@<TRIPOS>SUBSTRUCTURE
     1 UNK         1 GROUP             0       ****    0 ROOT    
