@<TRIPOS>MOLECULE
3R540
247   249    1
SMALL
USER_CHARGES


@<TRIPOS>ATOM
      1 CA         -0.1224  -12.5387  -54.1847 C.3       0 UNK        -0.1800 
      2 C          -0.1023  -12.5983  -52.6634 C.2       0 UNK         0.5000 
      3 O          -1.1646  -12.6879  -52.0493 O.2       0 UNK        -0.5000 
      4 N           1.1018  -12.5580  -52.0740 N.am      1 UNK        -0.5000 
      5 CA          1.4035  -12.6054  -50.6344 C.3       1 UNK         0.1400 
      6 C6          0.8425  -13.8693  -49.9231 C.3       23 UNK        -0.0398 
      7 S7          1.5786  -15.4129  -50.5503 S.3       23 UNK        -0.2404 
      8 C8          0.9886  -16.5937  -49.2999 C.3       23 UNK        -0.0205 
      9 C9          1.7737  -17.8911  -49.3642 C.ar      23 UNK        -0.0193 
     10 C10         1.4395  -18.8774  -50.2952 C.ar      23 UNK        -0.1150 
     11 C11         2.1866  -20.0564  -50.3780 C.ar      23 UNK        -0.0193 
     12 C12         3.2608  -20.2532  -49.5047 C.ar      23 UNK        -0.1150 
     13 C13         3.5943  -19.2781  -48.5593 C.ar      23 UNK        -0.0193 
     14 C14         2.8482  -18.0991  -48.4961 C.ar      23 UNK        -0.1150 
     15 C15         4.7691  -19.4818  -47.6145 C.3       23 UNK        -0.0205 
     16 S16         4.2369  -20.1646  -46.0137 S.3       23 UNK        -0.2404 
     17 C17         3.8421  -21.8780  -46.4943 C.3       23 UNK        -0.0398 
     18 CA          3.7773  -22.8453  -45.2861 C.3       11 UNK         0.1400 
     19 N           2.7551  -22.4364  -44.3172 N.am      11 UNK        -0.5000 
     20 C           2.8223  -22.6092  -42.9905 C.2       10 UNK         0.5000 
     21 O           3.8065  -23.0670  -42.4099 O.2       10 UNK        -0.5000 
     22 CA          1.5613  -22.2474  -42.1781 C.3       10 UNK         0.1400 
     23 CB          1.6979  -20.8418  -41.5742 C.3       10 UNK        -0.1800 
     24 N           0.3295  -22.3202  -42.9722 N.am      10 UNK        -0.5000 
     25 C          -0.2059  -23.4627  -43.4341 C.2       9 UNK         0.5000 
     26 O           0.2554  -24.5743  -43.1793 O.2       9 UNK        -0.5000 
     27 CA         -1.4057  -23.3593  -44.3998 C.3       9 UNK         0.1400 
     28 CB         -2.7312  -23.5211  -43.6425 C.3       9 UNK        -0.1800 
     29 N          -1.4378  -22.1084  -45.1564 N.am      9 UNK        -0.5000 
     30 C          -0.4842  -21.6839  -45.9966 C.2       8 UNK         0.5000 
     31 O           0.4793  -22.3793  -46.3199 O.2       8 UNK        -0.5000 
     32 CA         -0.5973  -20.2313  -46.5074 C.3       8 UNK         0.1400 
     33 CB         -1.0424  -20.2124  -47.9747 C.3       8 UNK        -0.1800 
     34 N          -1.5051  -19.3925  -45.7090 N.am      8 UNK        -0.5000 
     35 C          -1.2995  -19.0605  -44.4234 C.2       7 UNK         0.5000 
     36 O          -0.3326  -19.4671  -43.7785 O.2       7 UNK        -0.5000 
     37 CA         -2.3588  -18.1883  -43.7242 C.3       7 UNK         0.1400 
     38 CB         -1.7724  -17.3363  -42.5824 C.3       7 UNK        -0.1800 
     39 N          -3.0704  -17.3335  -44.6711 N.am      7 UNK        -0.5000 
     40 C          -4.3520  -16.9593  -44.5506 C.2       6 UNK         0.5000 
     41 O          -5.0682  -17.3006  -43.6079 O.2       6 UNK        -0.5000 
     42 CA         -4.9242  -16.0377  -45.6462 C.3       6 UNK         0.1400 
     43 CB         -6.0095  -15.0859  -45.1116 C.3       6 UNK        -0.1800 
     44 N          -3.8603  -15.2466  -46.2613 N.am      6 UNK        -0.5000 
     45 C          -3.6100  -15.1754  -47.5727 C.2       5 UNK         0.5000 
     46 O          -4.3288  -15.6762  -48.4365 O.2       5 UNK        -0.5000 
     47 CA         -2.3426  -14.4152  -48.0115 C.3       5 UNK         0.1400 
     48 CB         -2.7341  -13.0894  -48.6829 C.3       5 UNK        -0.1800 
     49 N          -1.3536  -14.1574  -46.9564 N.am      5 UNK        -0.5000 
     50 C          -0.7052  -15.1044  -46.2584 C.2       4 UNK         0.5000 
     51 O          -0.9198  -16.3060  -46.4092 O.2       4 UNK        -0.5000 
     52 CA          0.3548  -14.6681  -45.2242 C.3       4 UNK         0.1400 
     53 CB          1.7531  -15.1453  -45.6482 C.3       4 UNK        -0.1800 
     54 N           0.4049  -13.2270  -44.9839 N.am      4 UNK        -0.5000 
     55 C          -0.5261  -12.5060  -44.3442 C.2       3 UNK         0.5000 
     56 O          -1.5298  -12.9954  -43.8255 O.2       3 UNK        -0.5000 
     57 CA         -0.3167  -10.9759  -44.3209 C.3       3 UNK         0.1400 
     58 CB          0.2922  -10.5379  -42.9804 C.3       3 UNK        -0.1800 
     59 N           0.5258  -10.4734  -45.4161 N.am      3 UNK        -0.5000 
     60 C           0.2360  -10.5817  -46.7212 C.2       2 UNK         0.5000 
     61 O          -0.7954  -11.1158  -47.1292 O.2       2 UNK        -0.5000 
     62 CA          1.2742  -10.0673  -47.7402 C.3       2 UNK         0.1400 
     63 CB          2.5900   -9.5770  -47.1022 C.3       2 UNK        -0.1800 
     64 N           1.5831  -11.1412  -48.6857 N.am      2 UNK        -0.5000 
     65 C           1.0098  -11.3079  -49.8854 C.2       1 UNK         0.5000 
     66 O           0.2376  -10.4873  -50.3872 O.2       1 UNK        -0.5000 
     67 C           3.5412  -24.2932  -45.7761 C.2       11 UNK         0.5000 
     68 O           4.3097  -24.7741  -46.6097 O.2       11 UNK        -0.5000 
     69 N           2.4816  -24.9521  -45.2771 N.am      12 UNK        -0.5000 
     70 CA          1.9876  -26.2765  -45.6628 C.3       12 UNK         0.1400 
     71 CB          3.0109  -27.3774  -45.3128 C.3       12 UNK        -0.1800 
     72 C           1.5061  -26.3314  -47.1282 C.2       12 UNK         0.5000 
     73 O           1.6573  -27.3620  -47.7866 O.2       12 UNK        -0.5000 
     74 N           0.9242  -25.2225  -47.6146 N.am      13 UNK        -0.5000 
     75 CA          0.4036  -25.0939  -48.9792 C.3       13 UNK         0.1400 
     76 CB          0.0638  -23.6206  -49.2506 C.3       13 UNK        -0.1800 
     77 C          -0.8338  -25.9711  -49.2504 C.2       13 UNK         0.5000 
     78 O          -1.0554  -26.3605  -50.3971 O.2       13 UNK        -0.5000 
     79 N          -1.6198  -26.2396  -48.1937 N.am      14 UNK        -0.5000 
     80 CA         -2.8792  -26.9991  -48.1884 C.3       14 UNK         0.1400 
     81 CB         -2.6235  -28.4830  -48.5250 C.3       14 UNK        -0.1800 
     82 C          -3.9821  -26.3646  -49.0669 C.2       14 UNK         0.5000 
     83 O          -4.8503  -27.0709  -49.5833 O.2       14 UNK        -0.5000 
     84 N          -3.9179  -25.0366  -49.2248 N.am      15 UNK        -0.5000 
     85 CA         -4.8474  -24.2312  -50.0090 C.3       15 UNK         0.1400 
     86 CB         -4.2197  -22.8472  -50.2231 C.3       15 UNK        -0.1800 
     87 C          -6.2105  -24.0931  -49.3122 C.2       15 UNK         0.5000 
     88 O          -6.2685  -24.0447  -48.0796 O.2       15 UNK        -0.5000 
     89 N          -7.2759  -23.9771  -50.1156 N.am      16 UNK        -0.5000 
     90 CA         -8.6419  -23.7124  -49.6612 C.3       16 UNK         0.1400 
     91 CB         -9.5921  -23.7278  -50.8682 C.3       16 UNK        -0.1800 
     92 C          -8.7182  -22.3673  -48.9184 C.2       16 UNK         0.5000 
     93 O          -8.3059  -21.3474  -49.4735 O.2       16 UNK        -0.5000 
     94 N          -9.1724  -22.4090  -47.6580 N.am      17 UNK        -0.5000 
     95 CA         -9.2222  -21.2917  -46.7039 C.3       17 UNK         0.1400 
     96 CB        -10.2614  -20.2433  -47.1544 C.3       17 UNK        -0.1800 
     97 C          -7.8409  -20.6613  -46.4013 C.2       17 UNK         0.5000 
     98 O          -7.7814  -19.5065  -45.9765 O.2       17 UNK        -0.5000 
     99 N          -6.7596  -21.4258  -46.6336 N.am      18 UNK        -0.5000 
    100 CA        -5.3511  -21.0345  -46.5143 C.3       18 UNK         0.1400 
    101 CB        -4.9862  -20.7786  -45.0378 C.3       18 UNK        -0.1800 
    102 C         -4.9536  -19.8695  -47.4506 C.2       18 UNK         0.5000 
    103 O         -4.0661  -19.0872  -47.1053 O.2       18 UNK        -0.5000 
    104 N         -5.6217  -19.7782  -48.6105 N.am      19 UNK        -0.5000 
    105 CA        -5.4273  -18.7473  -49.6306 C.3       19 UNK         0.1400 
    106 CB        -6.5113  -18.9163  -50.7065 C.3       19 UNK        -0.1800 
    107 C         -4.0302  -18.7650  -50.2823 C.2       19 UNK         0.5000 
    108 O         -3.3422  -19.7877  -50.2618 O.2       19 UNK        -0.5000 
    109 N         -3.6600  -17.6377  -50.9034 N.am      20 UNK        -0.5000 
    110 CA        -2.3997  -17.4069  -51.6133 C.3       20 UNK         0.1400 
    111 CB        -2.2286  -15.8934  -51.8324 C.3       20 UNK        -0.1800 
    112 C         -2.2786  -18.1944  -52.9379 C.2       20 UNK         0.5000 
    113 O         -2.1318  -17.5967  -54.0060 O.2       20 UNK        -0.5000 
    114 N         -2.3113  -19.5299  -52.8498 N.am      21 UNK        -0.5000 
    115 CA        -2.1987  -20.4717  -53.9708 C.3       21 UNK         0.1400 
    116 CB        -2.4035  -21.8985  -53.4407 C.3       21 UNK        -0.1800 
    117 C         -0.8740  -20.3706  -54.7568 C.2       21 UNK         0.5000 
    118 O         -0.8314  -20.7453  -55.9291 O.2       21 UNK        -0.5000 
    119 N          0.1677  -19.8454  -54.1025 N.am      22 UNK        -0.5000 
    120 CA         1.4661  -19.5009  -54.6982 C.3       22 UNK         0.1400 
    121 C          1.4515  -18.1832  -55.5322 C.2       22 UNK         0.5000 
    122 N          0.3843  -17.3914  -55.5367 N.am      22 UNK        -0.7600 
    123 O          2.4325  -17.8761  -56.2039 O.2       22 UNK        -0.5000 
    124 C124        2.5844  -19.4626  -53.6246 C.3       23 UNK        -0.0398 
    125 S125        2.9120  -21.0940  -52.8681 S.3       23 UNK        -0.2404 
    126 C126        1.8273  -21.1218  -51.4029 C.3       23 UNK        -0.0205 
    127 H127       -0.6923  -11.6717  -54.5186 H         1 UNK         0.0600 
    128 H128       -0.5953  -13.4348  -54.5870 H         1 UNK         0.0600 
    129 H129        0.8819  -12.4678  -54.6030 H         1 UNK         0.0600 
    130 H130        1.9157  -12.4650  -52.6648 H         1 UNK         0.3000 
    131 H131        2.4923  -12.6550  -50.5777 H         1 UNK         0.0600 
    132 H132        1.0329  -13.8252  -48.8501 H         1 UNK         0.0800 
    133 H133       -0.2371  -13.9359  -50.0358 H         1 UNK         0.0800 
    134 H134        1.0963  -16.1572  -48.3088 H         1 UNK         0.0800 
    135 H135       -0.0760  -16.7842  -49.4360 H         1 UNK         0.0800 
    136 H136        0.6093  -18.7169  -50.9662 H         1 UNK         0.1150 
    137 H137        3.8388  -21.1644  -49.5656 H         1 UNK         0.1150 
    138 H138        3.1102  -17.3397  -47.7728 H         1 UNK         0.1150 
    139 H139        5.5189  -20.1322  -48.0674 H         1 UNK         0.0800 
    140 H140        5.2661  -18.5265  -47.4394 H         1 UNK         0.0800 
    141 H141        2.9004  -21.8745  -47.0444 H         1 UNK         0.0800 
    142 H142        4.6051  -22.2104  -47.2004 H         1 UNK         0.0800 
    143 H143        4.7550  -22.8361  -44.7999 H         1 UNK         0.0600 
    144 H144        1.9013  -22.0727  -44.7206 H         1 UNK         0.3000 
    145 H145        1.4782  -22.9633  -41.3576 H         1 UNK         0.0600 
    146 H146        0.8135  -20.5694  -40.9979 H         1 UNK         0.0600 
    147 H147        1.8428  -20.0849  -42.3459 H         1 UNK         0.0600 
    148 H148        2.5547  -20.7892  -40.9014 H         1 UNK         0.0600 
    149 H149       -0.0753  -21.4309  -43.2469 H         1 UNK         0.3000 
    150 H150       -1.3184  -24.1786  -45.1163 H         1 UNK         0.0600 
    151 H151       -2.7438  -24.4495  -43.0699 H         1 UNK         0.0600 
    152 H152       -3.5760  -23.5557  -44.3307 H         1 UNK         0.0600 
    153 H153       -2.8987  -22.7012  -42.9429 H         1 UNK         0.0600 
    154 H154       -2.1852  -21.4684  -44.9397 H         1 UNK         0.3000 
    155 H155        0.3994  -19.7880  -46.4510 H         1 UNK         0.0600 
    156 H156       -0.3125  -20.7139  -48.6103 H         1 UNK         0.0600 
    157 H157       -1.1463  -19.1921  -48.3451 H         1 UNK         0.0600 
    158 H158       -1.9984  -20.7183  -48.1107 H         1 UNK         0.0600 
    159 H159       -2.3454  -19.0660  -46.1804 H         1 UNK         0.3000 
    160 H160       -3.0668  -18.8932  -43.2843 H         1 UNK         0.0600 
    161 H161       -1.0183  -16.6419  -42.9489 H         1 UNK         0.0600 
    162 H162       -1.3011  -17.9631  -41.8243 H         1 UNK         0.0600 
    163 H163       -2.5473  -16.7559  -42.0816 H         1 UNK         0.0600 
    164 H164       -2.5318  -17.0292  -45.4776 H         1 UNK         0.3000 
    165 H165       -5.3837  -16.6980  -46.3846 H         1 UNK         0.0600 
    166 H166       -6.4014  -14.4515  -45.9068 H         1 UNK         0.0600 
    167 H167       -6.8520  -15.6417  -44.6984 H         1 UNK         0.0600 
    168 H168       -5.6216  -14.4376  -44.3251 H         1 UNK         0.0600 
    169 H169       -3.2192  -14.7917  -45.6260 H         1 UNK         0.3000 
    170 H170       -1.8501  -15.0486  -48.7481 H         1 UNK         0.0600 
    171 H171       -3.2135  -12.4110  -47.9763 H         1 UNK         0.0600 
    172 H172       -1.8686  -12.5766  -49.1005 H         1 UNK         0.0600 
    173 H173       -3.4313  -13.2549  -49.5053 H         1 UNK         0.0600 
    174 H174       -1.1366  -13.1821  -46.7830 H         1 UNK         0.3000 
    175 H175        0.1040  -15.1565  -44.2823 H         1 UNK         0.0600 
    176 H176        2.0780  -14.6731  -46.5758 H         1 UNK         0.0600 
    177 H177        2.4946  -14.9217  -44.8810 H         1 UNK         0.0600 
    178 H178        1.7694  -16.2252  -45.8034 H         1 UNK         0.0600 
    179 H179        1.1979  -12.7345  -45.3664 H         1 UNK         0.3000 
    180 H180       -1.3008  -10.5129  -44.4184 H         1 UNK         0.0600 
    181 H181        0.3647   -9.4521  -42.9155 H         1 UNK         0.0600 
    182 H182        1.2914  -10.9515  -42.8381 H         1 UNK         0.0600 
    183 H183       -0.3233  -10.8712  -42.1437 H         1 UNK         0.0600 
    184 H184        1.3917  -10.0275  -45.1489 H         1 UNK         0.3000 
    185 H185        0.8194   -9.2218  -48.2601 H         1 UNK         0.0600 
    186 H186        3.2822   -9.2249  -47.8676 H         1 UNK         0.0600 
    187 H187        2.4162   -8.7389  -46.4260 H         1 UNK         0.0600 
    188 H188        3.0947  -10.3657  -46.5426 H         1 UNK         0.0600 
    189 H189        2.2233  -11.8463  -48.3510 H         1 UNK         0.3000 
    190 H190        1.9232  -24.4805  -44.5772 H         1 UNK         0.3000 
    191 H191        1.1009  -26.4556  -45.0535 H         1 UNK         0.0600 
    192 H192        2.5795  -28.3693  -45.4519 H         1 UNK         0.0600 
    193 H193        3.3257  -27.3056  -44.2717 H         1 UNK         0.0600 
    194 H194        3.9020  -27.3201  -45.9382 H         1 UNK         0.0600 
    195 H195        0.8670  -24.3958  -47.0308 H         1 UNK         0.3000 
    196 H196        1.1915  -25.3987  -49.6712 H         1 UNK         0.0600 
    197 H197       -0.2010  -23.4660  -50.2973 H         1 UNK         0.0600 
    198 H198        0.9103  -22.9725  -49.0244 H         1 UNK         0.0600 
    199 H199       -0.7812  -23.2853  -48.6487 H         1 UNK         0.0600 
    200 H200       -1.3308  -25.8690  -47.3006 H         1 UNK         0.3000 
    201 H201       -3.2542  -26.9567  -47.1649 H         1 UNK         0.0600 
    202 H202       -2.3153  -28.6161  -49.5623 H         1 UNK         0.0600 
    203 H203       -3.5232  -29.0802  -48.3727 H         1 UNK         0.0600 
    204 H204       -1.8453  -28.9029  -47.8877 H         1 UNK         0.0600 
    205 H205       -3.1889  -24.5370  -48.7408 H         1 UNK         0.3000 
    206 H206       -4.9876  -24.7102  -50.9804 H         1 UNK         0.0600 
    207 H207       -3.2553  -22.9236  -50.7246 H         1 UNK         0.0600 
    208 H208       -4.8594  -22.2134  -50.8387 H         1 UNK         0.0600 
    209 H209       -4.0580  -22.3272  -49.2785 H         1 UNK         0.0600 
    210 H210       -7.1372  -23.9906  -51.1154 H         1 UNK         0.3000 
    211 H211       -8.9332  -24.5171  -48.9830 H         1 UNK         0.0600 
    212 H212       -9.3304  -22.9599  -51.5975 H         1 UNK         0.0600 
    213 H213      -10.6212  -23.5461  -50.5557 H         1 UNK         0.0600 
    214 H214       -9.5723  -24.6930  -51.3746 H         1 UNK         0.0600 
    215 H215       -9.4567  -23.3042  -47.2842 H         1 UNK         0.3000 
    216 H216       -9.5695  -21.7141  -45.7601 H         1 UNK         0.0600 
    217 H217      -10.4223  -19.4920  -46.3805 H         1 UNK         0.0600 
    218 H218      -11.2265  -20.7067  -47.3586 H         1 UNK         0.0600 
    219 H219       -9.9430  -19.7191  -48.0561 H         1 UNK         0.0600 
    220 H220       -6.9086  -22.3608  -46.9986 H         1 UNK         0.3000 
    221 H221       -4.7702  -21.8953  -46.8480 H         1 UNK         0.0600 
    222 H222       -3.9143  -20.6421  -44.9162 H         1 UNK         0.0600 
    223 H223       -5.4746  -19.8851  -44.6491 H         1 UNK         0.0600 
    224 H224       -5.2781  -21.6186  -44.4079 H         1 UNK         0.0600 
    225 H225       -6.3510  -20.4534  -48.8017 H         1 UNK         0.3000 
    226 H226       -5.5709  -17.7816  -49.1462 H         1 UNK         0.0600 
    227 H227       -7.5090  -18.8242  -50.2769 H         1 UNK         0.0600 
    228 H228       -6.4248  -18.1551  -51.4828 H         1 UNK         0.0600 
    229 H229       -6.4443  -19.8908  -51.1922 H         1 UNK         0.0600 
    230 H230       -4.2896  -16.8488  -50.8642 H         1 UNK         0.3000 
    231 H231       -1.5899  -17.7448  -50.9659 H         1 UNK         0.0600 
    232 H232       -1.2525  -15.6681  -52.2644 H         1 UNK         0.0600 
    233 H233       -2.3008  -15.3398  -50.8997 H         1 UNK         0.0600 
    234 H234       -2.9865  -15.4943  -52.5077 H         1 UNK         0.0600 
    235 H235       -2.5031  -19.9255  -51.9319 H         1 UNK         0.3000 
    236 H236       -3.0056  -20.2474  -54.6713 H         1 UNK         0.0600 
    237 H237       -1.6676  -22.1537  -52.6770 H         1 UNK         0.0600 
    238 H238       -3.3964  -22.0140  -53.0068 H         1 UNK         0.0600 
    239 H239       -2.3150  -22.6331  -54.2422 H         1 UNK         0.0600 
    240 H240        0.0254  -19.5579  -53.1483 H         1 UNK         0.3000 
    241 H241        1.7226  -20.2898  -55.4080 H         1 UNK         0.0600 
    242 H242        0.4034  -16.5517  -56.0927 H         1 UNK         0.3800 
    243 H243       -0.4503  -17.6120  -55.0028 H         1 UNK         0.3800 
    244 H244        2.3632  -18.7202  -52.8586 H         1 UNK         0.0800 
    245 H245        3.5263  -19.1436  -54.0744 H         1 UNK         0.0800 
    246 H246        0.7833  -21.0353  -51.7040 H         1 UNK         0.0800 
    247 H247        1.9227  -22.1045  -50.9421 H         1 UNK         0.0800 
@<TRIPOS>BOND
     1    1    2 1    
     2    1  127 1    
     3    1  128 1    
     4    1  129 1    
     5    2    3 2    
     6    2    4 am   BACKBONE|DICT|INTERRES
     7    4    5 1    
     8    4  130 1    
     9    5    6 1    
    10    5   65 1    
    11    5  131 1    
    12    6    7 1    
    13    6  132 1    
    14    6  133 1    
    15    7    8 1    
    16    8    9 1    
    17    8  134 1    
    18    8  135 1    
    19    9   10 ar   
    20    9   14 ar   
    21   10   11 ar   
    22   10  136 1    
    23   11   12 ar   
    24   11  126 1    
    25   12   13 ar   
    26   12  137 1    
    27   13   14 ar   
    28   13   15 1    
    29   14  138 1    
    30   15   16 1    
    31   15  139 1    
    32   15  140 1    
    33   16   17 1    
    34   17   18 1    
    35   17  141 1    
    36   17  142 1    
    37   18   19 1    
    38   18   67 1    
    39   18  143 1    
    40   19   20 am   BACKBONE|DICT|INTERRES
    41   19  144 1    
    42   20   21 2    
    43   20   22 1    
    44   22   23 1    
    45   22   24 1    
    46   22  145 1    
    47   23  146 1    
    48   23  147 1    
    49   23  148 1    
    50   24   25 am   BACKBONE|DICT|INTERRES
    51   24  149 1    
    52   25   26 2    
    53   25   27 1    
    54   27   28 1    
    55   27   29 1    
    56   27  150 1    
    57   28  151 1    
    58   28  152 1    
    59   28  153 1    
    60   29   30 am   BACKBONE|DICT|INTERRES
    61   29  154 1    
    62   30   31 2    
    63   30   32 1    
    64   32   33 1    
    65   32   34 1    
    66   32  155 1    
    67   33  156 1    
    68   33  157 1    
    69   33  158 1    
    70   34   35 am   BACKBONE|DICT|INTERRES
    71   34  159 1    
    72   35   36 2    
    73   35   37 1    
    74   37   38 1    
    75   37   39 1    
    76   37  160 1    
    77   38  161 1    
    78   38  162 1    
    79   38  163 1    
    80   39   40 am   BACKBONE|DICT|INTERRES
    81   39  164 1    
    82   40   41 2    
    83   40   42 1    
    84   42   43 1    
    85   42   44 1    
    86   42  165 1    
    87   43  166 1    
    88   43  167 1    
    89   43  168 1    
    90   44   45 am   BACKBONE|DICT|INTERRES
    91   44  169 1    
    92   45   46 2    
    93   45   47 1    
    94   47   48 1    
    95   47   49 1    
    96   47  170 1    
    97   48  171 1    
    98   48  172 1    
    99   48  173 1    
   100   49   50 am   BACKBONE|DICT|INTERRES
   101   49  174 1    
   102   50   51 2    
   103   50   52 1    
   104   52   53 1    
   105   52   54 1    
   106   52  175 1    
   107   53  176 1    
   108   53  177 1    
   109   53  178 1    
   110   54   55 am   BACKBONE|DICT|INTERRES
   111   54  179 1    
   112   55   56 2    
   113   55   57 1    
   114   57   58 1    
   115   57   59 1    
   116   57  180 1    
   117   58  181 1    
   118   58  182 1    
   119   58  183 1    
   120   59   60 am   BACKBONE|DICT|INTERRES
   121   59  184 1    
   122   60   61 2    
   123   60   62 1    
   124   62   63 1    
   125   62   64 1    
   126   62  185 1    
   127   63  186 1    
   128   63  187 1    
   129   63  188 1    
   130   64   65 am   BACKBONE|DICT|INTERRES
   131   64  189 1    
   132   65   66 2    
   133   67   68 2    
   134   67   69 am   BACKBONE|DICT|INTERRES
   135   69   70 1    
   136   69  190 1    
   137   70   71 1    
   138   70   72 1    
   139   70  191 1    
   140   71  192 1    
   141   71  193 1    
   142   71  194 1    
   143   72   73 2    
   144   72   74 am   BACKBONE|DICT|INTERRES
   145   74   75 1    
   146   74  195 1    
   147   75   76 1    
   148   75   77 1    
   149   75  196 1    
   150   76  197 1    
   151   76  198 1    
   152   76  199 1    
   153   77   78 2    
   154   77   79 am   BACKBONE|DICT|INTERRES
   155   79   80 1    
   156   79  200 1    
   157   80   81 1    
   158   80   82 1    
   159   80  201 1    
   160   81  202 1    
   161   81  203 1    
   162   81  204 1    
   163   82   83 2    
   164   82   84 am   BACKBONE|DICT|INTERRES
   165   84   85 1    
   166   84  205 1    
   167   85   86 1    
   168   85   87 1    
   169   85  206 1    
   170   86  207 1    
   171   86  208 1    
   172   86  209 1    
   173   87   88 2    
   174   87   89 am   BACKBONE|DICT|INTERRES
   175   89   90 1    
   176   89  210 1    
   177   90   91 1    
   178   90   92 1    
   179   90  211 1    
   180   91  212 1    
   181   91  213 1    
   182   91  214 1    
   183   92   93 2    
   184   92   94 am   BACKBONE|DICT|INTERRES
   185   94   95 1    
   186   94  215 1    
   187   95   96 1    
   188   95   97 1    
   189   95  216 1    
   190   96  217 1    
   191   96  218 1    
   192   96  219 1    
   193   97   98 2    
   194   97   99 am   BACKBONE|DICT|INTERRES
   195   99  100 1    
   196   99  220 1    
   197  100  101 1    
   198  100  102 1    
   199  100  221 1    
   200  101  222 1    
   201  101  223 1    
   202  101  224 1    
   203  102  103 2    
   204  102  104 am   BACKBONE|DICT|INTERRES
   205  104  105 1    
   206  104  225 1    
   207  105  106 1    
   208  105  107 1    
   209  105  226 1    
   210  106  227 1    
   211  106  228 1    
   212  106  229 1    
   213  107  108 2    
   214  107  109 am   BACKBONE|DICT|INTERRES
   215  109  110 1    
   216  109  230 1    
   217  110  111 1    
   218  110  112 1    
   219  110  231 1    
   220  111  232 1    
   221  111  233 1    
   222  111  234 1    
   223  112  113 2    
   224  112  114 am   BACKBONE|DICT|INTERRES
   225  114  115 1    
   226  114  235 1    
   227  115  116 1    
   228  115  117 1    
   229  115  236 1    
   230  116  237 1    
   231  116  238 1    
   232  116  239 1    
   233  117  118 2    
   234  117  119 am   BACKBONE|DICT|INTERRES
   235  119  120 1    
   236  119  240 1    
   237  120  121 1    
   238  120  124 1    
   239  120  241 1    
   240  121  122 am   BACKBONE|DICT|INTERRES
   241  121  123 2    
   242  122  242 1    
   243  122  243 1    
   244  124  125 1    
   245  124  244 1    
   246  124  245 1    
   247  125  126 1    
   248  126  246 1    
   249  126  247 1    
@<TRIPOS>SUBSTRUCTURE
     1 UNK         1 GROUP             0       ****    0 ROOT    
