@<TRIPOS>MOLECULE
3R540
247   249    1
SMALL
USER_CHARGES


@<TRIPOS>ATOM
      1 CA          0.0853  -15.3929  -52.3552 C.3       0 UNK        -0.1800 
      2 C           0.2980  -15.0758  -50.8822 C.2       0 UNK         0.5000 
      3 O           1.2515  -15.5736  -50.2849 O.2       0 UNK        -0.5000 
      4 N          -0.5868  -14.2556  -50.2998 N.am      1 UNK        -0.5000 
      5 CA         -0.5391  -13.8185  -48.8997 C.3       1 UNK         0.1400 
      6 C6         -1.8678  -13.1397  -48.4730 C.3       23 UNK        -0.0398 
      7 S7         -2.2641  -13.4248  -46.7107 S.3       23 UNK        -0.2404 
      8 C8         -4.0622  -13.7167  -46.7607 C.3       23 UNK        -0.0205 
      9 C9         -4.4071  -15.1895  -46.9354 C.ar      23 UNK        -0.0193 
     10 C10        -4.3495  -15.7856  -48.1964 C.ar      23 UNK        -0.1150 
     11 C11        -4.6667  -17.1353  -48.3648 C.ar      23 UNK        -0.0193 
     12 C12        -5.1035  -17.8788  -47.2650 C.ar      23 UNK        -0.1150 
     13 C13        -5.1743  -17.2972  -45.9929 C.ar      23 UNK        -0.0193 
     14 C14        -4.8136  -15.9542  -45.8378 C.ar      23 UNK        -0.1150 
     15 C15        -5.6730  -18.0791  -44.7776 C.3       23 UNK        -0.0205 
     16 S16        -5.1559  -19.8299  -44.7197 S.3       23 UNK        -0.2404 
     17 C17        -3.3378  -19.6860  -44.7292 C.3       23 UNK        -0.0398 
     18 CA         -2.7165  -20.2935  -46.0108 C.3       11 UNK         0.1400 
     19 N          -1.4268  -19.6861  -46.3345 N.am      11 UNK        -0.5000 
     20 C          -0.7387  -19.9039  -47.4632 C.2       10 UNK         0.5000 
     21 O          -1.1324  -20.6234  -48.3810 O.2       10 UNK        -0.5000 
     22 CA          0.6562  -19.2605  -47.5465 C.3       10 UNK         0.1400 
     23 CB          0.5468  -17.7730  -47.9111 C.3       10 UNK        -0.1800 
     24 N           1.4160  -19.4178  -46.3033 N.am      10 UNK        -0.5000 
     25 C           1.7735  -20.6010  -45.7811 C.2       9 UNK         0.5000 
     26 O           1.5575  -21.6814  -46.3290 O.2       9 UNK        -0.5000 
     27 CA          2.4406  -20.5857  -44.3942 C.3       9 UNK         0.1400 
     28 CB          3.9340  -20.2483  -44.5116 C.3       9 UNK        -0.1800 
     29 N           1.7924  -19.6629  -43.4611 N.am      9 UNK        -0.5000 
     30 C           0.5267  -19.7751  -43.0317 C.2       8 UNK         0.5000 
     31 O          -0.2223  -20.6996  -43.3447 O.2       8 UNK        -0.5000 
     32 CA         -0.0162  -18.6326  -42.1530 C.3       8 UNK         0.1400 
     33 CB          0.4491  -18.7825  -40.6975 C.3       8 UNK        -0.1800 
     34 N           0.3554  -17.3118  -42.6621 N.am      8 UNK        -0.5000 
     35 C          -0.0197  -16.8344  -43.8579 C.2       7 UNK         0.5000 
     36 O          -0.7629  -17.4361  -44.6313 O.2       7 UNK        -0.5000 
     37 CA          0.5791  -15.4844  -44.2829 C.3       7 UNK         0.1400 
     38 CB         -0.2093  -14.3246  -43.6577 C.3       7 UNK        -0.1800 
     39 N           2.0017  -15.3899  -43.9420 N.am      7 UNK        -0.5000 
     40 C           2.9558  -16.1315  -44.5266 C.2       6 UNK         0.5000 
     41 O           2.7427  -16.8863  -45.4746 O.2       6 UNK        -0.5000 
     42 CA          4.3685  -16.0717  -43.9170 C.3       6 UNK         0.1400 
     43 CB          5.2097  -14.9440  -44.5311 C.3       6 UNK        -0.1800 
     44 N           4.3345  -15.9321  -42.4613 N.am      6 UNK        -0.5000 
     45 C           4.0057  -16.9327  -41.6320 C.2       5 UNK         0.5000 
     46 O           3.7245  -18.0660  -42.0183 O.2       5 UNK        -0.5000 
     47 CA          3.9468  -16.6200  -40.1255 C.3       5 UNK         0.1400 
     48 CB          5.3031  -16.9075  -39.4651 C.3       5 UNK        -0.1800 
     49 N           3.5471  -15.2458  -39.8232 N.am      5 UNK        -0.5000 
     50 C           2.3665  -14.6966  -40.1379 C.2       4 UNK         0.5000 
     51 O           1.4755  -15.3033  -40.7363 O.2       4 UNK        -0.5000 
     52 CA          2.1468  -13.2182  -39.7427 C.3       4 UNK         0.1400 
     53 CB          3.3396  -12.5834  -38.9920 C.3       4 UNK        -0.1800 
     54 N           1.7792  -12.3685  -40.8813 N.am      4 UNK        -0.5000 
     55 C           2.4257  -12.2601  -42.0498 C.2       3 UNK         0.5000 
     56 O           3.4045  -12.9408  -42.3693 O.2       3 UNK        -0.5000 
     57 CA          1.8918  -11.2022  -43.0240 C.3       3 UNK         0.1400 
     58 CB          2.4583   -9.8114  -42.6926 C.3       3 UNK        -0.1800 
     59 N           2.2746  -11.5783  -44.3808 N.am      3 UNK        -0.5000 
     60 C           1.5677  -11.3143  -45.4839 C.2       2 UNK         0.5000 
     61 O           0.5278  -10.6535  -45.4800 O.2       2 UNK        -0.5000 
     62 CA          2.0651  -11.9060  -46.8133 C.3       2 UNK         0.1400 
     63 CB          3.3783  -12.7065  -46.7203 C.3       2 UNK        -0.1800 
     64 N           1.0114  -12.7694  -47.3319 N.am      2 UNK        -0.5000 
     65 C           0.6683  -12.8937  -48.6159 C.2       1 UNK         0.5000 
     66 O           1.2290  -12.2918  -49.5364 O.2       1 UNK        -0.5000 
     67 C          -2.6262  -21.8313  -45.9318 C.2       11 UNK         0.5000 
     68 O          -3.4413  -22.5185  -46.5457 O.2       11 UNK        -0.5000 
     69 N          -1.6112  -22.3436  -45.2217 N.am      12 UNK        -0.5000 
     70 CA         -1.3323  -23.7731  -45.0774 C.3       12 UNK         0.1400 
     71 CB         -0.2090  -23.9734  -44.0491 C.3       12 UNK        -0.1800 
     72 C          -0.9830  -24.4670  -46.4075 C.2       12 UNK         0.5000 
     73 O          -1.3705  -25.6183  -46.6031 O.2       12 UNK        -0.5000 
     74 N          -0.2749  -23.7582  -47.2973 N.am      13 UNK        -0.5000 
     75 CA          0.0510  -24.2168  -48.6471 C.3       13 UNK         0.1400 
     76 CB          1.1599  -23.3310  -49.2356 C.3       13 UNK        -0.1800 
     77 C          -1.1773  -24.2457  -49.5761 C.2       13 UNK         0.5000 
     78 O          -1.3081  -25.1754  -50.3726 O.2       13 UNK        -0.5000 
     79 N          -2.0470  -23.2321  -49.4631 N.am      14 UNK        -0.5000 
     80 CA         -3.2844  -23.1132  -50.2344 C.3       14 UNK         0.1400 
     81 CB         -3.8113  -21.6735  -50.1248 C.3       14 UNK        -0.1800 
     82 C          -4.3648  -24.1219  -49.8011 C.2       14 UNK         0.5000 
     83 O          -5.1028  -24.6182  -50.6518 O.2       14 UNK        -0.5000 
     84 N          -4.4527  -24.3952  -48.4924 N.am      15 UNK        -0.5000 
     85 CA         -5.3912  -25.3417  -47.8906 C.3       15 UNK         0.1400 
     86 CB         -5.3001  -25.2381  -46.3602 C.3       15 UNK        -0.1800 
     87 C          -5.1448  -26.7926  -48.3465 C.2       15 UNK         0.5000 
     88 O          -3.9930  -27.2246  -48.4230 O.2       15 UNK        -0.5000 
     89 N          -6.2429  -27.5168  -48.6133 N.am      16 UNK        -0.5000 
     90 CA         -6.2960  -28.9185  -49.0569 C.3       16 UNK         0.1400 
     91 CB         -5.8216  -29.8621  -47.9314 C.3       16 UNK        -0.1800 
     92 C          -5.5736  -29.1769  -50.3997 C.2       16 UNK         0.5000 
     93 O          -5.0741  -30.2793  -50.6340 O.2       16 UNK        -0.5000 
     94 N          -5.5373  -28.1551  -51.2601 N.am      17 UNK        -0.5000 
     95 CA         -4.8762  -28.1346  -52.5590 C.3       17 UNK         0.1400 
     96 CB         -3.3575  -27.9428  -52.3606 C.3       17 UNK        -0.1800 
     97 C          -5.4940  -27.0054  -53.4012 C.2       17 UNK         0.5000 
     98 O          -6.4820  -26.3928  -52.9848 O.2       17 UNK        -0.5000 
     99 N          -4.9021  -26.7371  -54.5709 N.am      18 UNK        -0.5000 
    100 CA        -5.1743  -25.5351  -55.3566 C.3       18 UNK         0.1400 
    101 CB        -4.6345  -25.7278  -56.7824 C.3       18 UNK        -0.1800 
    102 C         -4.5156  -24.3146  -54.6878 C.2       18 UNK         0.5000 
    103 O         -3.3804  -24.4204  -54.2170 O.2       18 UNK        -0.5000 
    104 N         -5.2259  -23.1800  -54.6705 N.am      19 UNK        -0.5000 
    105 CA        -4.7497  -21.9312  -54.0710 C.3       19 UNK         0.1400 
    106 CB        -5.9278  -20.9574  -53.9213 C.3       19 UNK        -0.1800 
    107 C         -3.6020  -21.2802  -54.8642 C.2       19 UNK         0.5000 
    108 O         -2.7272  -20.6607  -54.2583 O.2       19 UNK        -0.5000 
    109 N         -3.6251  -21.4411  -56.1972 N.am      20 UNK        -0.5000 
    110 CA        -2.6553  -20.9203  -57.1661 C.3       20 UNK         0.1400 
    111 CB        -1.3312  -21.7112  -57.0670 C.3       20 UNK        -0.1800 
    112 C         -2.4951  -19.3906  -57.0322 C.2       20 UNK         0.5000 
    113 O         -3.4811  -18.6690  -57.1980 O.2       20 UNK        -0.5000 
    114 N         -1.2881  -18.9240  -56.6829 N.am      21 UNK        -0.5000 
    115 CA        -0.9622  -17.5194  -56.4169 C.3       21 UNK         0.1400 
    116 CB         0.5495  -17.3969  -56.1709 C.3       21 UNK        -0.1800 
    117 C         -1.7470  -16.9020  -55.2405 C.2       21 UNK         0.5000 
    118 O         -1.9181  -15.6831  -55.2081 O.2       21 UNK        -0.5000 
    119 N         -2.2229  -17.7447  -54.3134 N.am      22 UNK        -0.5000 
    120 CA        -3.1231  -17.3652  -53.2151 C.3       22 UNK         0.1400 
    121 C         -4.5937  -17.1063  -53.6671 C.2       22 UNK         0.5000 
    122 N         -4.9920  -17.4354  -54.8920 N.am      22 UNK        -0.7600 
    123 O         -5.3912  -16.5806  -52.8978 O.2       22 UNK        -0.5000 
    124 C124       -3.0416  -18.3916  -52.0469 C.3       23 UNK        -0.0398 
    125 S125       -2.8614  -17.6157  -50.4088 S.3       23 UNK        -0.2404 
    126 C126       -4.5493  -17.7765  -49.7396 C.3       23 UNK        -0.0205 
    127 H127        0.9765  -15.1394  -52.9290 H         1 UNK         0.0600 
    128 H128       -0.7550  -14.8372  -52.7716 H         1 UNK         0.0600 
    129 H129       -0.1122  -16.4573  -52.4827 H         1 UNK         0.0600 
    130 H130       -1.3226  -13.8529  -50.8608 H         1 UNK         0.3000 
    131 H131       -0.4049  -14.7267  -48.3070 H         1 UNK         0.0600 
    132 H132       -2.6900  -13.5188  -49.0764 H         1 UNK         0.0800 
    133 H133       -1.8538  -12.0647  -48.6643 H         1 UNK         0.0800 
    134 H134       -4.4936  -13.3439  -45.8305 H         1 UNK         0.0800 
    135 H135       -4.5193  -13.1265  -47.5562 H         1 UNK         0.0800 
    136 H136       -4.0478  -15.2093  -49.0571 H         1 UNK         0.1150 
    137 H137       -5.3873  -18.9125  -47.4007 H         1 UNK         0.1150 
    138 H138       -4.8686  -15.4945  -44.8609 H         1 UNK         0.1150 
    139 H139       -5.3411  -17.5978  -43.8562 H         1 UNK         0.0800 
    140 H140       -6.7628  -18.0398  -44.7685 H         1 UNK         0.0800 
    141 H141       -2.9335  -20.1468  -43.8263 H         1 UNK         0.0800 
    142 H142       -3.0821  -18.6290  -44.6547 H         1 UNK         0.0800 
    143 H143       -3.3672  -20.0587  -46.8546 H         1 UNK         0.0600 
    144 H144       -1.0444  -19.0395  -45.6498 H         1 UNK         0.3000 
    145 H145        1.2093  -19.7654  -48.3410 H         1 UNK         0.0600 
    146 H146        1.5317  -17.3232  -48.0376 H         1 UNK         0.0600 
    147 H147        0.0066  -17.6438  -48.8498 H         1 UNK         0.0600 
    148 H148        0.0146  -17.2031  -47.1505 H         1 UNK         0.0600 
    149 H149        1.6761  -18.5655  -45.8176 H         1 UNK         0.3000 
    150 H150        2.3551  -21.5903  -43.9754 H         1 UNK         0.0600 
    151 H151        4.4394  -20.9441  -45.1825 H         1 UNK         0.0600 
    152 H152        4.4303  -20.3126  -43.5432 H         1 UNK         0.0600 
    153 H153        4.0906  -19.2433  -44.9028 H         1 UNK         0.0600 
    154 H154        2.3664  -18.9062  -43.1010 H         1 UNK         0.3000 
    155 H155       -1.1065  -18.6942  -42.1660 H         1 UNK         0.0600 
    156 H156        0.0554  -17.9814  -40.0716 H         1 UNK         0.0600 
    157 H157        0.1031  -19.7268  -40.2757 H         1 UNK         0.0600 
    158 H158        1.5352  -18.7686  -40.6162 H         1 UNK         0.0600 
    159 H159        0.9270  -16.7273  -42.0607 H         1 UNK         0.3000 
    160 H160        0.4821  -15.4084  -45.3681 H         1 UNK         0.0600 
    161 H161       -0.0893  -14.2822  -42.5758 H         1 UNK         0.0600 
    162 H162       -1.2762  -14.4268  -43.8616 H         1 UNK         0.0600 
    163 H163        0.0999  -13.3679  -44.0704 H         1 UNK         0.0600 
    164 H164        2.2529  -14.8260  -43.1408 H         1 UNK         0.3000 
    165 H165        4.8658  -17.0136  -44.1579 H         1 UNK         0.0600 
    166 H166        6.2343  -14.9746  -44.1604 H         1 UNK         0.0600 
    167 H167        5.2563  -15.0396  -45.6167 H         1 UNK         0.0600 
    168 H168        4.8046  -13.9596  -44.3025 H         1 UNK         0.0600 
    169 H169        4.4915  -15.0060  -42.0846 H         1 UNK         0.3000 
    170 H170        3.2047  -17.2851  -39.6801 H         1 UNK         0.0600 
    171 H171        5.6180  -17.9353  -39.6515 H         1 UNK         0.0600 
    172 H172        6.0848  -16.2501  -39.8478 H         1 UNK         0.0600 
    173 H173        5.2520  -16.7763  -38.3841 H         1 UNK         0.0600 
    174 H174        4.2295  -14.6725  -39.3489 H         1 UNK         0.3000 
    175 H175        1.2915  -13.2155  -39.0657 H         1 UNK         0.0600 
    176 H176        3.5781  -13.1351  -38.0818 H         1 UNK         0.0600 
    177 H177        4.2379  -12.5432  -39.6096 H         1 UNK         0.0600 
    178 H178        3.1067  -11.5624  -38.6890 H         1 UNK         0.0600 
    179 H179        0.9632  -11.7911  -40.7345 H         1 UNK         0.3000 
    180 H180        0.8030  -11.1812  -42.9399 H         1 UNK         0.0600 
    181 H181        3.5464   -9.7941  -42.7669 H         1 UNK         0.0600 
    182 H182        2.1925   -9.5096  -41.6788 H         1 UNK         0.0600 
    183 H183        2.0647   -9.0534  -43.3700 H         1 UNK         0.0600 
    184 H184        3.0978  -12.1644  -44.4318 H         1 UNK         0.3000 
    185 H185        2.2215  -11.0594  -47.4850 H         1 UNK         0.0600 
    186 H186        3.7086  -13.0246  -47.7093 H         1 UNK         0.0600 
    187 H187        4.1849  -12.1110  -46.2908 H         1 UNK         0.0600 
    188 H188        3.2514  -13.6034  -46.1164 H         1 UNK         0.0600 
    189 H189        0.4323  -13.2130  -46.6325 H         1 UNK         0.3000 
    190 H190       -0.9993  -21.7100  -44.7122 H         1 UNK         0.3000 
    191 H191       -2.2364  -24.2459  -44.6883 H         1 UNK         0.0600 
    192 H192        0.7182  -23.4983  -44.3702 H         1 UNK         0.0600 
    193 H193       -0.0009  -25.0333  -43.8988 H         1 UNK         0.0600 
    194 H194       -0.4816  -23.5544  -43.0803 H         1 UNK         0.0600 
    195 H195        0.0743  -22.8437  -47.0279 H         1 UNK         0.3000 
    196 H196        0.4375  -25.2357  -48.5756 H         1 UNK         0.0600 
    197 H197        1.4351  -23.6633  -50.2372 H         1 UNK         0.0600 
    198 H198        2.0599  -23.3669  -48.6215 H         1 UNK         0.0600 
    199 H199        0.8477  -22.2889  -49.3090 H         1 UNK         0.0600 
    200 H200       -1.8333  -22.4717  -48.8253 H         1 UNK         0.3000 
    201 H201       -3.0506  -23.3099  -51.2831 H         1 UNK         0.0600 
    202 H202       -3.0820  -20.9609  -50.5095 H         1 UNK         0.0600 
    203 H203       -4.0267  -21.4017  -49.0907 H         1 UNK         0.0600 
    204 H204       -4.7305  -21.5441  -50.6970 H         1 UNK         0.0600 
    205 H205       -3.8438  -23.8955  -47.8511 H         1 UNK         0.3000 
    206 H206       -6.3967  -25.0436  -48.1944 H         1 UNK         0.0600 
    207 H207       -5.5590  -24.2365  -46.0162 H         1 UNK         0.0600 
    208 H208       -5.9863  -25.9348  -45.8773 H         1 UNK         0.0600 
    209 H209       -4.2944  -25.4651  -46.0039 H         1 UNK         0.0600 
    210 H210       -7.1424  -27.0649  -48.5220 H         1 UNK         0.3000 
    211 H211       -7.3488  -29.1366  -49.2414 H         1 UNK         0.0600 
    212 H212       -4.7553  -29.7510  -47.7327 H         1 UNK         0.0600 
    213 H213       -5.9977  -30.9058  -48.1940 H         1 UNK         0.0600 
    214 H214       -6.3579  -29.6689  -47.0024 H         1 UNK         0.0600 
    215 H215       -6.0067  -27.2882  -51.0264 H         1 UNK         0.3000 
    216 H216       -5.0648  -29.0783  -53.0744 H         1 UNK         0.0600 
    217 H217       -3.1367  -26.9796  -51.8972 H         1 UNK         0.0600 
    218 H218       -2.8191  -27.9850  -53.3075 H         1 UNK         0.0600 
    219 H219       -2.9368  -28.7201  -51.7228 H         1 UNK         0.0600 
    220 H220       -4.0806  -27.2622  -54.8323 H         1 UNK         0.3000 
    221 H221       -6.2542  -25.3807  -55.4121 H         1 UNK         0.0600 
    222 H222       -5.1009  -26.5851  -57.2682 H         1 UNK         0.0600 
    223 H223       -3.5549  -25.8846  -56.7877 H         1 UNK         0.0600 
    224 H224       -4.8414  -24.8525  -57.3993 H         1 UNK         0.0600 
    225 H225       -6.1539  -23.1692  -55.0691 H         1 UNK         0.3000 
    226 H226       -4.3700  -22.1581  -53.0734 H         1 UNK         0.0600 
    227 H227       -6.7178  -21.3861  -53.3044 H         1 UNK         0.0600 
    228 H228       -5.6123  -20.0312  -53.4413 H         1 UNK         0.0600 
    229 H229       -6.3595  -20.6936  -54.8875 H         1 UNK         0.0600 
    230 H230       -4.4067  -21.9438  -56.5915 H         1 UNK         0.3000 
    231 H231       -3.0746  -21.0976  -58.1574 H         1 UNK         0.0600 
    232 H232       -0.8576  -21.6052  -56.0903 H         1 UNK         0.0600 
    233 H233       -0.6178  -21.3856  -57.8251 H         1 UNK         0.0600 
    234 H234       -1.5047  -22.7751  -57.2299 H         1 UNK         0.0600 
    235 H235       -0.5442  -19.5911  -56.5384 H         1 UNK         0.3000 
    236 H236       -1.2128  -16.9458  -57.3115 H         1 UNK         0.0600 
    237 H237        1.1202  -17.7490  -57.0305 H         1 UNK         0.0600 
    238 H238        0.8346  -16.3583  -55.9967 H         1 UNK         0.0600 
    239 H239        0.8625  -17.9728  -55.2990 H         1 UNK         0.0600 
    240 H240       -2.0808  -18.7421  -54.4353 H         1 UNK         0.3000 
    241 H241       -2.7648  -16.4031  -52.8452 H         1 UNK         0.0600 
    242 H242       -5.9434  -17.2452  -55.1626 H         1 UNK         0.3800 
    243 H243       -4.3556  -17.8429  -55.5679 H         1 UNK         0.3800 
    244 H244       -2.1626  -19.0277  -52.1610 H         1 UNK         0.0800 
    245 H245       -3.8867  -19.0812  -52.0463 H         1 UNK         0.0800 
    246 H246       -5.2618  -17.2973  -50.4101 H         1 UNK         0.0800 
    247 H247       -4.8165  -18.8332  -49.6976 H         1 UNK         0.0800 
@<TRIPOS>BOND
     1    1    2 1    
     2    1  127 1    
     3    1  128 1    
     4    1  129 1    
     5    2    3 2    
     6    2    4 am   BACKBONE|DICT|INTERRES
     7    4    5 1    
     8    4  130 1    
     9    5    6 1    
    10    5   65 1    
    11    5  131 1    
    12    6    7 1    
    13    6  132 1    
    14    6  133 1    
    15    7    8 1    
    16    8    9 1    
    17    8  134 1    
    18    8  135 1    
    19    9   10 ar   
    20    9   14 ar   
    21   10   11 ar   
    22   10  136 1    
    23   11   12 ar   
    24   11  126 1    
    25   12   13 ar   
    26   12  137 1    
    27   13   14 ar   
    28   13   15 1    
    29   14  138 1    
    30   15   16 1    
    31   15  139 1    
    32   15  140 1    
    33   16   17 1    
    34   17   18 1    
    35   17  141 1    
    36   17  142 1    
    37   18   19 1    
    38   18   67 1    
    39   18  143 1    
    40   19   20 am   BACKBONE|DICT|INTERRES
    41   19  144 1    
    42   20   21 2    
    43   20   22 1    
    44   22   23 1    
    45   22   24 1    
    46   22  145 1    
    47   23  146 1    
    48   23  147 1    
    49   23  148 1    
    50   24   25 am   BACKBONE|DICT|INTERRES
    51   24  149 1    
    52   25   26 2    
    53   25   27 1    
    54   27   28 1    
    55   27   29 1    
    56   27  150 1    
    57   28  151 1    
    58   28  152 1    
    59   28  153 1    
    60   29   30 am   BACKBONE|DICT|INTERRES
    61   29  154 1    
    62   30   31 2    
    63   30   32 1    
    64   32   33 1    
    65   32   34 1    
    66   32  155 1    
    67   33  156 1    
    68   33  157 1    
    69   33  158 1    
    70   34   35 am   BACKBONE|DICT|INTERRES
    71   34  159 1    
    72   35   36 2    
    73   35   37 1    
    74   37   38 1    
    75   37   39 1    
    76   37  160 1    
    77   38  161 1    
    78   38  162 1    
    79   38  163 1    
    80   39   40 am   BACKBONE|DICT|INTERRES
    81   39  164 1    
    82   40   41 2    
    83   40   42 1    
    84   42   43 1    
    85   42   44 1    
    86   42  165 1    
    87   43  166 1    
    88   43  167 1    
    89   43  168 1    
    90   44   45 am   BACKBONE|DICT|INTERRES
    91   44  169 1    
    92   45   46 2    
    93   45   47 1    
    94   47   48 1    
    95   47   49 1    
    96   47  170 1    
    97   48  171 1    
    98   48  172 1    
    99   48  173 1    
   100   49   50 am   BACKBONE|DICT|INTERRES
   101   49  174 1    
   102   50   51 2    
   103   50   52 1    
   104   52   53 1    
   105   52   54 1    
   106   52  175 1    
   107   53  176 1    
   108   53  177 1    
   109   53  178 1    
   110   54   55 am   BACKBONE|DICT|INTERRES
   111   54  179 1    
   112   55   56 2    
   113   55   57 1    
   114   57   58 1    
   115   57   59 1    
   116   57  180 1    
   117   58  181 1    
   118   58  182 1    
   119   58  183 1    
   120   59   60 am   BACKBONE|DICT|INTERRES
   121   59  184 1    
   122   60   61 2    
   123   60   62 1    
   124   62   63 1    
   125   62   64 1    
   126   62  185 1    
   127   63  186 1    
   128   63  187 1    
   129   63  188 1    
   130   64   65 am   BACKBONE|DICT|INTERRES
   131   64  189 1    
   132   65   66 2    
   133   67   68 2    
   134   67   69 am   BACKBONE|DICT|INTERRES
   135   69   70 1    
   136   69  190 1    
   137   70   71 1    
   138   70   72 1    
   139   70  191 1    
   140   71  192 1    
   141   71  193 1    
   142   71  194 1    
   143   72   73 2    
   144   72   74 am   BACKBONE|DICT|INTERRES
   145   74   75 1    
   146   74  195 1    
   147   75   76 1    
   148   75   77 1    
   149   75  196 1    
   150   76  197 1    
   151   76  198 1    
   152   76  199 1    
   153   77   78 2    
   154   77   79 am   BACKBONE|DICT|INTERRES
   155   79   80 1    
   156   79  200 1    
   157   80   81 1    
   158   80   82 1    
   159   80  201 1    
   160   81  202 1    
   161   81  203 1    
   162   81  204 1    
   163   82   83 2    
   164   82   84 am   BACKBONE|DICT|INTERRES
   165   84   85 1    
   166   84  205 1    
   167   85   86 1    
   168   85   87 1    
   169   85  206 1    
   170   86  207 1    
   171   86  208 1    
   172   86  209 1    
   173   87   88 2    
   174   87   89 am   BACKBONE|DICT|INTERRES
   175   89   90 1    
   176   89  210 1    
   177   90   91 1    
   178   90   92 1    
   179   90  211 1    
   180   91  212 1    
   181   91  213 1    
   182   91  214 1    
   183   92   93 2    
   184   92   94 am   BACKBONE|DICT|INTERRES
   185   94   95 1    
   186   94  215 1    
   187   95   96 1    
   188   95   97 1    
   189   95  216 1    
   190   96  217 1    
   191   96  218 1    
   192   96  219 1    
   193   97   98 2    
   194   97   99 am   BACKBONE|DICT|INTERRES
   195   99  100 1    
   196   99  220 1    
   197  100  101 1    
   198  100  102 1    
   199  100  221 1    
   200  101  222 1    
   201  101  223 1    
   202  101  224 1    
   203  102  103 2    
   204  102  104 am   BACKBONE|DICT|INTERRES
   205  104  105 1    
   206  104  225 1    
   207  105  106 1    
   208  105  107 1    
   209  105  226 1    
   210  106  227 1    
   211  106  228 1    
   212  106  229 1    
   213  107  108 2    
   214  107  109 am   BACKBONE|DICT|INTERRES
   215  109  110 1    
   216  109  230 1    
   217  110  111 1    
   218  110  112 1    
   219  110  231 1    
   220  111  232 1    
   221  111  233 1    
   222  111  234 1    
   223  112  113 2    
   224  112  114 am   BACKBONE|DICT|INTERRES
   225  114  115 1    
   226  114  235 1    
   227  115  116 1    
   228  115  117 1    
   229  115  236 1    
   230  116  237 1    
   231  116  238 1    
   232  116  239 1    
   233  117  118 2    
   234  117  119 am   BACKBONE|DICT|INTERRES
   235  119  120 1    
   236  119  240 1    
   237  120  121 1    
   238  120  124 1    
   239  120  241 1    
   240  121  122 am   BACKBONE|DICT|INTERRES
   241  121  123 2    
   242  122  242 1    
   243  122  243 1    
   244  124  125 1    
   245  124  244 1    
   246  124  245 1    
   247  125  126 1    
   248  126  246 1    
   249  126  247 1    
@<TRIPOS>SUBSTRUCTURE
     1 UNK         1 GROUP             0       ****    0 ROOT    
