@<TRIPOS>MOLECULE
3R540
247   249    1
SMALL
USER_CHARGES


@<TRIPOS>ATOM
      1 CA          1.3223  -15.8327  -51.1377 C.3       0 UNK        -0.1800 
      2 C           1.4941  -15.2943  -49.7235 C.2       0 UNK         0.5000 
      3 O           2.6199  -15.0412  -49.2947 O.2       0 UNK        -0.5000 
      4 N           0.3822  -15.1274  -48.9992 N.am      1 UNK        -0.5000 
      5 CA          0.3126  -14.5426  -47.6574 C.3       1 UNK         0.1400 
      6 C6         -1.0390  -14.8373  -46.9554 C.3       23 UNK        -0.0398 
      7 S7         -2.5385  -14.6255  -47.9824 S.3       23 UNK        -0.2404 
      8 C8         -3.1767  -16.3332  -48.0727 C.3       23 UNK        -0.0205 
      9 C9         -2.4231  -17.1687  -49.0972 C.ar      23 UNK        -0.0193 
     10 C10        -2.8898  -17.2585  -50.4109 C.ar      23 UNK        -0.1150 
     11 C11        -2.1980  -18.0147  -51.3621 C.ar      23 UNK        -0.0193 
     12 C12        -1.0195  -18.6710  -50.9958 C.ar      23 UNK        -0.1150 
     13 C13        -0.5355  -18.5750  -49.6892 C.ar      23 UNK        -0.0193 
     14 C14        -1.2551  -17.8457  -48.7398 C.ar      23 UNK        -0.1150 
     15 C15         0.7814  -19.2292  -49.3010 C.3       23 UNK        -0.0205 
     16 S16         0.6709  -21.0386  -49.2098 S.3       23 UNK        -0.2404 
     17 C17        -0.7882  -21.2525  -48.1428 C.3       23 UNK        -0.0398 
     18 CA         -0.7359  -22.5842  -47.3708 C.3       11 UNK         0.1400 
     19 N           0.2501  -22.5546  -46.2887 N.am      11 UNK        -0.5000 
     20 C           0.6955  -23.6391  -45.6418 C.2       10 UNK         0.5000 
     21 O           0.2408  -24.7698  -45.8150 O.2       10 UNK        -0.5000 
     22 CA          1.8226  -23.4172  -44.6231 C.3       10 UNK         0.1400 
     23 CB          3.1609  -23.1689  -45.3363 C.3       10 UNK        -0.1800 
     24 N           1.5167  -22.2854  -43.7529 N.am      10 UNK        -0.5000 
     25 C           0.7927  -22.3746  -42.6291 C.2       9 UNK         0.5000 
     26 O           0.3743  -23.4362  -42.1662 O.2       9 UNK        -0.5000 
     27 CA          0.4567  -21.0518  -41.9116 C.3       9 UNK         0.1400 
     28 CB          1.5495  -20.6970  -40.8923 C.3       9 UNK        -0.1800 
     29 N           0.2716  -19.9210  -42.8230 N.am      9 UNK        -0.5000 
     30 C          -0.6757  -19.8498  -43.7695 C.2       8 UNK         0.5000 
     31 O          -1.5028  -20.7341  -43.9771 O.2       8 UNK        -0.5000 
     32 CA         -0.6746  -18.5983  -44.6661 C.3       8 UNK         0.1400 
     33 CB         -1.5015  -17.5028  -43.9827 C.3       8 UNK        -0.1800 
     34 N           0.6664  -18.0829  -44.9645 N.am      8 UNK        -0.5000 
     35 C           1.6873  -18.8018  -45.4594 C.2       7 UNK         0.5000 
     36 O           1.5817  -19.9831  -45.7945 O.2       7 UNK        -0.5000 
     37 CA          3.0652  -18.1170  -45.5709 C.3       7 UNK         0.1400 
     38 CB          3.4501  -17.9068  -47.0422 C.3       7 UNK        -0.1800 
     39 N           3.1804  -16.8357  -44.8698 N.am      7 UNK        -0.5000 
     40 C           3.0931  -16.6468  -43.5458 C.2       6 UNK         0.5000 
     41 O           2.8443  -17.5487  -42.7432 O.2       6 UNK        -0.5000 
     42 CA          3.2977  -15.2075  -43.0280 C.3       6 UNK         0.1400 
     43 CB          3.8790  -14.2321  -44.0781 C.3       6 UNK        -0.1800 
     44 N           2.0692  -14.6549  -42.4568 N.am      6 UNK        -0.5000 
     45 C           0.8873  -14.4864  -43.0630 C.2       5 UNK         0.5000 
     46 O           0.6663  -14.8223  -44.2286 O.2       5 UNK        -0.5000 
     47 CA         -0.2221  -13.7809  -42.2543 C.3       5 UNK         0.1400 
     48 CB         -0.9935  -14.7566  -41.3465 C.3       5 UNK        -0.1800 
     49 N           0.2461  -12.6118  -41.4989 N.am      5 UNK        -0.5000 
     50 C           1.0379  -12.5506  -40.4167 C.2       4 UNK         0.5000 
     51 O           1.5038  -13.5435  -39.8547 O.2       4 UNK        -0.5000 
     52 CA          1.3771  -11.1327  -39.9007 C.3       4 UNK         0.1400 
     53 CB          2.6681  -11.0896  -39.0558 C.3       4 UNK        -0.1800 
     54 N           1.4098  -10.1301  -40.9756 N.am      4 UNK        -0.5000 
     55 C           2.2353  -10.1166  -42.0323 C.2       3 UNK         0.5000 
     56 O           3.1839  -10.8892  -42.1866 O.2       3 UNK        -0.5000 
     57 CA          1.9212   -9.0735  -43.1211 C.3       3 UNK         0.1400 
     58 CB          2.8737   -7.8731  -43.0137 C.3       3 UNK        -0.1800 
     59 N           2.0191   -9.6471  -44.4646 N.am      3 UNK        -0.5000 
     60 C           1.2899  -10.6733  -44.9255 C.2       2 UNK         0.5000 
     61 O           0.3771  -11.2031  -44.2864 O.2       2 UNK        -0.5000 
     62 CA          1.6272  -11.1785  -46.3389 C.3       2 UNK         0.1400 
     63 CB          3.1385  -11.1494  -46.6498 C.3       2 UNK        -0.1800 
     64 N           1.1284  -12.5406  -46.5176 N.am      2 UNK        -0.5000 
     65 C           0.6551  -13.0373  -47.6650 C.2       1 UNK         0.5000 
     66 O           0.5008  -12.3660  -48.6896 O.2       1 UNK        -0.5000 
     67 C          -2.1451  -23.0199  -46.9267 C.2       11 UNK         0.5000 
     68 O          -2.8691  -23.5795  -47.7498 O.2       11 UNK        -0.5000 
     69 N          -2.5209  -22.7906  -45.6618 N.am      12 UNK        -0.5000 
     70 CA         -3.7720  -23.2928  -45.0899 C.3       12 UNK         0.1400 
     71 CB         -4.0687  -22.5708  -43.7676 C.3       12 UNK        -0.1800 
     72 C          -3.7444  -24.8177  -44.8786 C.2       12 UNK         0.5000 
     73 O          -4.7590  -25.4780  -45.1009 O.2       12 UNK        -0.5000 
     74 N          -2.5809  -25.3505  -44.4786 N.am      13 UNK        -0.5000 
     75 CA         -2.3523  -26.7815  -44.2735 C.3       13 UNK         0.1400 
     76 CB         -1.1050  -26.9808  -43.3984 C.3       13 UNK        -0.1800 
     77 C          -2.2184  -27.5388  -45.6063 C.2       13 UNK         0.5000 
     78 O          -2.7669  -28.6324  -45.7452 O.2       13 UNK        -0.5000 
     79 N          -1.5155  -26.9289  -46.5706 N.am      14 UNK        -0.5000 
     80 CA         -1.3276  -27.4472  -47.9280 C.3       14 UNK         0.1400 
     81 CB         -0.1352  -26.7185  -48.5682 C.3       14 UNK        -0.1800 
     82 C          -2.5773  -27.3069  -48.8222 C.2       14 UNK         0.5000 
     83 O          -2.6250  -27.9253  -49.8853 O.2       14 UNK        -0.5000 
     84 N          -3.5370  -26.4721  -48.3955 N.am      15 UNK        -0.5000 
     85 CA         -4.7666  -26.0616  -49.0865 C.3       15 UNK         0.1400 
     86 CB         -5.6646  -27.2670  -49.4292 C.3       15 UNK        -0.1800 
     87 C          -4.5243  -25.1431  -50.3032 C.2       15 UNK         0.5000 
     88 O          -5.4659  -24.8420  -51.0374 O.2       15 UNK        -0.5000 
     89 N          -3.2897  -24.6492  -50.4639 N.am      16 UNK        -0.5000 
     90 CA         -2.8842  -23.6726  -51.4747 C.3       16 UNK         0.1400 
     91 CB         -1.3583  -23.5151  -51.4363 C.3       16 UNK        -0.1800 
     92 C          -3.5790  -22.3087  -51.3052 C.2       16 UNK         0.5000 
     93 O          -3.8224  -21.6267  -52.2991 O.2       16 UNK        -0.5000 
     94 N          -3.9353  -21.9570  -50.0609 N.am      17 UNK        -0.5000 
     95 CA         -4.7127  -20.7581  -49.7408 C.3       17 UNK         0.1400 
     96 CB         -4.6716  -20.5096  -48.2244 C.3       17 UNK        -0.1800 
     97 C          -6.1698  -20.8400  -50.2403 C.2       17 UNK         0.5000 
     98 O          -6.7586  -19.8054  -50.5537 O.2       17 UNK        -0.5000 
     99 N          -6.7184  -22.0613  -50.3135 N.am      18 UNK        -0.5000 
    100 CA        -8.0572  -22.3389  -50.8313 C.3       18 UNK         0.1400 
    101 CB        -8.6320  -23.5774  -50.1251 C.3       18 UNK        -0.1800 
    102 C         -8.0395  -22.5362  -52.3566 C.2       18 UNK         0.5000 
    103 O         -8.9235  -22.0231  -53.0435 O.2       18 UNK        -0.5000 
    104 N         -7.0342  -23.2683  -52.8593 N.am      19 UNK        -0.5000 
    105 CA        -6.8404  -23.5563  -54.2831 C.3       19 UNK         0.1400 
    106 CB        -5.7930  -24.6696  -54.4324 C.3       19 UNK        -0.1800 
    107 C         -6.4359  -22.3220  -55.1132 C.2       19 UNK         0.5000 
    108 O         -6.7533  -22.2675  -56.3023 O.2       19 UNK        -0.5000 
    109 N         -5.7596  -21.3608  -54.4692 N.am      20 UNK        -0.5000 
    110 CA        -5.2387  -20.1126  -55.0244 C.3       20 UNK         0.1400 
    111 CB        -6.3840  -19.1979  -55.5152 C.3       20 UNK        -0.1800 
    112 C         -4.1184  -20.3586  -56.0585 C.2       20 UNK         0.5000 
    113 O         -3.3024  -21.2610  -55.8608 O.2       20 UNK        -0.5000 
    114 N         -4.0701  -19.5280  -57.1116 N.am      21 UNK        -0.5000 
    115 CA        -3.0684  -19.5099  -58.1891 C.3       21 UNK         0.1400 
    116 CB        -3.0969  -20.8228  -59.0002 C.3       21 UNK        -0.1800 
    117 C         -1.6468  -19.1268  -57.7150 C.2       21 UNK         0.5000 
    118 O         -0.6641  -19.4560  -58.3816 O.2       21 UNK        -0.5000 
    119 N         -1.5655  -18.4167  -56.5834 N.am      22 UNK        -0.5000 
    120 CA        -0.3307  -17.8871  -55.9818 C.3       22 UNK         0.1400 
    121 C          0.1922  -16.5651  -56.6199 C.2       22 UNK         0.5000 
    122 N         -0.5330  -15.9289  -57.5322 N.am      22 UNK        -0.7600 
    123 O          1.2882  -16.1169  -56.2943 O.2       22 UNK        -0.5000 
    124 C124       -0.4518  -17.7806  -54.4371 C.3       23 UNK        -0.0398 
    125 S125       -1.9482  -16.8872  -53.8753 S.3       23 UNK        -0.2404 
    126 C126       -2.7299  -18.1148  -52.7817 C.3       23 UNK        -0.0205 
    127 H127        1.7408  -15.1319  -51.8598 H         1 UNK         0.0600 
    128 H128        0.2720  -15.9877  -51.3870 H         1 UNK         0.0600 
    129 H129        1.8413  -16.7847  -51.2451 H         1 UNK         0.0600 
    130 H130       -0.5153  -15.3407  -49.4121 H         1 UNK         0.3000 
    131 H131        1.0909  -15.0298  -47.0651 H         1 UNK         0.0600 
    132 H132       -1.1584  -14.2273  -46.0584 H         1 UNK         0.0800 
    133 H133       -1.0090  -15.8603  -46.5904 H         1 UNK         0.0800 
    134 H134       -4.2341  -16.2943  -48.3390 H         1 UNK         0.0800 
    135 H135       -3.1346  -16.8046  -47.0896 H         1 UNK         0.0800 
    136 H136       -3.7933  -16.7369  -50.6943 H         1 UNK         0.1150 
    137 H137       -0.4711  -19.2492  -51.7250 H         1 UNK         0.1150 
    138 H138       -0.8830  -17.7805  -47.7290 H         1 UNK         0.1150 
    139 H139        1.1165  -18.8528  -48.3370 H         1 UNK         0.0800 
    140 H140        1.5525  -18.9560  -50.0219 H         1 UNK         0.0800 
    141 H141       -1.6553  -21.2013  -48.8007 H         1 UNK         0.0800 
    142 H142       -0.8748  -20.4165  -47.4483 H         1 UNK         0.0800 
    143 H143       -0.4068  -23.3553  -48.0696 H         1 UNK         0.0600 
    144 H144        0.6917  -21.6577  -46.1052 H         1 UNK         0.3000 
    145 H145        1.9236  -24.3261  -44.0258 H         1 UNK         0.0600 
    146 H146        3.4153  -24.0056  -45.9882 H         1 UNK         0.0600 
    147 H147        3.9734  -23.0576  -44.6183 H         1 UNK         0.0600 
    148 H148        3.1346  -22.2694  -45.9528 H         1 UNK         0.0600 
    149 H149        1.7650  -21.3681  -44.1000 H         1 UNK         0.3000 
    150 H150       -0.4810  -21.2003  -41.3720 H         1 UNK         0.0600 
    151 H151        2.5047  -20.4981  -41.3804 H         1 UNK         0.0600 
    152 H152        1.7044  -21.5122  -40.1842 H         1 UNK         0.0600 
    153 H153        1.2785  -19.8127  -40.3152 H         1 UNK         0.0600 
    154 H154        0.9272  -19.1553  -42.7368 H         1 UNK         0.3000 
    155 H155       -1.1523  -18.8602  -45.6109 H         1 UNK         0.0600 
    156 H156       -1.5484  -16.5889  -44.5699 H         1 UNK         0.0600 
    157 H157       -1.0740  -17.2551  -43.0121 H         1 UNK         0.0600 
    158 H158       -2.5275  -17.8333  -43.8151 H         1 UNK         0.0600 
    159 H159        0.8462  -17.1205  -44.7081 H         1 UNK         0.3000 
    160 H160        3.7909  -18.8005  -45.1258 H         1 UNK         0.0600 
    161 H161        2.7638  -17.2226  -47.5418 H         1 UNK         0.0600 
    162 H162        3.4379  -18.8499  -47.5903 H         1 UNK         0.0600 
    163 H163        4.4560  -17.4969  -47.1334 H         1 UNK         0.0600 
    164 H164        3.3671  -16.0297  -45.4479 H         1 UNK         0.3000 
    165 H165        4.0152  -15.2766  -42.2092 H         1 UNK         0.0600 
    166 H166        4.8350  -14.5900  -44.4624 H         1 UNK         0.0600 
    167 H167        3.2110  -14.0852  -44.9269 H         1 UNK         0.0600 
    168 H168        4.0607  -13.2524  -43.6352 H         1 UNK         0.0600 
    169 H169        2.1221  -14.3676  -41.4838 H         1 UNK         0.3000 
    170 H170       -0.9324  -13.3834  -42.9811 H         1 UNK         0.0600 
    171 H171       -1.6455  -14.2231  -40.6547 H         1 UNK         0.0600 
    172 H172       -0.3248  -15.3857  -40.7579 H         1 UNK         0.0600 
    173 H173       -1.6338  -15.4084  -41.9371 H         1 UNK         0.0600 
    174 H174       -0.0063  -11.7294  -41.9237 H         1 UNK         0.3000 
    175 H175        0.5513  -10.8490  -39.2468 H         1 UNK         0.0600 
    176 H176        3.5336  -11.4466  -39.6144 H         1 UNK         0.0600 
    177 H177        2.5741  -11.7163  -38.1683 H         1 UNK         0.0600 
    178 H178        2.8827  -10.0769  -38.7147 H         1 UNK         0.0600 
    179 H179        0.6706   -9.4413  -40.9404 H         1 UNK         0.3000 
    180 H180        0.8978   -8.7168  -42.9879 H         1 UNK         0.0600 
    181 H181        3.9124   -8.1690  -43.1671 H         1 UNK         0.0600 
    182 H182        2.8070   -7.4089  -42.0289 H         1 UNK         0.0600 
    183 H183        2.6297   -7.1073  -43.7502 H         1 UNK         0.0600 
    184 H184        2.7617   -9.2875  -45.0456 H         1 UNK         0.3000 
    185 H185        1.1142  -10.5082  -47.0314 H         1 UNK         0.0600 
    186 H186        3.3479  -11.5817  -47.6286 H         1 UNK         0.0600 
    187 H187        3.5259  -10.1305  -46.6678 H         1 UNK         0.0600 
    188 H188        3.7109  -11.7110  -45.9106 H         1 UNK         0.0600 
    189 H189        1.1262  -13.1168  -45.6836 H         1 UNK         0.3000 
    190 H190       -1.9269  -22.2387  -45.0480 H         1 UNK         0.3000 
    191 H191       -4.5843  -23.0682  -45.7844 H         1 UNK         0.0600 
    192 H192       -4.1768  -21.4972  -43.9226 H         1 UNK         0.0600 
    193 H193       -4.9986  -22.9299  -43.3249 H         1 UNK         0.0600 
    194 H194       -3.2738  -22.7258  -43.0369 H         1 UNK         0.0600 
    195 H195       -1.7829  -24.7425  -44.3606 H         1 UNK         0.3000 
    196 H196       -3.2090  -27.1956  -43.7375 H         1 UNK         0.0600 
    197 H197       -0.9331  -28.0397  -43.2013 H         1 UNK         0.0600 
    198 H198       -1.2170  -26.4844  -42.4343 H         1 UNK         0.0600 
    199 H199       -0.2066  -26.5861  -43.8735 H         1 UNK         0.0600 
    200 H200       -1.0299  -26.0648  -46.3418 H         1 UNK         0.3000 
    201 H201       -1.0860  -28.5101  -47.8634 H         1 UNK         0.0600 
    202 H202        0.0797  -27.1142  -49.5617 H         1 UNK         0.0600 
    203 H203        0.7680  -26.8373  -47.9693 H         1 UNK         0.0600 
    204 H204       -0.3271  -25.6510  -48.6750 H         1 UNK         0.0600 
    205 H205       -3.3653  -25.9913  -47.5229 H         1 UNK         0.3000 
    206 H206       -5.3100  -25.4498  -48.3650 H         1 UNK         0.0600 
    207 H207       -5.8242  -27.9006  -48.5568 H         1 UNK         0.0600 
    208 H208       -6.6455  -26.9361  -49.7728 H         1 UNK         0.0600 
    209 H209       -5.2370  -27.8828  -50.2205 H         1 UNK         0.0600 
    210 H210       -2.6035  -24.8915  -49.7650 H         1 UNK         0.3000 
    211 H211       -3.1611  -24.0657  -52.4537 H         1 UNK         0.0600 
    212 H212       -0.8592  -24.4557  -51.6699 H         1 UNK         0.0600 
    213 H213       -1.0208  -22.7770  -52.1653 H         1 UNK         0.0600 
    214 H214       -1.0144  -23.1896  -50.4558 H         1 UNK         0.0600 
    215 H215       -3.7003  -22.5788  -49.2942 H         1 UNK         0.3000 
    216 H216       -4.2440  -19.9059  -50.2367 H         1 UNK         0.0600 
    217 H217       -5.0561  -21.3634  -47.6655 H         1 UNK         0.0600 
    218 H218       -5.2742  -19.6412  -47.9550 H         1 UNK         0.0600 
    219 H219       -3.6574  -20.3101  -47.8807 H         1 UNK         0.0600 
    220 H220       -6.1485  -22.8636  -50.0862 H         1 UNK         0.3000 
    221 H221       -8.7139  -21.4950  -50.6087 H         1 UNK         0.0600 
    222 H222       -8.0312  -24.4685  -50.3082 H         1 UNK         0.0600 
    223 H223       -8.6854  -23.4258  -49.0469 H         1 UNK         0.0600 
    224 H224       -9.6437  -23.7884  -50.4738 H         1 UNK         0.0600 
    225 H225       -6.3865  -23.7153  -52.2155 H         1 UNK         0.3000 
    226 H226       -7.7873  -23.9260  -54.6819 H         1 UNK         0.0600 
    227 H227       -6.0804  -25.5622  -53.8763 H         1 UNK         0.0600 
    228 H228       -5.6778  -24.9589  -55.4777 H         1 UNK         0.0600 
    229 H229       -4.8158  -24.3491  -54.0724 H         1 UNK         0.0600 
    230 H230       -5.4500  -21.5576  -53.5238 H         1 UNK         0.3000 
    231 H231       -4.7626  -19.6070  -54.1861 H         1 UNK         0.0600 
    232 H232       -6.8585  -19.5825  -56.4186 H         1 UNK         0.0600 
    233 H233       -6.0241  -18.1910  -55.7292 H         1 UNK         0.0600 
    234 H234       -7.1571  -19.1007  -54.7526 H         1 UNK         0.0600 
    235 H235       -4.7896  -18.8217  -57.1820 H         1 UNK         0.3000 
    236 H236       -3.3756  -18.7100  -58.8642 H         1 UNK         0.0600 
    237 H237       -2.7147  -21.6657  -58.4240 H         1 UNK         0.0600 
    238 H238       -4.1098  -21.0668  -59.3203 H         1 UNK         0.0600 
    239 H239       -2.4853  -20.7406  -59.8994 H         1 UNK         0.0600 
    240 H240       -2.4191  -18.1736  -56.1034 H         1 UNK         0.3000 
    241 H241        0.4591  -18.6151  -56.1766 H         1 UNK         0.0600 
    242 H242       -1.4343  -16.2818  -57.8097 H         1 UNK         0.3800 
    243 H243       -0.1795  -15.0786  -57.9423 H         1 UNK         0.3800 
    244 H244        0.4266  -17.3013  -54.0013 H         1 UNK         0.0800 
    245 H245       -0.4594  -18.7895  -54.0255 H         1 UNK         0.0800 
    246 H246       -3.8063  -17.9383  -52.7794 H         1 UNK         0.0800 
    247 H247       -2.5898  -19.1254  -53.1687 H         1 UNK         0.0800 
@<TRIPOS>BOND
     1    1    2 1    
     2    1  127 1    
     3    1  128 1    
     4    1  129 1    
     5    2    3 2    
     6    2    4 am   BACKBONE|DICT|INTERRES
     7    4    5 1    
     8    4  130 1    
     9    5    6 1    
    10    5   65 1    
    11    5  131 1    
    12    6    7 1    
    13    6  132 1    
    14    6  133 1    
    15    7    8 1    
    16    8    9 1    
    17    8  134 1    
    18    8  135 1    
    19    9   10 ar   
    20    9   14 ar   
    21   10   11 ar   
    22   10  136 1    
    23   11   12 ar   
    24   11  126 1    
    25   12   13 ar   
    26   12  137 1    
    27   13   14 ar   
    28   13   15 1    
    29   14  138 1    
    30   15   16 1    
    31   15  139 1    
    32   15  140 1    
    33   16   17 1    
    34   17   18 1    
    35   17  141 1    
    36   17  142 1    
    37   18   19 1    
    38   18   67 1    
    39   18  143 1    
    40   19   20 am   BACKBONE|DICT|INTERRES
    41   19  144 1    
    42   20   21 2    
    43   20   22 1    
    44   22   23 1    
    45   22   24 1    
    46   22  145 1    
    47   23  146 1    
    48   23  147 1    
    49   23  148 1    
    50   24   25 am   BACKBONE|DICT|INTERRES
    51   24  149 1    
    52   25   26 2    
    53   25   27 1    
    54   27   28 1    
    55   27   29 1    
    56   27  150 1    
    57   28  151 1    
    58   28  152 1    
    59   28  153 1    
    60   29   30 am   BACKBONE|DICT|INTERRES
    61   29  154 1    
    62   30   31 2    
    63   30   32 1    
    64   32   33 1    
    65   32   34 1    
    66   32  155 1    
    67   33  156 1    
    68   33  157 1    
    69   33  158 1    
    70   34   35 am   BACKBONE|DICT|INTERRES
    71   34  159 1    
    72   35   36 2    
    73   35   37 1    
    74   37   38 1    
    75   37   39 1    
    76   37  160 1    
    77   38  161 1    
    78   38  162 1    
    79   38  163 1    
    80   39   40 am   BACKBONE|DICT|INTERRES
    81   39  164 1    
    82   40   41 2    
    83   40   42 1    
    84   42   43 1    
    85   42   44 1    
    86   42  165 1    
    87   43  166 1    
    88   43  167 1    
    89   43  168 1    
    90   44   45 am   BACKBONE|DICT|INTERRES
    91   44  169 1    
    92   45   46 2    
    93   45   47 1    
    94   47   48 1    
    95   47   49 1    
    96   47  170 1    
    97   48  171 1    
    98   48  172 1    
    99   48  173 1    
   100   49   50 am   BACKBONE|DICT|INTERRES
   101   49  174 1    
   102   50   51 2    
   103   50   52 1    
   104   52   53 1    
   105   52   54 1    
   106   52  175 1    
   107   53  176 1    
   108   53  177 1    
   109   53  178 1    
   110   54   55 am   BACKBONE|DICT|INTERRES
   111   54  179 1    
   112   55   56 2    
   113   55   57 1    
   114   57   58 1    
   115   57   59 1    
   116   57  180 1    
   117   58  181 1    
   118   58  182 1    
   119   58  183 1    
   120   59   60 am   BACKBONE|DICT|INTERRES
   121   59  184 1    
   122   60   61 2    
   123   60   62 1    
   124   62   63 1    
   125   62   64 1    
   126   62  185 1    
   127   63  186 1    
   128   63  187 1    
   129   63  188 1    
   130   64   65 am   BACKBONE|DICT|INTERRES
   131   64  189 1    
   132   65   66 2    
   133   67   68 2    
   134   67   69 am   BACKBONE|DICT|INTERRES
   135   69   70 1    
   136   69  190 1    
   137   70   71 1    
   138   70   72 1    
   139   70  191 1    
   140   71  192 1    
   141   71  193 1    
   142   71  194 1    
   143   72   73 2    
   144   72   74 am   BACKBONE|DICT|INTERRES
   145   74   75 1    
   146   74  195 1    
   147   75   76 1    
   148   75   77 1    
   149   75  196 1    
   150   76  197 1    
   151   76  198 1    
   152   76  199 1    
   153   77   78 2    
   154   77   79 am   BACKBONE|DICT|INTERRES
   155   79   80 1    
   156   79  200 1    
   157   80   81 1    
   158   80   82 1    
   159   80  201 1    
   160   81  202 1    
   161   81  203 1    
   162   81  204 1    
   163   82   83 2    
   164   82   84 am   BACKBONE|DICT|INTERRES
   165   84   85 1    
   166   84  205 1    
   167   85   86 1    
   168   85   87 1    
   169   85  206 1    
   170   86  207 1    
   171   86  208 1    
   172   86  209 1    
   173   87   88 2    
   174   87   89 am   BACKBONE|DICT|INTERRES
   175   89   90 1    
   176   89  210 1    
   177   90   91 1    
   178   90   92 1    
   179   90  211 1    
   180   91  212 1    
   181   91  213 1    
   182   91  214 1    
   183   92   93 2    
   184   92   94 am   BACKBONE|DICT|INTERRES
   185   94   95 1    
   186   94  215 1    
   187   95   96 1    
   188   95   97 1    
   189   95  216 1    
   190   96  217 1    
   191   96  218 1    
   192   96  219 1    
   193   97   98 2    
   194   97   99 am   BACKBONE|DICT|INTERRES
   195   99  100 1    
   196   99  220 1    
   197  100  101 1    
   198  100  102 1    
   199  100  221 1    
   200  101  222 1    
   201  101  223 1    
   202  101  224 1    
   203  102  103 2    
   204  102  104 am   BACKBONE|DICT|INTERRES
   205  104  105 1    
   206  104  225 1    
   207  105  106 1    
   208  105  107 1    
   209  105  226 1    
   210  106  227 1    
   211  106  228 1    
   212  106  229 1    
   213  107  108 2    
   214  107  109 am   BACKBONE|DICT|INTERRES
   215  109  110 1    
   216  109  230 1    
   217  110  111 1    
   218  110  112 1    
   219  110  231 1    
   220  111  232 1    
   221  111  233 1    
   222  111  234 1    
   223  112  113 2    
   224  112  114 am   BACKBONE|DICT|INTERRES
   225  114  115 1    
   226  114  235 1    
   227  115  116 1    
   228  115  117 1    
   229  115  236 1    
   230  116  237 1    
   231  116  238 1    
   232  116  239 1    
   233  117  118 2    
   234  117  119 am   BACKBONE|DICT|INTERRES
   235  119  120 1    
   236  119  240 1    
   237  120  121 1    
   238  120  124 1    
   239  120  241 1    
   240  121  122 am   BACKBONE|DICT|INTERRES
   241  121  123 2    
   242  122  242 1    
   243  122  243 1    
   244  124  125 1    
   245  124  244 1    
   246  124  245 1    
   247  125  126 1    
   248  126  246 1    
   249  126  247 1    
@<TRIPOS>SUBSTRUCTURE
     1 UNK         1 GROUP             0       ****    0 ROOT    
