@<TRIPOS>MOLECULE
3R540
247   249    1
SMALL
USER_CHARGES


@<TRIPOS>ATOM
      1 CA         -1.8008  -11.2071  -44.8234 C.3       0 UNK        -0.1800 
      2 C          -3.1084  -11.2445  -45.6135 C.2       0 UNK         0.5000 
      3 O          -4.1558  -10.9130  -45.0610 O.2       0 UNK        -0.5000 
      4 N          -3.1048  -11.6176  -46.9005 N.am      1 UNK        -0.5000 
      5 CA         -1.9675  -12.1222  -47.6782 C.3       1 UNK         0.1400 
      6 C6         -2.2361  -12.0340  -49.2028 C.3       23 UNK        -0.0398 
      7 S7         -3.7292  -12.9245  -49.7762 S.3       23 UNK        -0.2404 
      8 C8         -3.0378  -14.3818  -50.6367 C.3       23 UNK        -0.0205 
      9 C9         -3.3405  -15.7021  -49.9343 C.ar      23 UNK        -0.0193 
     10 C10        -4.6522  -16.0213  -49.5655 C.ar      23 UNK        -0.1150 
     11 C11        -4.9558  -17.2726  -49.0243 C.ar      23 UNK        -0.0193 
     12 C12        -3.9332  -18.2006  -48.8271 C.ar      23 UNK        -0.1150 
     13 C13        -2.6141  -17.8936  -49.1688 C.ar      23 UNK        -0.0193 
     14 C14        -2.3247  -16.6443  -49.7290 C.ar      23 UNK        -0.1150 
     15 C15        -1.5253  -18.9446  -48.9995 C.3       23 UNK        -0.0205 
     16 S16        -0.6340  -18.8475  -47.4084 S.3       23 UNK        -0.2404 
     17 C17        -1.9287  -19.1149  -46.1497 C.3       23 UNK        -0.0398 
     18 CA         -2.0661  -20.5879  -45.6908 C.3       11 UNK         0.1400 
     19 N          -2.5369  -20.6625  -44.2960 N.am      11 UNK        -0.5000 
     20 C          -2.7149  -21.7812  -43.5785 C.2       10 UNK         0.5000 
     21 O          -2.6756  -22.9113  -44.0650 O.2       10 UNK        -0.5000 
     22 CA         -2.9441  -21.6064  -42.0691 C.3       10 UNK         0.1400 
     23 CB         -2.9738  -22.9564  -41.3189 C.3       10 UNK        -0.1800 
     24 N          -1.9129  -20.7325  -41.5080 N.am      10 UNK        -0.5000 
     25 C          -2.0018  -20.1104  -40.3234 C.2       9 UNK         0.5000 
     26 O          -2.9928  -20.1761  -39.5945 O.2       9 UNK        -0.5000 
     27 CA         -0.7909  -19.2744  -39.8567 C.3       9 UNK         0.1400 
     28 CB          0.1270  -20.1191  -38.9599 C.3       9 UNK        -0.1800 
     29 N           0.0050  -18.7147  -40.9480 N.am      9 UNK        -0.5000 
     30 C          -0.4294  -17.8072  -41.8312 C.2       8 UNK         0.5000 
     31 O          -1.5460  -17.2905  -41.7842 O.2       8 UNK        -0.5000 
     32 CA          0.5309  -17.4144  -42.9713 C.3       8 UNK         0.1400 
     33 CB          1.2466  -16.1020  -42.6134 C.3       8 UNK        -0.1800 
     34 N           1.5416  -18.4085  -43.3552 N.am      8 UNK        -0.5000 
     35 C           1.3532  -19.7099  -43.6219 C.2       7 UNK         0.5000 
     36 O           0.2903  -20.3019  -43.4512 O.2       7 UNK        -0.5000 
     37 CA          2.5614  -20.4933  -44.1566 C.3       7 UNK         0.1400 
     38 CB          2.5684  -20.4758  -45.6931 C.3       7 UNK        -0.1800 
     39 N           3.8302  -19.9716  -43.6488 N.am      7 UNK        -0.5000 
     40 C           4.3353  -20.2641  -42.4413 C.2       6 UNK         0.5000 
     41 O           3.7924  -21.0256  -41.6404 O.2       6 UNK        -0.5000 
     42 CA          5.6699  -19.5939  -42.0608 C.3       6 UNK         0.1400 
     43 CB          6.8536  -20.4724  -42.4934 C.3       6 UNK        -0.1800 
     44 N           5.8219  -18.2641  -42.6515 N.am      6 UNK        -0.5000 
     45 C           5.1578  -17.1729  -42.2457 C.2       5 UNK         0.5000 
     46 O           4.4016  -17.1548  -41.2750 O.2       5 UNK        -0.5000 
     47 CA          5.3473  -15.8943  -43.0873 C.3       5 UNK         0.1400 
     48 CB          6.4716  -15.0264  -42.5025 C.3       5 UNK        -0.1800 
     49 N           5.6287  -16.1588  -44.5036 N.am      5 UNK        -0.5000 
     50 C           4.7838  -16.7722  -45.3411 C.2       4 UNK         0.5000 
     51 O           3.6769  -17.2004  -45.0025 O.2       4 UNK        -0.5000 
     52 CA          5.2746  -17.0025  -46.7748 C.3       4 UNK         0.1400 
     53 CB          6.1588  -18.2616  -46.8445 C.3       4 UNK        -0.1800 
     54 N           4.1018  -17.1651  -47.6224 N.am      4 UNK        -0.5000 
     55 C           4.0587  -17.0717  -48.9557 C.2       3 UNK         0.5000 
     56 O           5.0435  -16.8521  -49.6618 O.2       3 UNK        -0.5000 
     57 CA          2.6738  -17.2455  -49.6097 C.3       3 UNK         0.1400 
     58 CB          2.4441  -18.7174  -49.9838 C.3       3 UNK        -0.1800 
     59 N           1.5825  -16.7999  -48.7400 N.am      3 UNK        -0.5000 
     60 C           1.3060  -15.5193  -48.4697 C.2       2 UNK         0.5000 
     61 O           1.8882  -14.5612  -48.9853 O.2       2 UNK        -0.5000 
     62 CA          0.2126  -15.2708  -47.4249 C.3       2 UNK         0.1400 
     63 CB          0.7786  -15.4000  -46.0024 C.3       2 UNK        -0.1800 
     64 N          -0.3366  -13.9386  -47.6279 N.am      2 UNK        -0.5000 
     65 C          -1.5589  -13.5496  -47.2552 C.2       1 UNK         0.5000 
     66 O          -2.3400  -14.2616  -46.6191 O.2       1 UNK        -0.5000 
     67 C          -2.9034  -21.4218  -46.6870 C.2       11 UNK         0.5000 
     68 O          -2.3495  -22.0057  -47.6223 O.2       11 UNK        -0.5000 
     69 N          -4.2149  -21.5177  -46.4275 N.am      12 UNK        -0.5000 
     70 CA         -5.1728  -22.3409  -47.1689 C.3       12 UNK         0.1400 
     71 CB         -6.5822  -22.0809  -46.6186 C.3       12 UNK        -0.1800 
     72 C          -4.8555  -23.8520  -47.1606 C.2       12 UNK         0.5000 
     73 O          -5.2678  -24.5522  -48.0848 O.2       12 UNK        -0.5000 
     74 N          -4.1213  -24.3198  -46.1429 N.am      13 UNK        -0.5000 
     75 CA         -3.6376  -25.6920  -46.0178 C.3       13 UNK         0.1400 
     76 CB         -4.0350  -26.2431  -44.6389 C.3       13 UNK        -0.1800 
     77 C          -2.1131  -25.7514  -46.2050 C.2       13 UNK         0.5000 
     78 O          -1.6313  -26.5855  -46.9705 O.2       13 UNK        -0.5000 
     79 N          -1.3821  -24.8605  -45.5198 N.am      14 UNK        -0.5000 
     80 CA          0.0804  -24.8433  -45.4311 C.3       14 UNK         0.1400 
     81 CB          0.5102  -23.8164  -44.3727 C.3       14 UNK        -0.1800 
     82 C           0.7906  -24.5667  -46.7671 C.2       14 UNK         0.5000 
     83 O           1.8474  -25.1472  -47.0174 O.2       14 UNK        -0.5000 
     84 N           0.1902  -23.7109  -47.6024 N.am      15 UNK        -0.5000 
     85 CA          0.6392  -23.4220  -48.9659 C.3       15 UNK         0.1400 
     86 CB          0.9520  -21.9223  -49.0796 C.3       15 UNK        -0.1800 
     87 C          -0.4169  -23.8534  -49.9994 C.2       15 UNK         0.5000 
     88 O          -0.3132  -23.4704  -51.1649 O.2       15 UNK        -0.5000 
     89 N          -1.4324  -24.6120  -49.5560 N.am      16 UNK        -0.5000 
     90 CA         -2.5791  -25.1047  -50.3269 C.3       16 UNK         0.1400 
     91 CB         -2.1262  -26.2151  -51.2970 C.3       16 UNK        -0.1800 
     92 C          -3.3730  -23.9802  -51.0304 C.2       16 UNK         0.5000 
     93 O          -3.8603  -24.1832  -52.1428 O.2       16 UNK        -0.5000 
     94 N          -3.4518  -22.8081  -50.3769 N.am      17 UNK        -0.5000 
     95 CA         -4.0598  -21.5565  -50.8512 C.3       17 UNK         0.1400 
     96 CB         -5.5422  -21.7572  -51.2328 C.3       17 UNK        -0.1800 
     97 C          -3.2599  -20.8414  -51.9621 C.2       17 UNK         0.5000 
     98 O          -3.7576  -19.8639  -52.5252 O.2       17 UNK        -0.5000 
     99 N          -2.0365  -21.3190  -52.2418 N.am      18 UNK        -0.5000 
    100 CA        -1.1290  -20.9007  -53.3142 C.3       18 UNK         0.1400 
    101 CB        -0.7056  -19.4270  -53.1260 C.3       18 UNK        -0.1800 
    102 C         -1.6974  -21.1679  -54.7256 C.2       18 UNK         0.5000 
    103 O         -2.8152  -21.6663  -54.8787 O.2       18 UNK        -0.5000 
    104 N         -0.9185  -20.8102  -55.7558 N.am      19 UNK        -0.5000 
    105 CA        -1.3185  -20.8968  -57.1662 C.3       19 UNK         0.1400 
    106 CB        -0.1002  -20.5923  -58.0513 C.3       19 UNK        -0.1800 
    107 C         -2.4953  -19.9645  -57.5257 C.2       19 UNK         0.5000 
    108 O         -3.2121  -20.2290  -58.4913 O.2       19 UNK        -0.5000 
    109 N         -2.6774  -18.9017  -56.7306 N.am      20 UNK        -0.5000 
    110 CA        -3.7769  -17.9466  -56.8318 C.3       20 UNK         0.1400 
    111 CB        -3.3850  -16.6731  -56.0644 C.3       20 UNK        -0.1800 
    112 C         -5.1197  -18.4866  -56.3010 C.2       20 UNK         0.5000 
    113 O         -6.1513  -17.8892  -56.6091 O.2       20 UNK        -0.5000 
    114 N         -5.0959  -19.5550  -55.4850 N.am      21 UNK        -0.5000 
    115 CA        -6.2414  -20.1434  -54.7733 C.3       21 UNK         0.1400 
    116 CB        -7.1741  -20.8736  -55.7608 C.3       21 UNK        -0.1800 
    117 C         -6.9763  -19.1014  -53.8979 C.2       21 UNK         0.5000 
    118 O         -8.1935  -18.9392  -53.9995 O.2       21 UNK        -0.5000 
    119 N         -6.1845  -18.3666  -53.1091 N.am      22 UNK        -0.5000 
    120 CA        -6.5441  -17.1606  -52.3428 C.3       22 UNK         0.1400 
    121 C         -6.8886  -15.8981  -53.1940 C.2       22 UNK         0.5000 
    122 N         -6.8299  -15.9234  -54.5196 N.am      22 UNK        -0.7600 
    123 O         -7.1853  -14.8459  -52.6351 O.2       22 UNK        -0.5000 
    124 C124       -7.6063  -17.3950  -51.2282 C.3       23 UNK        -0.0398 
    125 S125       -7.1459  -18.6556  -49.9907 S.3       23 UNK        -0.2404 
    126 C126       -6.3883  -17.6447  -48.6779 C.3       23 UNK        -0.0205 
    127 H127       -1.9619  -10.7574  -43.8433 H         1 UNK         0.0600 
    128 H128       -1.0456  -10.6119  -45.3359 H         1 UNK         0.0600 
    129 H129       -1.4127  -12.2130  -44.6651 H         1 UNK         0.0600 
    130 H130       -3.9887  -11.6638  -47.3870 H         1 UNK         0.3000 
    131 H131       -1.1140  -11.4736  -47.4737 H         1 UNK         0.0600 
    132 H132       -2.3704  -10.9856  -49.4728 H         1 UNK         0.0800 
    133 H133       -1.3616  -12.3546  -49.7702 H         1 UNK         0.0800 
    134 H134       -1.9642  -14.2652  -50.7868 H         1 UNK         0.0800 
    135 H135       -3.4754  -14.4249  -51.6350 H         1 UNK         0.0800 
    136 H136       -5.4458  -15.3082  -49.7392 H         1 UNK         0.1150 
    137 H137       -4.1736  -19.1712  -48.4187 H         1 UNK         0.1150 
    138 H138       -1.3122  -16.4180  -50.0311 H         1 UNK         0.1150 
    139 H139       -1.9456  -19.9409  -49.1238 H         1 UNK         0.0800 
    140 H140       -0.7984  -18.8368  -49.8037 H         1 UNK         0.0800 
    141 H141       -2.8837  -18.6920  -46.4556 H         1 UNK         0.0800 
    142 H142       -1.6186  -18.5037  -45.3015 H         1 UNK         0.0800 
    143 H143       -1.0692  -21.0321  -45.6866 H         1 UNK         0.0600 
    144 H144       -2.5855  -19.7840  -43.8012 H         1 UNK         0.3000 
    145 H145       -3.9170  -21.1243  -41.9549 H         1 UNK         0.0600 
    146 H146       -3.2048  -22.8259  -40.2620 H         1 UNK         0.0600 
    147 H147       -3.7365  -23.6185  -41.7310 H         1 UNK         0.0600 
    148 H148       -2.0157  -23.4726  -41.3905 H         1 UNK         0.0600 
    149 H149       -1.0781  -20.6090  -42.0778 H         1 UNK         0.3000 
    150 H150       -1.1764  -18.4422  -39.2641 H         1 UNK         0.0600 
    151 H151       -0.4253  -20.5365  -38.1169 H         1 UNK         0.0600 
    152 H152        0.9396  -19.5192  -38.5496 H         1 UNK         0.0600 
    153 H153        0.5681  -20.9523  -39.5088 H         1 UNK         0.0600 
    154 H154        0.9307  -19.0957  -41.0787 H         1 UNK         0.3000 
    155 H155       -0.0854  -17.2414  -43.8540 H         1 UNK         0.0600 
    156 H156        1.8534  -16.2119  -41.7141 H         1 UNK         0.0600 
    157 H157        0.5287  -15.3017  -42.4293 H         1 UNK         0.0600 
    158 H158        1.9029  -15.7695  -43.4166 H         1 UNK         0.0600 
    159 H159        2.4499  -18.0256  -43.5912 H         1 UNK         0.3000 
    160 H160        2.4525  -21.5304  -43.8337 H         1 UNK         0.0600 
    161 H161        2.6643  -19.4651  -46.0898 H         1 UNK         0.0600 
    162 H162        1.6399  -20.8924  -46.0858 H         1 UNK         0.0600 
    163 H163        3.3874  -21.0738  -46.0927 H         1 UNK         0.0600 
    164 H164        4.3038  -19.2923  -44.2261 H         1 UNK         0.3000 
    165 H165        5.6964  -19.4967  -40.9733 H         1 UNK         0.0600 
    166 H166        7.8022  -20.0423  -42.1715 H         1 UNK         0.0600 
    167 H167        6.7829  -21.4674  -42.0518 H         1 UNK         0.0600 
    168 H168        6.8904  -20.5959  -43.5766 H         1 UNK         0.0600 
    169 H169        6.4400  -18.1834  -43.4449 H         1 UNK         0.3000 
    170 H170        4.4155  -15.3275  -43.0327 H         1 UNK         0.0600 
    171 H171        6.2789  -14.7914  -41.4548 H         1 UNK         0.0600 
    172 H172        7.4376  -15.5302  -42.5538 H         1 UNK         0.0600 
    173 H173        6.5569  -14.0793  -43.0355 H         1 UNK         0.0600 
    174 H174        6.5246  -15.8458  -44.8496 H         1 UNK         0.3000 
    175 H175        5.8387  -16.1267  -47.1018 H         1 UNK         0.0600 
    176 H176        5.6108  -19.1542  -46.5393 H         1 UNK         0.0600 
    177 H177        6.5314  -18.4301  -47.8548 H         1 UNK         0.0600 
    178 H178        7.0289  -18.1694  -46.1936 H         1 UNK         0.0600 
    179 H179        3.2454  -17.3103  -47.1039 H         1 UNK         0.3000 
    180 H180        2.6574  -16.6507  -50.5255 H         1 UNK         0.0600 
    181 H181        2.4213  -19.3546  -49.0993 H         1 UNK         0.0600 
    182 H182        3.2392  -19.0855  -50.6333 H         1 UNK         0.0600 
    183 H183        1.5045  -18.8484  -50.5188 H         1 UNK         0.0600 
    184 H184        1.0438  -17.5248  -48.2832 H         1 UNK         0.3000 
    185 H185       -0.5826  -16.0022  -47.5688 H         1 UNK         0.0600 
    186 H186        1.1612  -16.4059  -45.8276 H         1 UNK         0.0600 
    187 H187        1.5977  -14.7011  -45.8288 H         1 UNK         0.0600 
    188 H188        0.0107  -15.2087  -45.2532 H         1 UNK         0.0600 
    189 H189        0.2624  -13.3287  -48.1713 H         1 UNK         0.3000 
    190 H190       -4.5747  -21.0306  -45.6198 H         1 UNK         0.3000 
    191 H191       -5.1546  -22.0106  -48.2066 H         1 UNK         0.0600 
    192 H192       -6.6604  -22.3576  -45.5665 H         1 UNK         0.0600 
    193 H193       -7.3284  -22.6577  -47.1669 H         1 UNK         0.0600 
    194 H194       -6.8547  -21.0294  -46.7132 H         1 UNK         0.0600 
    195 H195       -3.7957  -23.6684  -45.4355 H         1 UNK         0.3000 
    196 H196       -4.0897  -26.3326  -46.7779 H         1 UNK         0.0600 
    197 H197       -3.6741  -27.2639  -44.5067 H         1 UNK         0.0600 
    198 H198       -5.1188  -26.2639  -44.5238 H         1 UNK         0.0600 
    199 H199       -3.6257  -25.6407  -43.8267 H         1 UNK         0.0600 
    200 H200       -1.8666  -24.1888  -44.9260 H         1 UNK         0.3000 
    201 H201        0.3973  -25.8313  -45.0909 H         1 UNK         0.0600 
    202 H202        0.0618  -24.0342  -43.4032 H         1 UNK         0.0600 
    203 H203        0.2191  -22.8046  -44.6540 H         1 UNK         0.0600 
    204 H204        1.5926  -23.8234  -44.2395 H         1 UNK         0.0600 
    205 H205       -0.6787  -23.2688  -47.3235 H         1 UNK         0.3000 
    206 H206        1.5486  -23.9765  -49.2044 H         1 UNK         0.0600 
    207 H207        1.7275  -21.6298  -48.3731 H         1 UNK         0.0600 
    208 H208        1.3106  -21.6641  -50.0767 H         1 UNK         0.0600 
    209 H209        0.0685  -21.3190  -48.8811 H         1 UNK         0.0600 
    210 H210       -1.4008  -24.9079  -48.5900 H         1 UNK         0.3000 
    211 H211       -3.2616  -25.5568  -49.6066 H         1 UNK         0.0600 
    212 H212       -1.4756  -25.8260  -52.0809 H         1 UNK         0.0600 
    213 H213       -2.9820  -26.6845  -51.7837 H         1 UNK         0.0600 
    214 H214       -1.5844  -27.0007  -50.7702 H         1 UNK         0.0600 
    215 H215       -2.9855  -22.7418  -49.4779 H         1 UNK         0.3000 
    216 H216       -4.0378  -20.8787  -49.9999 H         1 UNK         0.0600 
    217 H217       -6.0189  -20.8052  -51.4559 H         1 UNK         0.0600 
    218 H218       -6.1050  -22.2190  -50.4220 H         1 UNK         0.0600 
    219 H219       -5.6594  -22.3792  -52.1193 H         1 UNK         0.0600 
    220 H220       -1.7253  -22.1433  -51.7393 H         1 UNK         0.3000 
    221 H221       -0.2395  -21.5239  -53.2120 H         1 UNK         0.0600 
    222 H222       -1.5259  -18.7357  -53.3209 H         1 UNK         0.0600 
    223 H223       -0.3548  -19.2482  -52.1108 H         1 UNK         0.0600 
    224 H224        0.1126  -19.1581  -53.7942 H         1 UNK         0.0600 
    225 H225       -0.0036  -20.4242  -55.5720 H         1 UNK         0.3000 
    226 H226       -1.6398  -21.9214  -57.3650 H         1 UNK         0.0600 
    227 H227        0.7125  -21.2933  -57.8598 H         1 UNK         0.0600 
    228 H228       -0.3553  -20.6745  -59.1088 H         1 UNK         0.0600 
    229 H229        0.2781  -19.5832  -57.8827 H         1 UNK         0.0600 
    230 H230       -2.0297  -18.7638  -55.9696 H         1 UNK         0.3000 
    231 H231       -3.9171  -17.6863  -57.8830 H         1 UNK         0.0600 
    232 H232       -2.4641  -16.2419  -56.4573 H         1 UNK         0.0600 
    233 H233       -3.2375  -16.8726  -55.0019 H         1 UNK         0.0600 
    234 H234       -4.1600  -15.9101  -56.1490 H         1 UNK         0.0600 
    235 H235       -4.2014  -19.9830  -55.2768 H         1 UNK         0.3000 
    236 H236       -5.8317  -20.8915  -54.0945 H         1 UNK         0.0600 
    237 H237       -7.9716  -21.3948  -55.2301 H         1 UNK         0.0600 
    238 H238       -7.6438  -20.1839  -56.4627 H         1 UNK         0.0600 
    239 H239       -6.6274  -21.6189  -56.3385 H         1 UNK         0.0600 
    240 H240       -5.2068  -18.6387  -53.0526 H         1 UNK         0.3000 
    241 H241       -5.6119  -16.8902  -51.8535 H         1 UNK         0.0600 
    242 H242       -7.0495  -15.0830  -55.0297 H         1 UNK         0.3800 
    243 H243       -6.6249  -16.7727  -55.0330 H         1 UNK         0.3800 
    244 H244       -7.8161  -16.4669  -50.6946 H         1 UNK         0.0800 
    245 H245       -8.5560  -17.6933  -51.6735 H         1 UNK         0.0800 
    246 H246       -6.3970  -18.2165  -47.7487 H         1 UNK         0.0800 
    247 H247       -6.9892  -16.7539  -48.4896 H         1 UNK         0.0800 
@<TRIPOS>BOND
     1    1    2 1    
     2    1  127 1    
     3    1  128 1    
     4    1  129 1    
     5    2    3 2    
     6    2    4 am   BACKBONE|DICT|INTERRES
     7    4    5 1    
     8    4  130 1    
     9    5    6 1    
    10    5   65 1    
    11    5  131 1    
    12    6    7 1    
    13    6  132 1    
    14    6  133 1    
    15    7    8 1    
    16    8    9 1    
    17    8  134 1    
    18    8  135 1    
    19    9   10 ar   
    20    9   14 ar   
    21   10   11 ar   
    22   10  136 1    
    23   11   12 ar   
    24   11  126 1    
    25   12   13 ar   
    26   12  137 1    
    27   13   14 ar   
    28   13   15 1    
    29   14  138 1    
    30   15   16 1    
    31   15  139 1    
    32   15  140 1    
    33   16   17 1    
    34   17   18 1    
    35   17  141 1    
    36   17  142 1    
    37   18   19 1    
    38   18   67 1    
    39   18  143 1    
    40   19   20 am   BACKBONE|DICT|INTERRES
    41   19  144 1    
    42   20   21 2    
    43   20   22 1    
    44   22   23 1    
    45   22   24 1    
    46   22  145 1    
    47   23  146 1    
    48   23  147 1    
    49   23  148 1    
    50   24   25 am   BACKBONE|DICT|INTERRES
    51   24  149 1    
    52   25   26 2    
    53   25   27 1    
    54   27   28 1    
    55   27   29 1    
    56   27  150 1    
    57   28  151 1    
    58   28  152 1    
    59   28  153 1    
    60   29   30 am   BACKBONE|DICT|INTERRES
    61   29  154 1    
    62   30   31 2    
    63   30   32 1    
    64   32   33 1    
    65   32   34 1    
    66   32  155 1    
    67   33  156 1    
    68   33  157 1    
    69   33  158 1    
    70   34   35 am   BACKBONE|DICT|INTERRES
    71   34  159 1    
    72   35   36 2    
    73   35   37 1    
    74   37   38 1    
    75   37   39 1    
    76   37  160 1    
    77   38  161 1    
    78   38  162 1    
    79   38  163 1    
    80   39   40 am   BACKBONE|DICT|INTERRES
    81   39  164 1    
    82   40   41 2    
    83   40   42 1    
    84   42   43 1    
    85   42   44 1    
    86   42  165 1    
    87   43  166 1    
    88   43  167 1    
    89   43  168 1    
    90   44   45 am   BACKBONE|DICT|INTERRES
    91   44  169 1    
    92   45   46 2    
    93   45   47 1    
    94   47   48 1    
    95   47   49 1    
    96   47  170 1    
    97   48  171 1    
    98   48  172 1    
    99   48  173 1    
   100   49   50 am   BACKBONE|DICT|INTERRES
   101   49  174 1    
   102   50   51 2    
   103   50   52 1    
   104   52   53 1    
   105   52   54 1    
   106   52  175 1    
   107   53  176 1    
   108   53  177 1    
   109   53  178 1    
   110   54   55 am   BACKBONE|DICT|INTERRES
   111   54  179 1    
   112   55   56 2    
   113   55   57 1    
   114   57   58 1    
   115   57   59 1    
   116   57  180 1    
   117   58  181 1    
   118   58  182 1    
   119   58  183 1    
   120   59   60 am   BACKBONE|DICT|INTERRES
   121   59  184 1    
   122   60   61 2    
   123   60   62 1    
   124   62   63 1    
   125   62   64 1    
   126   62  185 1    
   127   63  186 1    
   128   63  187 1    
   129   63  188 1    
   130   64   65 am   BACKBONE|DICT|INTERRES
   131   64  189 1    
   132   65   66 2    
   133   67   68 2    
   134   67   69 am   BACKBONE|DICT|INTERRES
   135   69   70 1    
   136   69  190 1    
   137   70   71 1    
   138   70   72 1    
   139   70  191 1    
   140   71  192 1    
   141   71  193 1    
   142   71  194 1    
   143   72   73 2    
   144   72   74 am   BACKBONE|DICT|INTERRES
   145   74   75 1    
   146   74  195 1    
   147   75   76 1    
   148   75   77 1    
   149   75  196 1    
   150   76  197 1    
   151   76  198 1    
   152   76  199 1    
   153   77   78 2    
   154   77   79 am   BACKBONE|DICT|INTERRES
   155   79   80 1    
   156   79  200 1    
   157   80   81 1    
   158   80   82 1    
   159   80  201 1    
   160   81  202 1    
   161   81  203 1    
   162   81  204 1    
   163   82   83 2    
   164   82   84 am   BACKBONE|DICT|INTERRES
   165   84   85 1    
   166   84  205 1    
   167   85   86 1    
   168   85   87 1    
   169   85  206 1    
   170   86  207 1    
   171   86  208 1    
   172   86  209 1    
   173   87   88 2    
   174   87   89 am   BACKBONE|DICT|INTERRES
   175   89   90 1    
   176   89  210 1    
   177   90   91 1    
   178   90   92 1    
   179   90  211 1    
   180   91  212 1    
   181   91  213 1    
   182   91  214 1    
   183   92   93 2    
   184   92   94 am   BACKBONE|DICT|INTERRES
   185   94   95 1    
   186   94  215 1    
   187   95   96 1    
   188   95   97 1    
   189   95  216 1    
   190   96  217 1    
   191   96  218 1    
   192   96  219 1    
   193   97   98 2    
   194   97   99 am   BACKBONE|DICT|INTERRES
   195   99  100 1    
   196   99  220 1    
   197  100  101 1    
   198  100  102 1    
   199  100  221 1    
   200  101  222 1    
   201  101  223 1    
   202  101  224 1    
   203  102  103 2    
   204  102  104 am   BACKBONE|DICT|INTERRES
   205  104  105 1    
   206  104  225 1    
   207  105  106 1    
   208  105  107 1    
   209  105  226 1    
   210  106  227 1    
   211  106  228 1    
   212  106  229 1    
   213  107  108 2    
   214  107  109 am   BACKBONE|DICT|INTERRES
   215  109  110 1    
   216  109  230 1    
   217  110  111 1    
   218  110  112 1    
   219  110  231 1    
   220  111  232 1    
   221  111  233 1    
   222  111  234 1    
   223  112  113 2    
   224  112  114 am   BACKBONE|DICT|INTERRES
   225  114  115 1    
   226  114  235 1    
   227  115  116 1    
   228  115  117 1    
   229  115  236 1    
   230  116  237 1    
   231  116  238 1    
   232  116  239 1    
   233  117  118 2    
   234  117  119 am   BACKBONE|DICT|INTERRES
   235  119  120 1    
   236  119  240 1    
   237  120  121 1    
   238  120  124 1    
   239  120  241 1    
   240  121  122 am   BACKBONE|DICT|INTERRES
   241  121  123 2    
   242  122  242 1    
   243  122  243 1    
   244  124  125 1    
   245  124  244 1    
   246  124  245 1    
   247  125  126 1    
   248  126  246 1    
   249  126  247 1    
@<TRIPOS>SUBSTRUCTURE
     1 UNK         1 GROUP             0       ****    0 ROOT    
