@<TRIPOS>MOLECULE
3R540
247   249    1
SMALL
USER_CHARGES


@<TRIPOS>ATOM
      1 CA          5.0301  -14.0874  -50.7838 C.3       0 UNK        -0.1800 
      2 C           4.5839  -14.0731  -49.3287 C.2       0 UNK         0.5000 
      3 O           5.4176  -13.9411  -48.4327 O.2       0 UNK        -0.5000 
      4 N           3.2724  -14.2043  -49.0916 N.am      1 UNK        -0.5000 
      5 CA          2.6601  -14.2484  -47.7551 C.3       1 UNK         0.1400 
      6 C6          1.2582  -14.9102  -47.7752 C.3       23 UNK        -0.0398 
      7 S7          1.3129  -16.5999  -48.4571 S.3       23 UNK        -0.2404 
      8 C8         -0.1191  -16.5854  -49.5852 C.3       23 UNK        -0.0205 
      9 C9         -0.1387  -17.8038  -50.4991 C.ar      23 UNK        -0.0193 
     10 C10        -0.2417  -17.6501  -51.8850 C.ar      23 UNK        -0.1150 
     11 C11        -0.2548  -18.7692  -52.7241 C.ar      23 UNK        -0.0193 
     12 C12        -0.1266  -20.0462  -52.1705 C.ar      23 UNK        -0.1150 
     13 C13        -0.0283  -20.2148  -50.7871 C.ar      23 UNK        -0.0193 
     14 C14        -0.0622  -19.0900  -49.9602 C.ar      23 UNK        -0.1150 
     15 C15         0.1019  -21.6098  -50.1927 C.3       23 UNK        -0.0205 
     16 S16         1.7564  -21.9011  -49.4871 S.3       23 UNK        -0.2404 
     17 C17         1.4861  -21.4194  -47.7445 C.3       23 UNK        -0.0398 
     18 CA          1.4510  -22.6094  -46.7591 C.3       11 UNK         0.1400 
     19 N           1.3313  -22.1385  -45.3803 N.am      11 UNK        -0.5000 
     20 C           1.5333  -22.8957  -44.2948 C.2       10 UNK         0.5000 
     21 O           1.9628  -24.0484  -44.3331 O.2       10 UNK        -0.5000 
     22 CA          1.1528  -22.2704  -42.9404 C.3       10 UNK         0.1400 
     23 CB          2.3189  -21.4436  -42.3790 C.3       10 UNK        -0.1800 
     24 N          -0.0536  -21.4405  -43.0148 N.am      10 UNK        -0.5000 
     25 C          -1.2725  -21.9042  -43.3293 C.2       9 UNK         0.5000 
     26 O          -1.5102  -23.0894  -43.5592 O.2       9 UNK        -0.5000 
     27 CA         -2.4118  -20.8756  -43.4395 C.3       9 UNK         0.1400 
     28 CB         -2.9557  -20.5201  -42.0481 C.3       9 UNK        -0.1800 
     29 N          -2.0172  -19.6553  -44.1434 N.am      9 UNK        -0.5000 
     30 C          -1.6625  -19.5937  -45.4348 C.2       8 UNK         0.5000 
     31 O          -1.6535  -20.5650  -46.1898 O.2       8 UNK        -0.5000 
     32 CA         -1.1761  -18.2294  -45.9580 C.3       8 UNK         0.1400 
     33 CB         -2.3498  -17.2880  -46.2630 C.3       8 UNK        -0.1800 
     34 N          -0.2467  -17.5804  -45.0356 N.am      8 UNK        -0.5000 
     35 C           0.9484  -18.0850  -44.6952 C.2       7 UNK         0.5000 
     36 O           1.4112  -19.1301  -45.1553 O.2       7 UNK        -0.5000 
     37 CA          1.7284  -17.3203  -43.6134 C.3       7 UNK         0.1400 
     38 CB          2.4803  -16.1252  -44.2174 C.3       7 UNK        -0.1800 
     39 N           0.8527  -16.8622  -42.5334 N.am      7 UNK        -0.5000 
     40 C           0.2550  -17.6794  -41.6538 C.2       6 UNK         0.5000 
     41 O           0.4052  -18.9003  -41.6440 O.2       6 UNK        -0.5000 
     42 CA         -0.7063  -17.0290  -40.6431 C.3       6 UNK         0.1400 
     43 CB          0.0712  -16.4303  -39.4616 C.3       6 UNK        -0.1800 
     44 N          -1.5449  -15.9942  -41.2483 N.am      6 UNK        -0.5000 
     45 C          -2.4646  -16.2187  -42.1977 C.2       5 UNK         0.5000 
     46 O          -2.7266  -17.3329  -42.6461 O.2       5 UNK        -0.5000 
     47 CA         -3.1800  -14.9858  -42.7769 C.3       5 UNK         0.1400 
     48 CB         -4.4467  -14.6673  -41.9693 C.3       5 UNK        -0.1800 
     49 N          -2.3245  -13.7985  -42.8287 N.am      5 UNK        -0.5000 
     50 C          -1.2158  -13.6944  -43.5718 C.2       4 UNK         0.5000 
     51 O          -0.7828  -14.5991  -44.2916 O.2       4 UNK        -0.5000 
     52 CA         -0.4521  -12.3659  -43.4694 C.3       4 UNK         0.1400 
     53 CB          0.9443  -12.5792  -42.8647 C.3       4 UNK        -0.1800 
     54 N          -0.3365  -11.7553  -44.7906 N.am      4 UNK        -0.5000 
     55 C          -1.3208  -11.0587  -45.3797 C.2       3 UNK         0.5000 
     56 O          -2.3973  -10.8270  -44.8260 O.2       3 UNK        -0.5000 
     57 CA         -1.0992  -10.5538  -46.8247 C.3       3 UNK         0.1400 
     58 CB         -1.6811   -9.1423  -47.0505 C.3       3 UNK        -0.1800 
     59 N           0.2889  -10.6317  -47.2926 N.am      3 UNK        -0.5000 
     60 C           1.3581   -9.9637  -46.8324 C.2       2 UNK         0.5000 
     61 O           1.3064   -9.0987  -45.9568 O.2       2 UNK        -0.5000 
     62 CA          2.7171  -10.3685  -47.4490 C.3       2 UNK         0.1400 
     63 CB          3.9104  -10.0334  -46.5302 C.3       2 UNK        -0.1800 
     64 N           2.7704  -11.7795  -47.8640 N.am      2 UNK        -0.5000 
     65 C           2.5801  -12.8593  -47.0864 C.2       1 UNK         0.5000 
     66 O           2.3060  -12.7905  -45.8893 O.2       1 UNK        -0.5000 
     67 C           0.3349  -23.6258  -47.0896 C.2       11 UNK         0.5000 
     68 O           0.6321  -24.7113  -47.5878 O.2       11 UNK        -0.5000 
     69 N          -0.9235  -23.2786  -46.7790 N.am      12 UNK        -0.5000 
     70 CA         -2.1038  -24.1073  -47.0395 C.3       12 UNK         0.1400 
     71 CB         -3.3724  -23.3338  -46.6638 C.3       12 UNK        -0.1800 
     72 C          -2.0755  -25.4801  -46.3429 C.2       12 UNK         0.5000 
     73 O          -2.5499  -26.4626  -46.9155 O.2       12 UNK        -0.5000 
     74 N          -1.4618  -25.5361  -45.1527 N.am      13 UNK        -0.5000 
     75 CA         -1.2105  -26.7480  -44.3694 C.3       13 UNK         0.1400 
     76 CB         -0.6039  -26.3515  -43.0148 C.3       13 UNK        -0.1800 
     77 C          -0.3245  -27.7983  -45.0750 C.2       13 UNK         0.5000 
     78 O          -0.3596  -28.9652  -44.6839 O.2       13 UNK        -0.5000 
     79 N           0.4146  -27.3964  -46.1203 N.am      14 UNK        -0.5000 
     80 CA          1.1773  -28.2824  -47.0047 C.3       14 UNK         0.1400 
     81 CB          2.4081  -27.5251  -47.5334 C.3       14 UNK        -0.1800 
     82 C           0.3220  -28.8606  -48.1578 C.2       14 UNK         0.5000 
     83 O           0.8889  -29.3566  -49.1323 O.2       14 UNK        -0.5000 
     84 N          -1.0125  -28.7911  -48.0286 N.am      15 UNK        -0.5000 
     85 CA         -2.0450  -29.2095  -48.9805 C.3       15 UNK         0.1400 
     86 CB         -1.9331  -30.7083  -49.3338 C.3       15 UNK        -0.1800 
     87 C          -2.0784  -28.2812  -50.2074 C.2       15 UNK         0.5000 
     88 O          -1.8579  -28.7207  -51.3379 O.2       15 UNK        -0.5000 
     89 N          -2.3495  -26.9998  -49.9435 N.am      16 UNK        -0.5000 
     90 CA         -2.4908  -25.9379  -50.9357 C.3       16 UNK         0.1400 
     91 CB         -1.1588  -25.1734  -51.0417 C.3       16 UNK        -0.1800 
     92 C          -3.6483  -25.0090  -50.5328 C.2       16 UNK         0.5000 
     93 O          -4.2016  -25.1499  -49.4397 O.2       16 UNK        -0.5000 
     94 N          -3.9941  -24.0657  -51.4152 N.am      17 UNK        -0.5000 
     95 CA         -4.9346  -22.9848  -51.1216 C.3       17 UNK         0.1400 
     96 CB         -5.4909  -22.4295  -52.4424 C.3       17 UNK        -0.1800 
     97 C          -4.2305  -21.8683  -50.3323 C.2       17 UNK         0.5000 
     98 O          -3.0656  -21.5748  -50.6046 O.2       17 UNK        -0.5000 
     99 N          -4.9537  -21.2302  -49.4049 N.am      18 UNK        -0.5000 
    100 CA        -4.4986  -20.0505  -48.6664 C.3       18 UNK         0.1400 
    101 CB        -5.2836  -19.9532  -47.3441 C.3       18 UNK        -0.1800 
    102 C         -4.6637  -18.7962  -49.5464 C.2       18 UNK         0.5000 
    103 O         -5.5942  -18.0162  -49.3372 O.2       18 UNK        -0.5000 
    104 N         -3.7890  -18.6717  -50.5537 N.am      19 UNK        -0.5000 
    105 CA        -3.8500  -17.7238  -51.6677 C.3       19 UNK         0.1400 
    106 CB        -3.7214  -16.2589  -51.1920 C.3       19 UNK        -0.1800 
    107 C         -5.0831  -18.0045  -52.5463 C.2       19 UNK         0.5000 
    108 O         -5.0800  -18.9982  -53.2736 O.2       19 UNK        -0.5000 
    109 N         -6.1094  -17.1458  -52.4621 N.am      20 UNK        -0.5000 
    110 CA        -7.3700  -17.2032  -53.2065 C.3       20 UNK         0.1400 
    111 CB        -8.2129  -18.4232  -52.7698 C.3       20 UNK        -0.1800 
    112 C         -7.1201  -17.1221  -54.7250 C.2       20 UNK         0.5000 
    113 O         -6.8390  -16.0317  -55.2249 O.2       20 UNK        -0.5000 
    114 N         -7.1803  -18.2661  -55.4201 N.am      21 UNK        -0.5000 
    115 CA        -6.9588  -18.4098  -56.8616 C.3       21 UNK         0.1400 
    116 CB        -7.1845  -19.8775  -57.2555 C.3       21 UNK        -0.1800 
    117 C         -5.5760  -17.9289  -57.3477 C.2       21 UNK         0.5000 
    118 O         -5.4741  -17.4527  -58.4793 O.2       21 UNK        -0.5000 
    119 N         -4.5543  -18.0382  -56.4887 N.am      22 UNK        -0.5000 
    120 CA        -3.2003  -17.5057  -56.7179 C.3       22 UNK         0.1400 
    121 C         -2.9195  -16.1673  -55.9701 C.2       22 UNK         0.5000 
    122 N         -3.9037  -15.5217  -55.3537 N.am      22 UNK        -0.7600 
    123 O         -1.7901  -15.6856  -55.9689 O.2       22 UNK        -0.5000 
    124 C124       -2.1083  -18.5842  -56.4854 C.3       23 UNK        -0.0398 
    125 S125       -2.0387  -19.2271  -54.7793 S.3       23 UNK        -0.2404 
    126 C126       -0.4198  -18.6034  -54.2264 C.3       23 UNK        -0.0205 
    127 H127        4.1887  -14.2164  -51.4651 H         1 UNK         0.0600 
    128 H128        5.7318  -14.9043  -50.9526 H         1 UNK         0.0600 
    129 H129        5.5291  -13.1508  -51.0328 H         1 UNK         0.0600 
    130 H130        2.6401  -14.3365  -49.8680 H         1 UNK         0.3000 
    131 H131        3.3005  -14.8592  -47.1149 H         1 UNK         0.0600 
    132 H132        0.8420  -14.9754  -46.7682 H         1 UNK         0.0800 
    133 H133        0.5585  -14.3021  -48.3505 H         1 UNK         0.0800 
    134 H134       -1.0378  -16.5627  -48.9983 H         1 UNK         0.0800 
    135 H135       -0.0997  -15.6707  -50.1794 H         1 UNK         0.0800 
    136 H136       -0.3265  -16.6603  -52.3111 H         1 UNK         0.1150 
    137 H137       -0.1256  -20.9101  -52.8202 H         1 UNK         0.1150 
    138 H138        0.0017  -19.2053  -48.8921 H         1 UNK         0.1150 
    139 H139       -0.6701  -21.7656  -49.4378 H         1 UNK         0.0800 
    140 H140       -0.0786  -22.3605  -50.9623 H         1 UNK         0.0800 
    141 H141        2.2916  -20.7381  -47.4664 H         1 UNK         0.0800 
    142 H142        0.5690  -20.8424  -47.6468 H         1 UNK         0.0800 
    143 H143        2.4045  -23.1355  -46.8438 H         1 UNK         0.0600 
    144 H144        1.0334  -21.1774  -45.2510 H         1 UNK         0.3000 
    145 H145        0.9508  -23.0885  -42.2459 H         1 UNK         0.0600 
    146 H146        2.0968  -21.0807  -41.3755 H         1 UNK         0.0600 
    147 H147        3.2278  -22.0429  -42.3133 H         1 UNK         0.0600 
    148 H148        2.5384  -20.5799  -43.0071 H         1 UNK         0.0600 
    149 H149        0.0560  -20.4586  -42.7784 H         1 UNK         0.3000 
    150 H150       -3.2218  -21.3361  -44.0076 H         1 UNK         0.0600 
    151 H151       -3.2640  -21.4158  -41.5075 H         1 UNK         0.0600 
    152 H152       -3.8268  -19.8688  -42.1210 H         1 UNK         0.0600 
    153 H153       -2.2070  -20.0101  -41.4412 H         1 UNK         0.0600 
    154 H154       -2.0477  -18.7951  -43.6016 H         1 UNK         0.3000 
    155 H155       -0.6376  -18.4054  -46.8889 H         1 UNK         0.0600 
    156 H156       -1.9962  -16.3154  -46.6063 H         1 UNK         0.0600 
    157 H157       -2.9772  -17.1248  -45.3869 H         1 UNK         0.0600 
    158 H158       -2.9815  -17.6990  -47.0502 H         1 UNK         0.0600 
    159 H159       -0.5394  -16.6999  -44.6274 H         1 UNK         0.3000 
    160 H160        2.4664  -18.0039  -43.1885 H         1 UNK         0.0600 
    161 H161        1.7967  -15.3870  -44.6348 H         1 UNK         0.0600 
    162 H162        3.1437  -16.4478  -45.0208 H         1 UNK         0.0600 
    163 H163        3.0946  -15.6253  -43.4686 H         1 UNK         0.0600 
    164 H164        0.6360  -15.8771  -42.5095 H         1 UNK         0.3000 
    165 H165       -1.3630  -17.8120  -40.2581 H         1 UNK         0.0600 
    166 H166        0.7255  -15.6170  -39.7780 H         1 UNK         0.0600 
    167 H167       -0.6060  -16.0404  -38.7013 H         1 UNK         0.0600 
    168 H168        0.6949  -17.1863  -38.9825 H         1 UNK         0.0600 
    169 H169       -1.3976  -15.0456  -40.9373 H         1 UNK         0.3000 
    170 H170       -3.4783  -15.2275  -43.7990 H         1 UNK         0.0600 
    171 H171       -5.1130  -15.5304  -41.9328 H         1 UNK         0.0600 
    172 H172       -4.2112  -14.3905  -40.9409 H         1 UNK         0.0600 
    173 H173       -5.0055  -13.8465  -42.4193 H         1 UNK         0.0600 
    174 H174       -2.6213  -13.0057  -42.2778 H         1 UNK         0.3000 
    175 H175       -0.9944  -11.6843  -42.8105 H         1 UNK         0.0600 
    176 H176        1.5025  -11.6437  -42.8226 H         1 UNK         0.0600 
    177 H177        0.8727  -12.9626  -41.8463 H         1 UNK         0.0600 
    178 H178        1.5340  -13.2924  -43.4395 H         1 UNK         0.0600 
    179 H179        0.5176  -11.9535  -45.3004 H         1 UNK         0.3000 
    180 H180       -1.6612  -11.2393  -47.4604 H         1 UNK         0.0600 
    181 H181       -1.5226   -8.8091  -48.0761 H         1 UNK         0.0600 
    182 H182       -2.7567   -9.1283  -46.8705 H         1 UNK         0.0600 
    183 H183       -1.2318   -8.4057  -46.3843 H         1 UNK         0.0600 
    184 H184        0.4588  -11.3167  -48.0148 H         1 UNK         0.3000 
    185 H185        2.8242   -9.7757  -48.3584 H         1 UNK         0.0600 
    186 H186        4.8550  -10.3249  -46.9895 H         1 UNK         0.0600 
    187 H187        3.9647   -8.9624  -46.3317 H         1 UNK         0.0600 
    188 H188        3.8351  -10.5410  -45.5680 H         1 UNK         0.0600 
    189 H189        2.9811  -11.9423  -48.8387 H         1 UNK         0.3000 
    190 H190       -1.1027  -22.3542  -46.3942 H         1 UNK         0.3000 
    191 H191       -2.1234  -24.2876  -48.1130 H         1 UNK         0.0600 
    192 H192       -4.2678  -23.9072  -46.9064 H         1 UNK         0.0600 
    193 H193       -3.4274  -22.3975  -47.2154 H         1 UNK         0.0600 
    194 H194       -3.4054  -23.1041  -45.5995 H         1 UNK         0.0600 
    195 H195       -1.1693  -24.6599  -44.7304 H         1 UNK         0.3000 
    196 H196       -2.1775  -27.2192  -44.1833 H         1 UNK         0.0600 
    197 H197       -0.4429  -27.2275  -42.3852 H         1 UNK         0.0600 
    198 H198       -1.2636  -25.6772  -42.4685 H         1 UNK         0.0600 
    199 H199        0.3580  -25.8538  -43.1367 H         1 UNK         0.0600 
    200 H200        0.3790  -26.4217  -46.4007 H         1 UNK         0.3000 
    201 H201        1.5417  -29.1322  -46.4243 H         1 UNK         0.0600 
    202 H202        2.9676  -27.0593  -46.7219 H         1 UNK         0.0600 
    203 H203        2.1282  -26.7448  -48.2411 H         1 UNK         0.0600 
    204 H204        3.0901  -28.2013  -48.0501 H         1 UNK         0.0600 
    205 H205       -1.3666  -28.2882  -47.2249 H         1 UNK         0.3000 
    206 H206       -2.9984  -29.0741  -48.4673 H         1 UNK         0.0600 
    207 H207       -1.9208  -31.3250  -48.4352 H         1 UNK         0.0600 
    208 H208       -2.7858  -31.0264  -49.9345 H         1 UNK         0.0600 
    209 H209       -1.0341  -30.9329  -49.9078 H         1 UNK         0.0600 
    210 H210       -2.5778  -26.7301  -48.9907 H         1 UNK         0.3000 
    211 H211       -2.7403  -26.3655  -51.9090 H         1 UNK         0.0600 
    212 H212       -0.8842  -24.7046  -50.0964 H         1 UNK         0.0600 
    213 H213       -1.2112  -24.3887  -51.7968 H         1 UNK         0.0600 
    214 H214       -0.3453  -25.8405  -51.3273 H         1 UNK         0.0600 
    215 H215       -3.4708  -23.9778  -52.2739 H         1 UNK         0.3000 
    216 H216       -5.7662  -23.3756  -50.5310 H         1 UNK         0.0600 
    217 H217       -6.2127  -21.6325  -52.2581 H         1 UNK         0.0600 
    218 H218       -6.0006  -23.2047  -53.0147 H         1 UNK         0.0600 
    219 H219       -4.7013  -22.0118  -53.0691 H         1 UNK         0.0600 
    220 H220       -5.9149  -21.5025  -49.2587 H         1 UNK         0.3000 
    221 H221       -3.4392  -20.1553  -48.4203 H         1 UNK         0.0600 
    222 H222       -6.3580  -19.8776  -47.5152 H         1 UNK         0.0600 
    223 H223       -5.1087  -20.8227  -46.7115 H         1 UNK         0.0600 
    224 H224       -4.9806  -19.0755  -46.7726 H         1 UNK         0.0600 
    225 H225       -3.1249  -19.4293  -50.6764 H         1 UNK         0.3000 
    226 H226       -2.9857  -17.9349  -52.2945 H         1 UNK         0.0600 
    227 H227       -2.7864  -16.1063  -50.6560 H         1 UNK         0.0600 
    228 H228       -3.7157  -15.5757  -52.0422 H         1 UNK         0.0600 
    229 H229       -4.5309  -15.9545  -50.5290 H         1 UNK         0.0600 
    230 H230       -6.0128  -16.3635  -51.8306 H         1 UNK         0.3000 
    231 H231       -7.9309  -16.3064  -52.9393 H         1 UNK         0.0600 
    232 H232       -9.1624  -18.4542  -53.3056 H         1 UNK         0.0600 
    233 H233       -8.4460  -18.3693  -51.7062 H         1 UNK         0.0600 
    234 H234       -7.7039  -19.3716  -52.9428 H         1 UNK         0.0600 
    235 H235       -7.3570  -19.1180  -54.9079 H         1 UNK         0.3000 
    236 H236       -7.7101  -17.8007  -57.3681 H         1 UNK         0.0600 
    237 H237       -6.4836  -20.5414  -56.7476 H         1 UNK         0.0600 
    238 H238       -8.1954  -20.2023  -57.0083 H         1 UNK         0.0600 
    239 H239       -7.0526  -20.0195  -58.3290 H         1 UNK         0.0600 
    240 H240       -4.7224  -18.4375  -55.5732 H         1 UNK         0.3000 
    241 H241       -3.1116  -17.2305  -57.7700 H         1 UNK         0.0600 
    242 H242       -4.8629  -15.8469  -55.3993 H         1 UNK         0.3800 
    243 H243       -3.6996  -14.6474  -54.8970 H         1 UNK         0.3800 
    244 H244       -2.2952  -19.4305  -57.1475 H         1 UNK         0.0800 
    245 H245       -1.1287  -18.2028  -56.7781 H         1 UNK         0.0800 
    246 H246        0.3747  -19.1421  -54.7446 H         1 UNK         0.0800 
    247 H247       -0.3196  -17.5533  -54.5051 H         1 UNK         0.0800 
@<TRIPOS>BOND
     1    1    2 1    
     2    1  127 1    
     3    1  128 1    
     4    1  129 1    
     5    2    3 2    
     6    2    4 am   BACKBONE|DICT|INTERRES
     7    4    5 1    
     8    4  130 1    
     9    5    6 1    
    10    5   65 1    
    11    5  131 1    
    12    6    7 1    
    13    6  132 1    
    14    6  133 1    
    15    7    8 1    
    16    8    9 1    
    17    8  134 1    
    18    8  135 1    
    19    9   10 ar   
    20    9   14 ar   
    21   10   11 ar   
    22   10  136 1    
    23   11   12 ar   
    24   11  126 1    
    25   12   13 ar   
    26   12  137 1    
    27   13   14 ar   
    28   13   15 1    
    29   14  138 1    
    30   15   16 1    
    31   15  139 1    
    32   15  140 1    
    33   16   17 1    
    34   17   18 1    
    35   17  141 1    
    36   17  142 1    
    37   18   19 1    
    38   18   67 1    
    39   18  143 1    
    40   19   20 am   BACKBONE|DICT|INTERRES
    41   19  144 1    
    42   20   21 2    
    43   20   22 1    
    44   22   23 1    
    45   22   24 1    
    46   22  145 1    
    47   23  146 1    
    48   23  147 1    
    49   23  148 1    
    50   24   25 am   BACKBONE|DICT|INTERRES
    51   24  149 1    
    52   25   26 2    
    53   25   27 1    
    54   27   28 1    
    55   27   29 1    
    56   27  150 1    
    57   28  151 1    
    58   28  152 1    
    59   28  153 1    
    60   29   30 am   BACKBONE|DICT|INTERRES
    61   29  154 1    
    62   30   31 2    
    63   30   32 1    
    64   32   33 1    
    65   32   34 1    
    66   32  155 1    
    67   33  156 1    
    68   33  157 1    
    69   33  158 1    
    70   34   35 am   BACKBONE|DICT|INTERRES
    71   34  159 1    
    72   35   36 2    
    73   35   37 1    
    74   37   38 1    
    75   37   39 1    
    76   37  160 1    
    77   38  161 1    
    78   38  162 1    
    79   38  163 1    
    80   39   40 am   BACKBONE|DICT|INTERRES
    81   39  164 1    
    82   40   41 2    
    83   40   42 1    
    84   42   43 1    
    85   42   44 1    
    86   42  165 1    
    87   43  166 1    
    88   43  167 1    
    89   43  168 1    
    90   44   45 am   BACKBONE|DICT|INTERRES
    91   44  169 1    
    92   45   46 2    
    93   45   47 1    
    94   47   48 1    
    95   47   49 1    
    96   47  170 1    
    97   48  171 1    
    98   48  172 1    
    99   48  173 1    
   100   49   50 am   BACKBONE|DICT|INTERRES
   101   49  174 1    
   102   50   51 2    
   103   50   52 1    
   104   52   53 1    
   105   52   54 1    
   106   52  175 1    
   107   53  176 1    
   108   53  177 1    
   109   53  178 1    
   110   54   55 am   BACKBONE|DICT|INTERRES
   111   54  179 1    
   112   55   56 2    
   113   55   57 1    
   114   57   58 1    
   115   57   59 1    
   116   57  180 1    
   117   58  181 1    
   118   58  182 1    
   119   58  183 1    
   120   59   60 am   BACKBONE|DICT|INTERRES
   121   59  184 1    
   122   60   61 2    
   123   60   62 1    
   124   62   63 1    
   125   62   64 1    
   126   62  185 1    
   127   63  186 1    
   128   63  187 1    
   129   63  188 1    
   130   64   65 am   BACKBONE|DICT|INTERRES
   131   64  189 1    
   132   65   66 2    
   133   67   68 2    
   134   67   69 am   BACKBONE|DICT|INTERRES
   135   69   70 1    
   136   69  190 1    
   137   70   71 1    
   138   70   72 1    
   139   70  191 1    
   140   71  192 1    
   141   71  193 1    
   142   71  194 1    
   143   72   73 2    
   144   72   74 am   BACKBONE|DICT|INTERRES
   145   74   75 1    
   146   74  195 1    
   147   75   76 1    
   148   75   77 1    
   149   75  196 1    
   150   76  197 1    
   151   76  198 1    
   152   76  199 1    
   153   77   78 2    
   154   77   79 am   BACKBONE|DICT|INTERRES
   155   79   80 1    
   156   79  200 1    
   157   80   81 1    
   158   80   82 1    
   159   80  201 1    
   160   81  202 1    
   161   81  203 1    
   162   81  204 1    
   163   82   83 2    
   164   82   84 am   BACKBONE|DICT|INTERRES
   165   84   85 1    
   166   84  205 1    
   167   85   86 1    
   168   85   87 1    
   169   85  206 1    
   170   86  207 1    
   171   86  208 1    
   172   86  209 1    
   173   87   88 2    
   174   87   89 am   BACKBONE|DICT|INTERRES
   175   89   90 1    
   176   89  210 1    
   177   90   91 1    
   178   90   92 1    
   179   90  211 1    
   180   91  212 1    
   181   91  213 1    
   182   91  214 1    
   183   92   93 2    
   184   92   94 am   BACKBONE|DICT|INTERRES
   185   94   95 1    
   186   94  215 1    
   187   95   96 1    
   188   95   97 1    
   189   95  216 1    
   190   96  217 1    
   191   96  218 1    
   192   96  219 1    
   193   97   98 2    
   194   97   99 am   BACKBONE|DICT|INTERRES
   195   99  100 1    
   196   99  220 1    
   197  100  101 1    
   198  100  102 1    
   199  100  221 1    
   200  101  222 1    
   201  101  223 1    
   202  101  224 1    
   203  102  103 2    
   204  102  104 am   BACKBONE|DICT|INTERRES
   205  104  105 1    
   206  104  225 1    
   207  105  106 1    
   208  105  107 1    
   209  105  226 1    
   210  106  227 1    
   211  106  228 1    
   212  106  229 1    
   213  107  108 2    
   214  107  109 am   BACKBONE|DICT|INTERRES
   215  109  110 1    
   216  109  230 1    
   217  110  111 1    
   218  110  112 1    
   219  110  231 1    
   220  111  232 1    
   221  111  233 1    
   222  111  234 1    
   223  112  113 2    
   224  112  114 am   BACKBONE|DICT|INTERRES
   225  114  115 1    
   226  114  235 1    
   227  115  116 1    
   228  115  117 1    
   229  115  236 1    
   230  116  237 1    
   231  116  238 1    
   232  116  239 1    
   233  117  118 2    
   234  117  119 am   BACKBONE|DICT|INTERRES
   235  119  120 1    
   236  119  240 1    
   237  120  121 1    
   238  120  124 1    
   239  120  241 1    
   240  121  122 am   BACKBONE|DICT|INTERRES
   241  121  123 2    
   242  122  242 1    
   243  122  243 1    
   244  124  125 1    
   245  124  244 1    
   246  124  245 1    
   247  125  126 1    
   248  126  246 1    
   249  126  247 1    
@<TRIPOS>SUBSTRUCTURE
     1 UNK         1 GROUP             0       ****    0 ROOT    
