@<TRIPOS>MOLECULE
3R540
247   249    1
SMALL
USER_CHARGES


@<TRIPOS>ATOM
      1 CA          1.6403  -14.8665  -46.6880 C.3       0 UNK        -0.1800 
      2 C           1.0153  -13.9560  -47.7369 C.2       0 UNK         0.5000 
      3 O          -0.1962  -13.7387  -47.7258 O.2       0 UNK        -0.5000 
      4 N           1.8433  -13.4497  -48.6577 N.am      1 UNK        -0.5000 
      5 CA          1.4308  -12.6079  -49.7861 C.3       1 UNK         0.1400 
      6 C6          2.2391  -12.9412  -51.0688 C.3       23 UNK        -0.0398 
      7 S7          1.6050  -14.4134  -51.9430 S.3       23 UNK        -0.2404 
      8 C8          2.3213  -15.8008  -50.9953 C.3       23 UNK        -0.0205 
      9 C9          1.2773  -16.8544  -50.6378 C.ar      23 UNK        -0.0193 
     10 C10         0.0401  -16.4828  -50.0987 C.ar      23 UNK        -0.1150 
     11 C11        -0.9313  -17.4435  -49.8138 C.ar      23 UNK        -0.0193 
     12 C12        -0.6530  -18.7899  -50.0501 C.ar      23 UNK        -0.1150 
     13 C13         0.5933  -19.1848  -50.5425 C.ar      23 UNK        -0.0193 
     14 C14         1.5522  -18.2110  -50.8399 C.ar      23 UNK        -0.1150 
     15 C15         0.9001  -20.6599  -50.7579 C.3       23 UNK        -0.0205 
     16 S16         1.3099  -21.4983  -49.1936 S.3       23 UNK        -0.2404 
     17 C17        -0.3382  -21.6427  -48.4245 C.3       23 UNK        -0.0398 
     18 CA         -0.4451  -22.8779  -47.5073 C.3       11 UNK         0.1400 
     19 N           0.2694  -22.7001  -46.2427 N.am      11 UNK        -0.5000 
     20 C           0.5171  -23.6884  -45.3730 C.2       10 UNK         0.5000 
     21 O           0.2081  -24.8633  -45.5722 O.2       10 UNK        -0.5000 
     22 CA          1.1553  -23.2864  -44.0314 C.3       10 UNK         0.1400 
     23 CB          2.6624  -23.0364  -44.1889 C.3       10 UNK        -0.1800 
     24 N           0.5166  -22.1052  -43.4494 N.am      10 UNK        -0.5000 
     25 C          -0.7655  -22.0470  -43.0626 C.2       9 UNK         0.5000 
     26 O          -1.5313  -23.0104  -43.0946 O.2       9 UNK        -0.5000 
     27 CA         -1.2957  -20.6711  -42.6195 C.3       9 UNK         0.1400 
     28 CB         -0.9344  -20.3820  -41.1548 C.3       9 UNK        -0.1800 
     29 N          -0.8086  -19.5881  -43.4760 N.am      9 UNK        -0.5000 
     30 C          -1.1648  -19.4201  -44.7580 C.2       8 UNK         0.5000 
     31 O          -1.9730  -20.1387  -45.3420 O.2       8 UNK        -0.5000 
     32 CA         -0.4671  -18.2903  -45.5335 C.3       8 UNK         0.1400 
     33 CB         -1.1984  -16.9556  -45.3252 C.3       8 UNK        -0.1800 
     34 N           0.9443  -18.1623  -45.1659 N.am      8 UNK        -0.5000 
     35 C           1.8723  -19.0821  -45.4759 C.2       7 UNK         0.5000 
     36 O           1.6252  -20.1067  -46.1092 O.2       7 UNK        -0.5000 
     37 CA          3.2991  -18.8597  -44.9378 C.3       7 UNK         0.1400 
     38 CB          4.0939  -17.9410  -45.8776 C.3       7 UNK        -0.1800 
     39 N           3.3205  -18.3045  -43.5845 N.am      7 UNK        -0.5000 
     40 C           2.7701  -18.8838  -42.5081 C.2       6 UNK         0.5000 
     41 O           2.2734  -20.0093  -42.5254 O.2       6 UNK        -0.5000 
     42 CA          2.7152  -18.0575  -41.2065 C.3       6 UNK         0.1400 
     43 CB          3.8033  -18.5274  -40.2298 C.3       6 UNK        -0.1800 
     44 N           2.8332  -16.6057  -41.3917 N.am      6 UNK        -0.5000 
     45 C           2.0150  -15.8399  -42.1270 C.2       5 UNK         0.5000 
     46 O           1.0727  -16.2853  -42.7881 O.2       5 UNK        -0.5000 
     47 CA          2.3680  -14.3423  -42.1792 C.3       5 UNK         0.1400 
     48 CB          3.6145  -14.1159  -43.0511 C.3       5 UNK        -0.1800 
     49 N           1.2800  -13.5439  -42.7327 N.am      5 UNK        -0.5000 
     50 C           0.1390  -13.2188  -42.1192 C.2       4 UNK         0.5000 
     51 O          -0.1019  -13.4949  -40.9421 O.2       4 UNK        -0.5000 
     52 CA         -0.8869  -12.4329  -42.9716 C.3       4 UNK         0.1400 
     53 CB         -2.1718  -12.0980  -42.1924 C.3       4 UNK        -0.1800 
     54 N          -0.3442  -11.1903  -43.5369 N.am      4 UNK        -0.5000 
     55 C           0.5399  -11.1082  -44.5389 C.2       3 UNK         0.5000 
     56 O           1.0272  -12.0946  -45.0978 O.2       3 UNK        -0.5000 
     57 CA          0.9829   -9.7039  -44.9731 C.3       3 UNK         0.1400 
     58 CB          1.8662   -9.0458  -43.8951 C.3       3 UNK        -0.1800 
     59 N           1.7308   -9.8556  -46.2153 N.am      3 UNK        -0.5000 
     60 C           2.0864   -8.8995  -47.0765 C.2       2 UNK         0.5000 
     61 O           1.8078   -7.7082  -46.9346 O.2       2 UNK        -0.5000 
     62 CA          2.8979   -9.3542  -48.3045 C.3       2 UNK         0.1400 
     63 CB          4.4033   -9.2108  -48.0310 C.3       2 UNK        -0.1800 
     64 N           2.6168  -10.7399  -48.6969 N.am      2 UNK        -0.5000 
     65 C           1.5552  -11.1131  -49.4273 C.2       1 UNK         0.5000 
     66 O           0.6940  -10.3255  -49.8215 O.2       1 UNK        -0.5000 
     67 C          -1.9198  -23.2789  -47.3022 C.2       11 UNK         0.5000 
     68 O          -2.4398  -24.0360  -48.1191 O.2       11 UNK        -0.5000 
     69 N          -2.5781  -22.7949  -46.2408 N.am      12 UNK        -0.5000 
     70 CA         -3.9362  -23.2000  -45.8709 C.3       12 UNK         0.1400 
     71 CB         -4.5150  -22.2384  -44.8235 C.3       12 UNK        -0.1800 
     72 C          -3.9976  -24.6586  -45.3907 C.2       12 UNK         0.5000 
     73 O          -4.8957  -25.3896  -45.8074 O.2       12 UNK        -0.5000 
     74 N          -3.0131  -25.0752  -44.5819 N.am      13 UNK        -0.5000 
     75 CA         -2.8386  -26.4592  -44.1325 C.3       13 UNK         0.1400 
     76 CB         -1.7360  -26.5165  -43.0644 C.3       13 UNK        -0.1800 
     77 C          -2.5369  -27.4309  -45.2917 C.2       13 UNK         0.5000 
     78 O          -3.0358  -28.5565  -45.2888 O.2       13 UNK        -0.5000 
     79 N          -1.7617  -26.9633  -46.2797 N.am      14 UNK        -0.5000 
     80 CA         -1.4536  -27.6789  -47.5207 C.3       14 UNK         0.1400 
     81 CB         -0.1902  -27.0598  -48.1397 C.3       14 UNK        -0.1800 
     82 C          -2.6063  -27.6707  -48.5490 C.2       14 UNK         0.5000 
     83 O          -2.5208  -28.3910  -49.5439 O.2       14 UNK        -0.5000 
     84 N          -3.6358  -26.8419  -48.3147 N.am      15 UNK        -0.5000 
     85 CA         -4.7885  -26.5581  -49.1802 C.3       15 UNK         0.1400 
     86 CB         -5.6341  -27.8233  -49.4295 C.3       15 UNK        -0.1800 
     87 C          -4.4262  -25.8157  -50.4866 C.2       15 UNK         0.5000 
     88 O          -5.2379  -25.7673  -51.4108 O.2       15 UNK        -0.5000 
     89 N          -3.2385  -25.2002  -50.5278 N.am      16 UNK        -0.5000 
     90 CA         -2.7670  -24.3464  -51.6149 C.3       16 UNK         0.1400 
     91 CB         -1.2423  -24.1888  -51.5156 C.3       16 UNK        -0.1800 
     92 C          -3.4612  -22.9753  -51.5937 C.2       16 UNK         0.5000 
     93 O          -3.8070  -22.4525  -52.6525 O.2       16 UNK        -0.5000 
     94 N          -3.7062  -22.4314  -50.3915 N.am      17 UNK        -0.5000 
     95 CA         -4.4506  -21.1796  -50.2137 C.3       17 UNK         0.1400 
     96 CB         -4.3253  -20.6866  -48.7650 C.3       17 UNK        -0.1800 
     97 C          -5.9295  -21.3277  -50.6223 C.2       17 UNK         0.5000 
     98 O          -6.4926  -20.4105  -51.2181 O.2       17 UNK        -0.5000 
     99 N          -6.5065  -22.5111  -50.3620 N.am      18 UNK        -0.5000 
    100 CA        -7.8488  -22.9058  -50.7997 C.3       18 UNK         0.1400 
    101 CB        -8.2603  -24.1941  -50.0706 C.3       18 UNK        -0.1800 
    102 C         -7.9531  -23.0839  -52.3288 C.2       18 UNK         0.5000 
    103 O         -9.0191  -22.8459  -52.8964 O.2       18 UNK        -0.5000 
    104 N         -6.8354  -23.4524  -52.9702 N.am      19 UNK        -0.5000 
    105 CA        -6.6689  -23.5249  -54.4239 C.3       19 UNK         0.1400 
    106 CB        -5.5939  -24.5758  -54.7491 C.3       19 UNK        -0.1800 
    107 C         -6.3297  -22.1585  -55.0632 C.2       19 UNK         0.5000 
    108 O         -6.0965  -22.1048  -56.2714 O.2       19 UNK        -0.5000 
    109 N         -6.3170  -21.0865  -54.2558 N.am      20 UNK        -0.5000 
    110 CA        -6.0812  -19.6878  -54.6193 C.3       20 UNK         0.1400 
    111 CB        -7.1429  -19.1789  -55.6176 C.3       20 UNK        -0.1800 
    112 C         -4.6345  -19.3931  -55.0639 C.2       20 UNK         0.5000 
    113 O         -4.4166  -18.5026  -55.8889 O.2       20 UNK        -0.5000 
    114 N         -3.6552  -20.0914  -54.4661 N.am      21 UNK        -0.5000 
    115 CA        -2.2189  -19.8472  -54.6650 C.3       21 UNK         0.1400 
    116 CB        -1.4097  -20.9517  -53.9704 C.3       21 UNK        -0.1800 
    117 C         -1.7414  -18.4590  -54.1843 C.2       21 UNK         0.5000 
    118 O         -0.6637  -18.0214  -54.5885 O.2       21 UNK        -0.5000 
    119 N         -2.5534  -17.7905  -53.3539 N.am      22 UNK        -0.5000 
    120 CA        -2.3453  -16.4177  -52.8685 C.3       22 UNK         0.1400 
    121 C         -2.3959  -15.3197  -53.9740 C.2       22 UNK         0.5000 
    122 N         -2.9237  -15.5933  -55.1627 N.am      22 UNK        -0.7600 
    123 O         -1.9587  -14.1958  -53.7448 O.2       22 UNK        -0.5000 
    124 C124       -3.3202  -16.0409  -51.7158 C.3       23 UNK        -0.0398 
    125 S125       -3.6141  -17.3467  -50.4705 S.3       23 UNK        -0.2404 
    126 C126       -2.2877  -17.0340  -49.2649 C.3       23 UNK        -0.0205 
    127 H127        2.7050  -14.6663  -46.5694 H         1 UNK         0.0600 
    128 H128        1.1618  -14.7229  -45.7193 H         1 UNK         0.0600 
    129 H129        1.5155  -15.9088  -46.9811 H         1 UNK         0.0600 
    130 H130        2.8256  -13.6759  -48.6083 H         1 UNK         0.3000 
    131 H131        0.3744  -12.7828  -50.0034 H         1 UNK         0.0600 
    132 H132        2.1772  -12.1209  -51.7868 H         1 UNK         0.0800 
    133 H133        3.3015  -13.0657  -50.8532 H         1 UNK         0.0800 
    134 H134        2.7955  -15.4531  -50.0796 H         1 UNK         0.0800 
    135 H135        3.1173  -16.2420  -51.5969 H         1 UNK         0.0800 
    136 H136       -0.1810  -15.4390  -49.9308 H         1 UNK         0.1150 
    137 H137       -1.4161  -19.5257  -49.8480 H         1 UNK         0.1150 
    138 H138        2.5127  -18.5109  -51.2347 H         1 UNK         0.1150 
    139 H139        1.7417  -20.7714  -51.4430 H         1 UNK         0.0800 
    140 H140        0.0562  -21.1568  -51.2355 H         1 UNK         0.0800 
    141 H141       -1.0734  -21.7036  -49.2279 H         1 UNK         0.0800 
    142 H142       -0.5586  -20.7295  -47.8696 H         1 UNK         0.0800 
    143 H143        0.0240  -23.7165  -48.0254 H         1 UNK         0.0600 
    144 H144        0.6127  -21.7641  -46.0438 H         1 UNK         0.3000 
    145 H145        1.0189  -24.1165  -43.3353 H         1 UNK         0.0600 
    146 H146        3.1247  -22.8001  -43.2303 H         1 UNK         0.0600 
    147 H147        3.1645  -23.9200  -44.5848 H         1 UNK         0.0600 
    148 H148        2.8664  -22.2102  -44.8700 H         1 UNK         0.0600 
    149 H149        1.0990  -21.2805  -43.3317 H         1 UNK         0.3000 
    150 H150       -2.3847  -20.6945  -42.6968 H         1 UNK         0.0600 
    151 H151        0.1435  -20.3616  -40.9960 H         1 UNK         0.0600 
    152 H152       -1.3454  -21.1486  -40.4967 H         1 UNK         0.0600 
    153 H153       -1.3400  -19.4237  -40.8299 H         1 UNK         0.0600 
    154 H154       -0.1138  -18.9694  -43.0842 H         1 UNK         0.3000 
    155 H155       -0.5205  -18.5363  -46.5964 H         1 UNK         0.0600 
    156 H156       -2.2576  -17.0511  -45.5673 H         1 UNK         0.0600 
    157 H157       -0.7946  -16.1775  -45.9711 H         1 UNK         0.0600 
    158 H158       -1.1287  -16.6099  -44.2936 H         1 UNK         0.0600 
    159 H159        1.1907  -17.3853  -44.5629 H         1 UNK         0.3000 
    160 H160        3.7961  -19.8313  -44.9073 H         1 UNK         0.0600 
    161 H161        3.6801  -16.9328  -45.9005 H         1 UNK         0.0600 
    162 H162        4.0841  -18.3240  -46.8991 H         1 UNK         0.0600 
    163 H163        5.1366  -17.8683  -45.5684 H         1 UNK         0.0600 
    164 H164        3.7113  -17.3808  -43.4780 H         1 UNK         0.3000 
    165 H165        1.7420  -18.2487  -40.7501 H         1 UNK         0.0600 
    166 H166        3.7124  -18.0269  -39.2657 H         1 UNK         0.0600 
    167 H167        4.8036  -18.3320  -40.6184 H         1 UNK         0.0600 
    168 H168        3.7268  -19.5999  -40.0448 H         1 UNK         0.0600 
    169 H169        3.5949  -16.1612  -40.8994 H         1 UNK         0.3000 
    170 H170        2.5738  -13.9971  -41.1640 H         1 UNK         0.0600 
    171 H171        4.4819  -14.6417  -42.6507 H         1 UNK         0.0600 
    172 H172        3.4597  -14.4658  -44.0726 H         1 UNK         0.0600 
    173 H173        3.8741  -13.0579  -43.0983 H         1 UNK         0.0600 
    174 H174        1.3761  -13.2504  -43.7012 H         1 UNK         0.3000 
    175 H175       -1.1686  -13.0869  -43.7999 H         1 UNK         0.0600 
    176 H176       -1.9706  -11.4350  -41.3501 H         1 UNK         0.0600 
    177 H177       -2.9071  -11.6123  -42.8342 H         1 UNK         0.0600 
    178 H178       -2.6375  -13.0017  -41.7970 H         1 UNK         0.0600 
    179 H179       -0.6657  -10.3354  -43.1063 H         1 UNK         0.3000 
    180 H180        0.0951   -9.0962  -45.1580 H         1 UNK         0.0600 
    181 H181        2.7605   -9.6377  -43.6954 H         1 UNK         0.0600 
    182 H182        1.3268   -8.9378  -42.9536 H         1 UNK         0.0600 
    183 H183        2.1868   -8.0482  -44.1950 H         1 UNK         0.0600 
    184 H184        1.9489  -10.8219  -46.4279 H         1 UNK         0.3000 
    185 H185        2.6424   -8.6911  -49.1340 H         1 UNK         0.0600 
    186 H186        4.9907   -9.4656  -48.9133 H         1 UNK         0.0600 
    187 H187        4.6548   -8.1844  -47.7601 H         1 UNK         0.0600 
    188 H188        4.7280   -9.8547  -47.2126 H         1 UNK         0.0600 
    189 H189        3.2800  -11.4387  -48.3981 H         1 UNK         0.3000 
    190 H190       -2.1367  -22.0896  -45.6599 H         1 UNK         0.3000 
    191 H191       -4.5635  -23.1379  -46.7608 H         1 UNK         0.0600 
    192 H192       -5.5400  -22.5111  -44.5695 H         1 UNK         0.0600 
    193 H193       -4.5348  -21.2150  -45.1982 H         1 UNK         0.0600 
    194 H194       -3.9368  -22.2465  -43.9005 H         1 UNK         0.0600 
    195 H195       -2.3361  -24.3955  -44.2471 H         1 UNK         0.3000 
    196 H196       -3.7746  -26.7784  -43.6696 H         1 UNK         0.0600 
    197 H197       -0.7721  -26.1965  -43.4602 H         1 UNK         0.0600 
    198 H198       -1.9766  -25.8761  -42.2156 H         1 UNK         0.0600 
    199 H199       -1.6141  -27.5312  -42.6835 H         1 UNK         0.0600 
    200 H200       -1.3219  -26.0567  -46.1570 H         1 UNK         0.3000 
    201 H201       -1.2387  -28.7212  -47.2766 H         1 UNK         0.0600 
    202 H202       -0.3579  -26.0261  -48.4415 H         1 UNK         0.0600 
    203 H203        0.1238  -27.6121  -49.0262 H         1 UNK         0.0600 
    204 H204        0.6431  -27.0735  -47.4369 H         1 UNK         0.0600 
    205 H205       -3.5999  -26.2924  -47.4657 H         1 UNK         0.3000 
    206 H206       -5.4103  -25.8630  -48.6145 H         1 UNK         0.0600 
    207 H207       -5.8805  -28.3232  -48.4928 H         1 UNK         0.0600 
    208 H208       -6.5758  -27.5732  -49.9196 H         1 UNK         0.0600 
    209 H209       -5.1170  -28.5394  -50.0683 H         1 UNK         0.0600 
    210 H210       -2.6876  -25.1938  -49.6762 H         1 UNK         0.3000 
    211 H211       -3.0000  -24.8288  -52.5662 H         1 UNK         0.0600 
    212 H212       -0.8608  -23.5535  -52.3157 H         1 UNK         0.0600 
    213 H213       -0.7432  -25.1541  -51.6019 H         1 UNK         0.0600 
    214 H214       -0.9397  -23.7434  -50.5683 H         1 UNK         0.0600 
    215 H215       -3.4110  -22.9323  -49.5616 H         1 UNK         0.3000 
    216 H216       -3.9989  -20.4274  -50.8643 H         1 UNK         0.0600 
    217 H217       -4.8383  -21.3466  -48.0684 H         1 UNK         0.0600 
    218 H218       -4.7716  -19.6974  -48.6562 H         1 UNK         0.0600 
    219 H219       -3.2842  -20.6045  -48.4542 H         1 UNK         0.0600 
    220 H220       -5.9637  -23.2126  -49.8832 H         1 UNK         0.3000 
    221 H221       -8.5439  -22.1143  -50.5114 H         1 UNK         0.0600 
    222 H222       -8.2340  -24.0626  -48.9888 H         1 UNK         0.0600 
    223 H223       -7.6078  -25.0296  -50.3242 H         1 UNK         0.0600 
    224 H224       -9.2777  -24.4830  -50.3373 H         1 UNK         0.0600 
    225 H225       -6.0092  -23.6514  -52.4233 H         1 UNK         0.3000 
    226 H226       -7.6081  -23.8610  -54.8677 H         1 UNK         0.0600 
    227 H227       -4.6084  -24.2676  -54.4019 H         1 UNK         0.0600 
    228 H228       -5.8268  -25.5356  -54.2874 H         1 UNK         0.0600 
    229 H229       -5.5225  -24.7428  -55.8244 H         1 UNK         0.0600 
    230 H230       -6.4931  -21.2421  -53.2715 H         1 UNK         0.3000 
    231 H231       -6.2189  -19.1221  -53.6969 H         1 UNK         0.0600 
    232 H232       -8.1515  -19.3950  -55.2651 H         1 UNK         0.0600 
    233 H233       -7.0262  -19.6311  -56.6026 H         1 UNK         0.0600 
    234 H234       -7.0712  -18.0983  -55.7464 H         1 UNK         0.0600 
    235 H235       -3.8986  -20.8398  -53.8234 H         1 UNK         0.3000 
    236 H236       -2.0193  -19.9036  -55.7370 H         1 UNK         0.0600 
    237 H237       -1.6792  -21.9379  -54.3485 H         1 UNK         0.0600 
    238 H238       -0.3397  -20.8210  -54.1367 H         1 UNK         0.0600 
    239 H239       -1.5773  -20.9420  -52.8939 H         1 UNK         0.0600 
    240 H240       -3.4032  -18.2398  -53.0504 H         1 UNK         0.3000 
    241 H241       -1.3305  -16.3865  -52.4718 H         1 UNK         0.0600 
    242 H242       -2.9522  -14.8751  -55.8691 H         1 UNK         0.3800 
    243 H243       -3.2961  -16.5111  -55.3656 H         1 UNK         0.3800 
    244 H244       -4.2994  -15.7869  -52.1260 H         1 UNK         0.0800 
    245 H245       -2.9698  -15.1404  -51.2084 H         1 UNK         0.0800 
    246 H246       -2.4917  -17.6091  -48.3606 H         1 UNK         0.0800 
    247 H247       -2.2942  -15.9837  -48.9685 H         1 UNK         0.0800 
@<TRIPOS>BOND
     1    1    2 1    
     2    1  127 1    
     3    1  128 1    
     4    1  129 1    
     5    2    3 2    
     6    2    4 am   BACKBONE|DICT|INTERRES
     7    4    5 1    
     8    4  130 1    
     9    5    6 1    
    10    5   65 1    
    11    5  131 1    
    12    6    7 1    
    13    6  132 1    
    14    6  133 1    
    15    7    8 1    
    16    8    9 1    
    17    8  134 1    
    18    8  135 1    
    19    9   10 ar   
    20    9   14 ar   
    21   10   11 ar   
    22   10  136 1    
    23   11   12 ar   
    24   11  126 1    
    25   12   13 ar   
    26   12  137 1    
    27   13   14 ar   
    28   13   15 1    
    29   14  138 1    
    30   15   16 1    
    31   15  139 1    
    32   15  140 1    
    33   16   17 1    
    34   17   18 1    
    35   17  141 1    
    36   17  142 1    
    37   18   19 1    
    38   18   67 1    
    39   18  143 1    
    40   19   20 am   BACKBONE|DICT|INTERRES
    41   19  144 1    
    42   20   21 2    
    43   20   22 1    
    44   22   23 1    
    45   22   24 1    
    46   22  145 1    
    47   23  146 1    
    48   23  147 1    
    49   23  148 1    
    50   24   25 am   BACKBONE|DICT|INTERRES
    51   24  149 1    
    52   25   26 2    
    53   25   27 1    
    54   27   28 1    
    55   27   29 1    
    56   27  150 1    
    57   28  151 1    
    58   28  152 1    
    59   28  153 1    
    60   29   30 am   BACKBONE|DICT|INTERRES
    61   29  154 1    
    62   30   31 2    
    63   30   32 1    
    64   32   33 1    
    65   32   34 1    
    66   32  155 1    
    67   33  156 1    
    68   33  157 1    
    69   33  158 1    
    70   34   35 am   BACKBONE|DICT|INTERRES
    71   34  159 1    
    72   35   36 2    
    73   35   37 1    
    74   37   38 1    
    75   37   39 1    
    76   37  160 1    
    77   38  161 1    
    78   38  162 1    
    79   38  163 1    
    80   39   40 am   BACKBONE|DICT|INTERRES
    81   39  164 1    
    82   40   41 2    
    83   40   42 1    
    84   42   43 1    
    85   42   44 1    
    86   42  165 1    
    87   43  166 1    
    88   43  167 1    
    89   43  168 1    
    90   44   45 am   BACKBONE|DICT|INTERRES
    91   44  169 1    
    92   45   46 2    
    93   45   47 1    
    94   47   48 1    
    95   47   49 1    
    96   47  170 1    
    97   48  171 1    
    98   48  172 1    
    99   48  173 1    
   100   49   50 am   BACKBONE|DICT|INTERRES
   101   49  174 1    
   102   50   51 2    
   103   50   52 1    
   104   52   53 1    
   105   52   54 1    
   106   52  175 1    
   107   53  176 1    
   108   53  177 1    
   109   53  178 1    
   110   54   55 am   BACKBONE|DICT|INTERRES
   111   54  179 1    
   112   55   56 2    
   113   55   57 1    
   114   57   58 1    
   115   57   59 1    
   116   57  180 1    
   117   58  181 1    
   118   58  182 1    
   119   58  183 1    
   120   59   60 am   BACKBONE|DICT|INTERRES
   121   59  184 1    
   122   60   61 2    
   123   60   62 1    
   124   62   63 1    
   125   62   64 1    
   126   62  185 1    
   127   63  186 1    
   128   63  187 1    
   129   63  188 1    
   130   64   65 am   BACKBONE|DICT|INTERRES
   131   64  189 1    
   132   65   66 2    
   133   67   68 2    
   134   67   69 am   BACKBONE|DICT|INTERRES
   135   69   70 1    
   136   69  190 1    
   137   70   71 1    
   138   70   72 1    
   139   70  191 1    
   140   71  192 1    
   141   71  193 1    
   142   71  194 1    
   143   72   73 2    
   144   72   74 am   BACKBONE|DICT|INTERRES
   145   74   75 1    
   146   74  195 1    
   147   75   76 1    
   148   75   77 1    
   149   75  196 1    
   150   76  197 1    
   151   76  198 1    
   152   76  199 1    
   153   77   78 2    
   154   77   79 am   BACKBONE|DICT|INTERRES
   155   79   80 1    
   156   79  200 1    
   157   80   81 1    
   158   80   82 1    
   159   80  201 1    
   160   81  202 1    
   161   81  203 1    
   162   81  204 1    
   163   82   83 2    
   164   82   84 am   BACKBONE|DICT|INTERRES
   165   84   85 1    
   166   84  205 1    
   167   85   86 1    
   168   85   87 1    
   169   85  206 1    
   170   86  207 1    
   171   86  208 1    
   172   86  209 1    
   173   87   88 2    
   174   87   89 am   BACKBONE|DICT|INTERRES
   175   89   90 1    
   176   89  210 1    
   177   90   91 1    
   178   90   92 1    
   179   90  211 1    
   180   91  212 1    
   181   91  213 1    
   182   91  214 1    
   183   92   93 2    
   184   92   94 am   BACKBONE|DICT|INTERRES
   185   94   95 1    
   186   94  215 1    
   187   95   96 1    
   188   95   97 1    
   189   95  216 1    
   190   96  217 1    
   191   96  218 1    
   192   96  219 1    
   193   97   98 2    
   194   97   99 am   BACKBONE|DICT|INTERRES
   195   99  100 1    
   196   99  220 1    
   197  100  101 1    
   198  100  102 1    
   199  100  221 1    
   200  101  222 1    
   201  101  223 1    
   202  101  224 1    
   203  102  103 2    
   204  102  104 am   BACKBONE|DICT|INTERRES
   205  104  105 1    
   206  104  225 1    
   207  105  106 1    
   208  105  107 1    
   209  105  226 1    
   210  106  227 1    
   211  106  228 1    
   212  106  229 1    
   213  107  108 2    
   214  107  109 am   BACKBONE|DICT|INTERRES
   215  109  110 1    
   216  109  230 1    
   217  110  111 1    
   218  110  112 1    
   219  110  231 1    
   220  111  232 1    
   221  111  233 1    
   222  111  234 1    
   223  112  113 2    
   224  112  114 am   BACKBONE|DICT|INTERRES
   225  114  115 1    
   226  114  235 1    
   227  115  116 1    
   228  115  117 1    
   229  115  236 1    
   230  116  237 1    
   231  116  238 1    
   232  116  239 1    
   233  117  118 2    
   234  117  119 am   BACKBONE|DICT|INTERRES
   235  119  120 1    
   236  119  240 1    
   237  120  121 1    
   238  120  124 1    
   239  120  241 1    
   240  121  122 am   BACKBONE|DICT|INTERRES
   241  121  123 2    
   242  122  242 1    
   243  122  243 1    
   244  124  125 1    
   245  124  244 1    
   246  124  245 1    
   247  125  126 1    
   248  126  246 1    
   249  126  247 1    
@<TRIPOS>SUBSTRUCTURE
     1 UNK         1 GROUP             0       ****    0 ROOT    
