@<TRIPOS>MOLECULE
3R540
247   249    1
SMALL
USER_CHARGES


@<TRIPOS>ATOM
      1 CA         -1.2489  -11.7535  -44.9751 C.3       0 UNK        -0.1800 
      2 C          -0.2736  -11.6962  -46.1413 C.2       0 UNK         0.5000 
      3 O          -0.4728  -10.9105  -47.0687 O.2       0 UNK        -0.5000 
      4 N           0.7843  -12.5148  -46.0925 N.am      1 UNK        -0.5000 
      5 CA          1.9052  -12.4656  -47.0366 C.3       1 UNK         0.1400 
      6 C6          2.6403  -13.8287  -47.1731 C.3       23 UNK        -0.0398 
      7 S7          1.5707  -15.2749  -47.4510 S.3       23 UNK        -0.2404 
      8 C8          0.8195  -14.9480  -49.0737 C.3       23 UNK        -0.0205 
      9 C9         -0.2342  -16.0015  -49.3811 C.ar      23 UNK        -0.0193 
     10 C10        -1.5844  -15.7524  -49.1087 C.ar      23 UNK        -0.1150 
     11 C11        -2.5467  -16.7389  -49.3457 C.ar      23 UNK        -0.0193 
     12 C12        -2.1506  -17.9801  -49.8447 C.ar      23 UNK        -0.1150 
     13 C13        -0.8094  -18.2397  -50.1293 C.ar      23 UNK        -0.0193 
     14 C14         0.1447  -17.2404  -49.9091 C.ar      23 UNK        -0.1150 
     15 C15        -0.4159  -19.6161  -50.6484 C.3       23 UNK        -0.0205 
     16 S16         0.9230  -20.4153  -49.7067 S.3       23 UNK        -0.2404 
     17 C17         0.3706  -20.2093  -47.9804 C.3       23 UNK        -0.0398 
     18 CA         -0.2509  -21.4735  -47.3491 C.3       11 UNK         0.1400 
     19 N          -0.1549  -21.4123  -45.8904 N.am      11 UNK        -0.5000 
     20 C          -0.3833  -22.4323  -45.0563 C.2       10 UNK         0.5000 
     21 O          -0.6942  -23.5623  -45.4323 O.2       10 UNK        -0.5000 
     22 CA         -0.2804  -22.1221  -43.5505 C.3       10 UNK         0.1400 
     23 CB          1.1862  -22.1029  -43.0948 C.3       10 UNK        -0.1800 
     24 N          -0.9183  -20.8534  -43.1909 N.am      10 UNK        -0.5000 
     25 C          -2.2349  -20.6192  -43.2867 C.2       9 UNK         0.5000 
     26 O          -3.0519  -21.4615  -43.6578 O.2       9 UNK        -0.5000 
     27 CA         -2.7156  -19.1919  -42.9642 C.3       9 UNK         0.1400 
     28 CB         -2.7734  -18.9568  -41.4475 C.3       9 UNK        -0.1800 
     29 N          -1.8883  -18.1613  -43.5912 N.am      9 UNK        -0.5000 
     30 C          -1.7233  -18.0212  -44.9138 C.2       8 UNK         0.5000 
     31 O          -2.2772  -18.7263  -45.7522 O.2       8 UNK        -0.5000 
     32 CA         -0.7332  -16.9479  -45.3828 C.3       8 UNK         0.1400 
     33 CB         -1.4015  -15.5659  -45.3804 C.3       8 UNK        -0.1800 
     34 N           0.4944  -16.9296  -44.5833 N.am      8 UNK        -0.5000 
     35 C           1.3560  -17.9559  -44.5038 C.2       7 UNK         0.5000 
     36 O           1.2139  -19.0197  -45.1031 O.2       7 UNK        -0.5000 
     37 CA          2.5384  -17.7984  -43.5348 C.3       7 UNK         0.1400 
     38 CB          3.6596  -16.9526  -44.1585 C.3       7 UNK        -0.1800 
     39 N           2.1123  -17.2122  -42.2660 N.am      7 UNK        -0.5000 
     40 C           1.2955  -17.8191  -41.3910 C.2       6 UNK         0.5000 
     41 O           0.8776  -18.9699  -41.5260 O.2       6 UNK        -0.5000 
     42 CA          0.8261  -16.9718  -40.1933 C.3       6 UNK         0.1400 
     43 CB          1.8355  -17.0605  -39.0393 C.3       6 UNK        -0.1800 
     44 N           0.6231  -15.5659  -40.5524 N.am      6 UNK        -0.5000 
     45 C          -0.3090  -15.1288  -41.4124 C.2       5 UNK         0.5000 
     46 O          -1.1490  -15.8637  -41.9298 O.2       5 UNK        -0.5000 
     47 CA         -0.2604  -13.6385  -41.8014 C.3       5 UNK         0.1400 
     48 CB         -1.2091  -12.8138  -40.9206 C.3       5 UNK        -0.1800 
     49 N           1.0940  -13.0837  -41.7147 N.am      5 UNK        -0.5000 
     50 C           2.0750  -13.3524  -42.5858 C.2       4 UNK         0.5000 
     51 O           1.9017  -13.9729  -43.6396 O.2       4 UNK        -0.5000 
     52 CA          3.4886  -12.9262  -42.1587 C.3       4 UNK         0.1400 
     53 CB          3.9715  -13.8287  -41.0004 C.3       4 UNK        -0.1800 
     54 N           4.4024  -13.0267  -43.2950 N.am      4 UNK        -0.5000 
     55 C           5.6762  -12.6090  -43.3154 C.2       3 UNK         0.5000 
     56 O           6.2275  -12.0388  -42.3730 O.2       3 UNK        -0.5000 
     57 CA          6.4699  -12.8625  -44.6112 C.3       3 UNK         0.1400 
     58 CB          6.5576  -14.3644  -44.9340 C.3       3 UNK        -0.1800 
     59 N           5.8914  -12.1532  -45.7492 N.am      3 UNK        -0.5000 
     60 C           5.9046  -10.8224  -45.9203 C.2       2 UNK         0.5000 
     61 O           6.5192  -10.0414  -45.1931 O.2       2 UNK        -0.5000 
     62 CA          5.0686  -10.2691  -47.0957 C.3       2 UNK         0.1400 
     63 CB          5.9453  -10.0874  -48.3442 C.3       2 UNK        -0.1800 
     64 N           3.9196  -11.1180  -47.4330 N.am      2 UNK        -0.5000 
     65 C           2.9016  -11.3701  -46.5975 C.2       1 UNK         0.5000 
     66 O           2.7825  -10.8208  -45.4981 O.2       1 UNK        -0.5000 
     67 C          -1.7009  -21.7237  -47.8233 C.2       11 UNK         0.5000 
     68 O          -1.9096  -22.5114  -48.7467 O.2       11 UNK        -0.5000 
     69 N          -2.6821  -21.0974  -47.1576 N.am      12 UNK        -0.5000 
     70 CA         -4.1127  -21.3118  -47.3751 C.3       12 UNK         0.1400 
     71 CB         -4.9218  -20.2124  -46.6727 C.3       12 UNK        -0.1800 
     72 C          -4.5822  -22.7031  -46.9172 C.2       12 UNK         0.5000 
     73 O          -5.4149  -23.3017  -47.5960 O.2       12 UNK        -0.5000 
     74 N          -4.0188  -23.2237  -45.8165 N.am      13 UNK        -0.5000 
     75 CA         -4.2559  -24.5907  -45.3373 C.3       13 UNK         0.1400 
     76 CB         -3.6612  -24.7650  -43.9320 C.3       13 UNK        -0.1800 
     77 C          -3.7126  -25.6607  -46.3062 C.2       13 UNK         0.5000 
     78 O          -4.3380  -26.7082  -46.4706 O.2       13 UNK        -0.5000 
     79 N          -2.5938  -25.3496  -46.9752 N.am      14 UNK        -0.5000 
     80 CA         -2.0298  -26.1169  -48.0897 C.3       14 UNK         0.1400 
     81 CB         -0.5335  -25.7830  -48.2054 C.3       14 UNK        -0.1800 
     82 C          -2.7485  -25.8580  -49.4337 C.2       14 UNK         0.5000 
     83 O          -2.3741  -26.4567  -50.4447 O.2       14 UNK        -0.5000 
     84 N          -3.7352  -24.9486  -49.4399 N.am      15 UNK        -0.5000 
     85 CA         -4.5424  -24.4967  -50.5755 C.3       15 UNK         0.1400 
     86 CB         -5.5395  -25.5979  -50.9873 C.3       15 UNK        -0.1800 
     87 C          -3.6979  -23.9531  -51.7456 C.2       15 UNK         0.5000 
     88 O          -4.0293  -24.1957  -52.9063 O.2       15 UNK        -0.5000 
     89 N          -2.5999  -23.2587  -51.4064 N.am      16 UNK        -0.5000 
     90 CA         -1.5764  -22.7282  -52.3128 C.3       16 UNK         0.1400 
     91 CB         -2.1403  -21.5422  -53.1218 C.3       16 UNK        -0.1800 
     92 C          -0.9205  -23.8224  -53.1856 C.2       16 UNK         0.5000 
     93 O          -0.6362  -23.5929  -54.3609 O.2       16 UNK        -0.5000 
     94 N          -0.6983  -24.9959  -52.5728 N.am      17 UNK        -0.5000 
     95 CA         -0.2633  -26.2567  -53.1817 C.3       17 UNK         0.1400 
     96 CB          1.1009  -26.1245  -53.8924 C.3       17 UNK        -0.1800 
     97 C          -1.3724  -26.8695  -54.0610 C.2       17 UNK         0.5000 
     98 O          -1.1203  -27.2757  -55.1968 O.2       17 UNK        -0.5000 
     99 N          -2.5819  -26.9354  -53.4856 N.am      18 UNK        -0.5000 
    100 CA        -3.8010  -27.5480  -54.0238 C.3       18 UNK         0.1400 
    101 CB        -3.6354  -29.0804  -54.1048 C.3       18 UNK        -0.1800 
    102 C         -4.3194  -26.9289  -55.3411 C.2       18 UNK         0.5000 
    103 O         -4.9073  -27.6448  -56.1550 O.2       18 UNK        -0.5000 
    104 N         -4.1336  -25.6159  -55.5245 N.am      19 UNK        -0.5000 
    105 CA        -4.6172  -24.8559  -56.6762 C.3       19 UNK         0.1400 
    106 CB        -3.8383  -25.2309  -57.9540 C.3       19 UNK        -0.1800 
    107 C         -4.4807  -23.3535  -56.3996 C.2       19 UNK         0.5000 
    108 O         -3.4017  -22.9147  -56.0066 O.2       19 UNK        -0.5000 
    109 N         -5.5516  -22.5930  -56.6712 N.am      20 UNK        -0.5000 
    110 CA        -5.6357  -21.1273  -56.5927 C.3       20 UNK         0.1400 
    111 CB        -4.7180  -20.4689  -57.6457 C.3       20 UNK        -0.1800 
    112 C         -5.4240  -20.5680  -55.1681 C.2       20 UNK         0.5000 
    113 O         -4.6668  -19.6141  -54.9763 O.2       20 UNK        -0.5000 
    114 N         -6.1181  -21.1698  -54.1932 N.am      21 UNK        -0.5000 
    115 CA        -6.1809  -20.7133  -52.8024 C.3       21 UNK         0.1400 
    116 CB        -6.8624  -21.8084  -51.9661 C.3       21 UNK        -0.1800 
    117 C         -6.9523  -19.3833  -52.6564 C.2       21 UNK         0.5000 
    118 O         -7.7619  -19.0419  -53.5231 O.2       21 UNK        -0.5000 
    119 N         -6.7233  -18.6800  -51.5392 N.am      22 UNK        -0.5000 
    120 CA        -7.4075  -17.4161  -51.1957 C.3       22 UNK         0.1400 
    121 C         -8.9035  -17.5708  -50.7849 C.2       22 UNK         0.5000 
    122 N         -9.4059  -18.7712  -50.5218 N.am      22 UNK        -0.7600 
    123 O         -9.6243  -16.5795  -50.7078 O.2       22 UNK        -0.5000 
    124 C124       -6.6403  -16.5972  -50.1225 C.3       23 UNK        -0.0398 
    125 S125       -4.9280  -16.2045  -50.6177 S.3       23 UNK        -0.2404 
    126 C126       -4.0185  -16.4900  -49.0660 C.3       23 UNK        -0.0205 
    127 H127       -2.0474  -11.0226  -45.1040 H         1 UNK         0.0600 
    128 H128       -0.7342  -11.5260  -44.0417 H         1 UNK         0.0600 
    129 H129       -1.7054  -12.7388  -44.8972 H         1 UNK         0.0600 
    130 H130        0.9336  -13.1050  -45.2821 H         1 UNK         0.3000 
    131 H131        1.5291  -12.1846  -48.0220 H         1 UNK         0.0600 
    132 H132        3.3665  -13.7970  -47.9868 H         1 UNK         0.0800 
    133 H133        3.2090  -14.0428  -46.2668 H         1 UNK         0.0800 
    134 H134        1.5916  -14.9486  -49.8444 H         1 UNK         0.0800 
    135 H135        0.3659  -13.9563  -49.0802 H         1 UNK         0.0800 
    136 H136       -1.8832  -14.7959  -48.7035 H         1 UNK         0.1150 
    137 H137       -2.8961  -18.7446  -50.0138 H         1 UNK         0.1150 
    138 H138        1.1872  -17.4397  -50.1140 H         1 UNK         0.1150 
    139 H139       -1.2768  -20.2826  -50.6122 H         1 UNK         0.0800 
    140 H140       -0.1218  -19.5350  -51.6955 H         1 UNK         0.0800 
    141 H141       -0.2846  -19.3478  -47.8526 H         1 UNK         0.0800 
    142 H142        1.2826  -19.9522  -47.4424 H         1 UNK         0.0800 
    143 H143        0.3431  -22.3341  -47.6640 H         1 UNK         0.0600 
    144 H144        0.1412  -20.5212  -45.4989 H         1 UNK         0.3000 
    145 H145       -0.7931  -22.9213  -43.0114 H         1 UNK         0.0600 
    146 H146        1.2609  -21.9592  -42.0167 H         1 UNK         0.0600 
    147 H147        1.6823  -23.0443  -43.3338 H         1 UNK         0.0600 
    148 H148        1.7484  -21.3021  -43.5764 H         1 UNK         0.0600 
    149 H149       -0.3110  -20.1128  -42.8567 H         1 UNK         0.3000 
    150 H150       -3.7273  -19.0868  -43.3613 H         1 UNK         0.0600 
    151 H151       -3.4208  -19.6894  -40.9641 H         1 UNK         0.0600 
    152 H152       -3.1707  -17.9680  -41.2172 H         1 UNK         0.0600 
    153 H153       -1.7883  -19.0356  -40.9878 H         1 UNK         0.0600 
    154 H154       -1.4345  -17.4953  -42.9729 H         1 UNK         0.3000 
    155 H155       -0.4555  -17.1874  -46.4113 H         1 UNK         0.0600 
    156 H156       -1.7417  -15.2750  -44.3878 H         1 UNK         0.0600 
    157 H157       -2.2715  -15.5574  -46.0380 H         1 UNK         0.0600 
    158 H158       -0.7200  -14.7994  -45.7404 H         1 UNK         0.0600 
    159 H159        0.6935  -16.0854  -44.0662 H         1 UNK         0.3000 
    160 H160        2.9396  -18.7931  -43.3284 H         1 UNK         0.0600 
    161 H161        3.3114  -15.9622  -44.4470 H         1 UNK         0.0600 
    162 H162        4.0478  -17.4311  -45.0585 H         1 UNK         0.0600 
    163 H163        4.4953  -16.8288  -43.4695 H         1 UNK         0.0600 
    164 H164        2.3838  -16.2574  -42.0928 H         1 UNK         0.3000 
    165 H165       -0.1277  -17.3776  -39.8496 H         1 UNK         0.0600 
    166 H166        1.4796  -16.5204  -38.1618 H         1 UNK         0.0600 
    167 H167        1.9938  -18.0973  -38.7392 H         1 UNK         0.0600 
    168 H168        2.8059  -16.6474  -39.3178 H         1 UNK         0.0600 
    169 H169        1.2594  -14.8967  -40.1477 H         1 UNK         0.3000 
    170 H170       -0.6032  -13.5671  -42.8340 H         1 UNK         0.0600 
    171 H171       -2.2295  -13.1944  -40.9841 H         1 UNK         0.0600 
    172 H172       -0.9127  -12.8409  -39.8713 H         1 UNK         0.0600 
    173 H173       -1.2326  -11.7708  -41.2371 H         1 UNK         0.0600 
    174 H174        1.3067  -12.5472  -40.8856 H         1 UNK         0.3000 
    175 H175        3.4497  -11.8857  -41.8305 H         1 UNK         0.0600 
    176 H176        4.0672  -14.8684  -41.3155 H         1 UNK         0.0600 
    177 H177        4.9404  -13.5111  -40.6164 H         1 UNK         0.0600 
    178 H178        3.2832  -13.8016  -40.1553 H         1 UNK         0.0600 
    179 H179        3.9905  -13.4532  -44.1132 H         1 UNK         0.3000 
    180 H180        7.4863  -12.4933  -44.4577 H         1 UNK         0.0600 
    181 H181        5.5849  -14.7891  -45.1829 H         1 UNK         0.0600 
    182 H182        6.9525  -14.9238  -44.0849 H         1 UNK         0.0600 
    183 H183        7.2241  -14.5448  -45.7776 H         1 UNK         0.0600 
    184 H184        5.3861  -12.7100  -46.4198 H         1 UNK         0.3000 
    185 H185        4.6890   -9.2894  -46.7976 H         1 UNK         0.0600 
    186 H186        6.7966   -9.4392  -48.1320 H         1 UNK         0.0600 
    187 H187        6.3392  -11.0393  -48.7025 H         1 UNK         0.0600 
    188 H188        5.3838   -9.6274  -49.1576 H         1 UNK         0.0600 
    189 H189        3.9516  -11.5744  -48.3334 H         1 UNK         0.3000 
    190 H190       -2.4378  -20.3974  -46.4596 H         1 UNK         0.3000 
    191 H191       -4.3020  -21.2354  -48.4480 H         1 UNK         0.0600 
    192 H192       -4.7538  -20.2165  -45.5952 H         1 UNK         0.0600 
    193 H193       -5.9914  -20.3445  -46.8406 H         1 UNK         0.0600 
    194 H194       -4.6536  -19.2257  -47.0481 H         1 UNK         0.0600 
    195 H195       -3.3957  -22.6460  -45.2611 H         1 UNK         0.3000 
    196 H196       -5.3360  -24.7339  -45.2632 H         1 UNK         0.0600 
    197 H197       -3.8631  -25.7644  -43.5451 H         1 UNK         0.0600 
    198 H198       -4.0936  -24.0517  -43.2302 H         1 UNK         0.0600 
    199 H199       -2.5808  -24.6252  -43.9276 H         1 UNK         0.0600 
    200 H200       -2.1071  -24.4963  -46.7233 H         1 UNK         0.3000 
    201 H201       -2.1259  -27.1819  -47.8698 H         1 UNK         0.0600 
    202 H202       -0.0113  -25.9864  -47.2702 H         1 UNK         0.0600 
    203 H203       -0.3724  -24.7341  -48.4551 H         1 UNK         0.0600 
    204 H204       -0.0548  -26.3824  -48.9807 H         1 UNK         0.0600 
    205 H205       -3.9630  -24.5015  -48.5612 H         1 UNK         0.3000 
    206 H206       -5.1243  -23.6463  -50.2206 H         1 UNK         0.0600 
    207 H207       -6.2257  -25.8207  -50.1702 H         1 UNK         0.0600 
    208 H208       -6.1458  -25.2957  -51.8419 H         1 UNK         0.0600 
    209 H209       -5.0309  -26.5242  -51.2482 H         1 UNK         0.0600 
    210 H210       -2.4147  -23.1124  -50.4149 H         1 UNK         0.3000 
    211 H211       -0.7760  -22.3475  -51.6783 H         1 UNK         0.0600 
    212 H212       -2.9529  -21.8540  -53.7737 H         1 UNK         0.0600 
    213 H213       -1.3723  -21.0857  -53.7468 H         1 UNK         0.0600 
    214 H214       -2.5370  -20.7642  -52.4714 H         1 UNK         0.0600 
    215 H215       -1.0127  -25.0812  -51.6148 H         1 UNK         0.3000 
    216 H216       -0.1225  -26.9514  -52.3522 H         1 UNK         0.0600 
    217 H217        1.4793  -27.1048  -54.1841 H         1 UNK         0.0600 
    218 H218        1.8450  -25.6708  -53.2379 H         1 UNK         0.0600 
    219 H219        1.0372  -25.5226  -54.7989 H         1 UNK         0.0600 
    220 H220       -2.6641  -26.5721  -52.5425 H         1 UNK         0.3000 
    221 H221       -4.5833  -27.3513  -53.2928 H         1 UNK         0.0600 
    222 H222       -2.9077  -29.3683  -54.8642 H         1 UNK         0.0600 
    223 H223       -3.3059  -29.4921  -53.1507 H         1 UNK         0.0600 
    224 H224       -4.5792  -29.5663  -54.3548 H         1 UNK         0.0600 
    225 H225       -3.7053  -25.0647  -54.7850 H         1 UNK         0.3000 
    226 H226       -5.6736  -25.0904  -56.8233 H         1 UNK         0.0600 
    227 H227       -4.0118  -26.2662  -58.2461 H         1 UNK         0.0600 
    228 H228       -4.1431  -24.6067  -58.7949 H         1 UNK         0.0600 
    229 H229       -2.7641  -25.0978  -57.8183 H         1 UNK         0.0600 
    230 H230       -6.3919  -23.0535  -56.9926 H         1 UNK         0.3000 
    231 H231       -6.6618  -20.8703  -56.8600 H         1 UNK         0.0600 
    232 H232       -4.9191  -20.8588  -58.6435 H         1 UNK         0.0600 
    233 H233       -3.6629  -20.6351  -57.4268 H         1 UNK         0.0600 
    234 H234       -4.8769  -19.3906  -57.6818 H         1 UNK         0.0600 
    235 H235       -6.7234  -21.9378  -54.4411 H         1 UNK         0.3000 
    236 H236       -5.1594  -20.5734  -52.4427 H         1 UNK         0.0600 
    237 H237       -7.9223  -21.8981  -52.2086 H         1 UNK         0.0600 
    238 H238       -6.4057  -22.7809  -52.1403 H         1 UNK         0.0600 
    239 H239       -6.7849  -21.5959  -50.8992 H         1 UNK         0.0600 
    240 H240       -6.0488  -19.0146  -50.8680 H         1 UNK         0.3000 
    241 H241       -7.4211  -16.8096  -52.1036 H         1 UNK         0.0600 
    242 H242      -10.3763  -18.8554  -50.2618 H         1 UNK         0.3800 
    243 H243       -8.8311  -19.5951  -50.5842 H         1 UNK         0.3800 
    244 H244       -7.1456  -15.6488  -49.9307 H         1 UNK         0.0800 
    245 H245       -6.6404  -17.1360  -49.1738 H         1 UNK         0.0800 
    246 H246       -4.4262  -17.3551  -48.5425 H         1 UNK         0.0800 
    247 H247       -4.1508  -15.6338  -48.4028 H         1 UNK         0.0800 
@<TRIPOS>BOND
     1    1    2 1    
     2    1  127 1    
     3    1  128 1    
     4    1  129 1    
     5    2    3 2    
     6    2    4 am   BACKBONE|DICT|INTERRES
     7    4    5 1    
     8    4  130 1    
     9    5    6 1    
    10    5   65 1    
    11    5  131 1    
    12    6    7 1    
    13    6  132 1    
    14    6  133 1    
    15    7    8 1    
    16    8    9 1    
    17    8  134 1    
    18    8  135 1    
    19    9   10 ar   
    20    9   14 ar   
    21   10   11 ar   
    22   10  136 1    
    23   11   12 ar   
    24   11  126 1    
    25   12   13 ar   
    26   12  137 1    
    27   13   14 ar   
    28   13   15 1    
    29   14  138 1    
    30   15   16 1    
    31   15  139 1    
    32   15  140 1    
    33   16   17 1    
    34   17   18 1    
    35   17  141 1    
    36   17  142 1    
    37   18   19 1    
    38   18   67 1    
    39   18  143 1    
    40   19   20 am   BACKBONE|DICT|INTERRES
    41   19  144 1    
    42   20   21 2    
    43   20   22 1    
    44   22   23 1    
    45   22   24 1    
    46   22  145 1    
    47   23  146 1    
    48   23  147 1    
    49   23  148 1    
    50   24   25 am   BACKBONE|DICT|INTERRES
    51   24  149 1    
    52   25   26 2    
    53   25   27 1    
    54   27   28 1    
    55   27   29 1    
    56   27  150 1    
    57   28  151 1    
    58   28  152 1    
    59   28  153 1    
    60   29   30 am   BACKBONE|DICT|INTERRES
    61   29  154 1    
    62   30   31 2    
    63   30   32 1    
    64   32   33 1    
    65   32   34 1    
    66   32  155 1    
    67   33  156 1    
    68   33  157 1    
    69   33  158 1    
    70   34   35 am   BACKBONE|DICT|INTERRES
    71   34  159 1    
    72   35   36 2    
    73   35   37 1    
    74   37   38 1    
    75   37   39 1    
    76   37  160 1    
    77   38  161 1    
    78   38  162 1    
    79   38  163 1    
    80   39   40 am   BACKBONE|DICT|INTERRES
    81   39  164 1    
    82   40   41 2    
    83   40   42 1    
    84   42   43 1    
    85   42   44 1    
    86   42  165 1    
    87   43  166 1    
    88   43  167 1    
    89   43  168 1    
    90   44   45 am   BACKBONE|DICT|INTERRES
    91   44  169 1    
    92   45   46 2    
    93   45   47 1    
    94   47   48 1    
    95   47   49 1    
    96   47  170 1    
    97   48  171 1    
    98   48  172 1    
    99   48  173 1    
   100   49   50 am   BACKBONE|DICT|INTERRES
   101   49  174 1    
   102   50   51 2    
   103   50   52 1    
   104   52   53 1    
   105   52   54 1    
   106   52  175 1    
   107   53  176 1    
   108   53  177 1    
   109   53  178 1    
   110   54   55 am   BACKBONE|DICT|INTERRES
   111   54  179 1    
   112   55   56 2    
   113   55   57 1    
   114   57   58 1    
   115   57   59 1    
   116   57  180 1    
   117   58  181 1    
   118   58  182 1    
   119   58  183 1    
   120   59   60 am   BACKBONE|DICT|INTERRES
   121   59  184 1    
   122   60   61 2    
   123   60   62 1    
   124   62   63 1    
   125   62   64 1    
   126   62  185 1    
   127   63  186 1    
   128   63  187 1    
   129   63  188 1    
   130   64   65 am   BACKBONE|DICT|INTERRES
   131   64  189 1    
   132   65   66 2    
   133   67   68 2    
   134   67   69 am   BACKBONE|DICT|INTERRES
   135   69   70 1    
   136   69  190 1    
   137   70   71 1    
   138   70   72 1    
   139   70  191 1    
   140   71  192 1    
   141   71  193 1    
   142   71  194 1    
   143   72   73 2    
   144   72   74 am   BACKBONE|DICT|INTERRES
   145   74   75 1    
   146   74  195 1    
   147   75   76 1    
   148   75   77 1    
   149   75  196 1    
   150   76  197 1    
   151   76  198 1    
   152   76  199 1    
   153   77   78 2    
   154   77   79 am   BACKBONE|DICT|INTERRES
   155   79   80 1    
   156   79  200 1    
   157   80   81 1    
   158   80   82 1    
   159   80  201 1    
   160   81  202 1    
   161   81  203 1    
   162   81  204 1    
   163   82   83 2    
   164   82   84 am   BACKBONE|DICT|INTERRES
   165   84   85 1    
   166   84  205 1    
   167   85   86 1    
   168   85   87 1    
   169   85  206 1    
   170   86  207 1    
   171   86  208 1    
   172   86  209 1    
   173   87   88 2    
   174   87   89 am   BACKBONE|DICT|INTERRES
   175   89   90 1    
   176   89  210 1    
   177   90   91 1    
   178   90   92 1    
   179   90  211 1    
   180   91  212 1    
   181   91  213 1    
   182   91  214 1    
   183   92   93 2    
   184   92   94 am   BACKBONE|DICT|INTERRES
   185   94   95 1    
   186   94  215 1    
   187   95   96 1    
   188   95   97 1    
   189   95  216 1    
   190   96  217 1    
   191   96  218 1    
   192   96  219 1    
   193   97   98 2    
   194   97   99 am   BACKBONE|DICT|INTERRES
   195   99  100 1    
   196   99  220 1    
   197  100  101 1    
   198  100  102 1    
   199  100  221 1    
   200  101  222 1    
   201  101  223 1    
   202  101  224 1    
   203  102  103 2    
   204  102  104 am   BACKBONE|DICT|INTERRES
   205  104  105 1    
   206  104  225 1    
   207  105  106 1    
   208  105  107 1    
   209  105  226 1    
   210  106  227 1    
   211  106  228 1    
   212  106  229 1    
   213  107  108 2    
   214  107  109 am   BACKBONE|DICT|INTERRES
   215  109  110 1    
   216  109  230 1    
   217  110  111 1    
   218  110  112 1    
   219  110  231 1    
   220  111  232 1    
   221  111  233 1    
   222  111  234 1    
   223  112  113 2    
   224  112  114 am   BACKBONE|DICT|INTERRES
   225  114  115 1    
   226  114  235 1    
   227  115  116 1    
   228  115  117 1    
   229  115  236 1    
   230  116  237 1    
   231  116  238 1    
   232  116  239 1    
   233  117  118 2    
   234  117  119 am   BACKBONE|DICT|INTERRES
   235  119  120 1    
   236  119  240 1    
   237  120  121 1    
   238  120  124 1    
   239  120  241 1    
   240  121  122 am   BACKBONE|DICT|INTERRES
   241  121  123 2    
   242  122  242 1    
   243  122  243 1    
   244  124  125 1    
   245  124  244 1    
   246  124  245 1    
   247  125  126 1    
   248  126  246 1    
   249  126  247 1    
@<TRIPOS>SUBSTRUCTURE
     1 UNK         1 GROUP             0       ****    0 ROOT    
