@<TRIPOS>MOLECULE
3R540
247   249    1
SMALL
USER_CHARGES


@<TRIPOS>ATOM
      1 CA         -5.2873  -16.8622  -49.0758 C.3       0 UNK        -0.1800 
      2 C          -3.9291  -16.2577  -48.7532 C.2       0 UNK         0.5000 
      3 O          -3.1793  -16.8297  -47.9632 O.2       0 UNK        -0.5000 
      4 N          -3.6193  -15.0998  -49.3531 N.am      1 UNK        -0.5000 
      5 CA         -2.3751  -14.3182  -49.2461 C.3       1 UNK         0.1400 
      6 C6         -1.0972  -15.0936  -49.6534 C.3       23 UNK        -0.0398 
      7 S7         -1.1134  -15.6141  -51.3999 S.3       23 UNK        -0.2404 
      8 C8          0.6454  -16.0130  -51.6505 C.3       23 UNK        -0.0205 
      9 C9          1.0330  -17.3110  -50.9581 C.ar      23 UNK        -0.0193 
     10 C10         0.9999  -18.5182  -51.6604 C.ar      23 UNK        -0.1150 
     11 C11         1.3648  -19.7189  -51.0398 C.ar      23 UNK        -0.0193 
     12 C12         1.7249  -19.7006  -49.6885 C.ar      23 UNK        -0.1150 
     13 C13         1.7450  -18.5023  -48.9684 C.ar      23 UNK        -0.0193 
     14 C14         1.4261  -17.3077  -49.6178 C.ar      23 UNK        -0.1150 
     15 C15         2.1343  -18.4983  -47.4966 C.3       23 UNK        -0.0205 
     16 S16         0.8761  -17.7311  -46.4150 S.3       23 UNK        -0.2404 
     17 C17        -0.6387  -18.7133  -46.6974 C.3       23 UNK        -0.0398 
     18 CA         -0.4618  -20.2517  -46.7228 C.3       11 UNK         0.1400 
     19 N           0.3709  -20.7609  -45.6319 N.am      11 UNK        -0.5000 
     20 C           0.8794  -21.9996  -45.5795 C.2       10 UNK         0.5000 
     21 O           0.7151  -22.8462  -46.4569 O.2       10 UNK        -0.5000 
     22 CA          1.6680  -22.3615  -44.3101 C.3       10 UNK         0.1400 
     23 CB          3.1239  -21.8913  -44.4296 C.3       10 UNK        -0.1800 
     24 N           1.0585  -21.7825  -43.1126 N.am      10 UNK        -0.5000 
     25 C          -0.1206  -22.1827  -42.6124 C.2       9 UNK         0.5000 
     26 O          -0.7789  -23.1114  -43.0800 O.2       9 UNK        -0.5000 
     27 CA         -0.6900  -21.3802  -41.4297 C.3       9 UNK         0.1400 
     28 CB         -0.2357  -21.9888  -40.0965 C.3       9 UNK        -0.1800 
     29 N          -0.3390  -19.9585  -41.4871 N.am      9 UNK        -0.5000 
     30 C          -0.7798  -19.1241  -42.4416 C.2       8 UNK         0.5000 
     31 O          -1.5132  -19.4926  -43.3604 O.2       8 UNK        -0.5000 
     32 CA         -0.3048  -17.6601  -42.4240 C.3       8 UNK         0.1400 
     33 CB         -1.4853  -16.6724  -42.5186 C.3       8 UNK        -0.1800 
     34 N           0.6118  -17.3281  -41.3297 N.am      8 UNK        -0.5000 
     35 C           0.3481  -17.1388  -40.0297 C.2       7 UNK         0.5000 
     36 O          -0.7759  -17.2105  -39.5313 O.2       7 UNK        -0.5000 
     37 CA          1.5825  -16.8559  -39.1437 C.3       7 UNK         0.1400 
     38 CB          1.2755  -16.9122  -37.6326 C.3       7 UNK        -0.1800 
     39 N           2.7181  -17.7244  -39.4807 N.am      7 UNK        -0.5000 
     40 C           2.7340  -19.0671  -39.4551 C.2       6 UNK         0.5000 
     41 O           1.7896  -19.7486  -39.0581 O.2       6 UNK        -0.5000 
     42 CA          4.0000  -19.7557  -40.0124 C.3       6 UNK         0.1400 
     43 CB          3.7692  -21.2362  -40.3792 C.3       6 UNK        -0.1800 
     44 N           4.5908  -19.0337  -41.1448 N.am      6 UNK        -0.5000 
     45 C           3.9939  -18.7098  -42.3011 C.2       5 UNK         0.5000 
     46 O           2.8413  -19.0319  -42.6024 O.2       5 UNK        -0.5000 
     47 CA          4.8205  -17.8173  -43.2480 C.3       5 UNK         0.1400 
     48 CB          4.6988  -18.2877  -44.7052 C.3       5 UNK        -0.1800 
     49 N           4.4341  -16.4056  -43.1799 N.am      5 UNK        -0.5000 
     50 C           4.3709  -15.6304  -42.0866 C.2       4 UNK         0.5000 
     51 O           4.6276  -16.0257  -40.9483 O.2       4 UNK        -0.5000 
     52 CA          3.9633  -14.1543  -42.2841 C.3       4 UNK         0.1400 
     53 CB          5.1744  -13.2331  -42.0698 C.3       4 UNK        -0.1800 
     54 N           3.3638  -13.8449  -43.5872 N.am      4 UNK        -0.5000 
     55 C           2.1694  -14.2847  -44.0013 C.2       3 UNK         0.5000 
     56 O           1.4740  -15.0611  -43.3456 O.2       3 UNK        -0.5000 
     57 CA          1.6992  -13.7862  -45.3827 C.3       3 UNK         0.1400 
     58 CB          2.5616  -14.3792  -46.5102 C.3       3 UNK        -0.1800 
     59 N           0.2954  -14.1187  -45.6292 N.am      3 UNK        -0.5000 
     60 C          -0.7431  -13.4878  -45.0631 C.2       2 UNK         0.5000 
     61 O          -0.6242  -12.5005  -44.3339 O.2       2 UNK        -0.5000 
     62 CA         -2.1437  -14.0559  -45.3824 C.3       2 UNK         0.1400 
     63 CB         -3.2929  -13.1296  -44.9338 C.3       2 UNK        -0.1800 
     64 N          -2.3049  -14.4342  -46.7896 N.am      2 UNK        -0.5000 
     65 C          -2.1827  -13.6489  -47.8685 C.2       1 UNK         0.5000 
     66 O          -1.9280  -12.4449  -47.8186 O.2       1 UNK        -0.5000 
     67 C          -1.8312  -20.9543  -46.7412 C.2       11 UNK         0.5000 
     68 O          -2.3003  -21.3374  -47.8099 O.2       11 UNK        -0.5000 
     69 N          -2.4196  -21.1551  -45.5526 N.am      12 UNK        -0.5000 
     70 CA         -3.6613  -21.9000  -45.3525 C.3       12 UNK         0.1400 
     71 CB         -4.1185  -21.7552  -43.8935 C.3       12 UNK        -0.1800 
     72 C          -3.5308  -23.3831  -45.7449 C.2       12 UNK         0.5000 
     73 O          -4.4144  -23.9051  -46.4244 O.2       12 UNK        -0.5000 
     74 N          -2.4184  -24.0231  -45.3535 N.am      13 UNK        -0.5000 
     75 CA         -2.0874  -25.4073  -45.7048 C.3       13 UNK         0.1400 
     76 CB         -0.8499  -25.8576  -44.9143 C.3       13 UNK        -0.1800 
     77 C          -1.8698  -25.6112  -47.2164 C.2       13 UNK         0.5000 
     78 O          -2.2965  -26.6300  -47.7605 O.2       13 UNK        -0.5000 
     79 N          -1.2423  -24.6255  -47.8710 N.am      14 UNK        -0.5000 
     80 CA         -1.0306  -24.5827  -49.3194 C.3       14 UNK         0.1400 
     81 CB          0.1675  -23.6661  -49.6103 C.3       14 UNK        -0.1800 
     82 C          -2.2690  -24.1112  -50.1112 C.2       14 UNK         0.5000 
     83 O          -2.2170  -24.0861  -51.3417 O.2       14 UNK        -0.5000 
     84 N          -3.3338  -23.6983  -49.4085 N.am      15 UNK        -0.5000 
     85 CA         -4.5920  -23.0986  -49.8726 C.3       15 UNK         0.1400 
     86 CB         -5.3384  -24.0338  -50.8395 C.3       15 UNK        -0.1800 
     87 C          -4.4380  -21.6772  -50.4541 C.2       15 UNK         0.5000 
     88 O          -5.2698  -20.8157  -50.1640 O.2       15 UNK        -0.5000 
     89 N          -3.3672  -21.4547  -51.2278 N.am      16 UNK        -0.5000 
     90 CA         -2.9018  -20.1813  -51.7760 C.3       16 UNK         0.1400 
     91 CB         -2.3148  -19.3168  -50.6392 C.3       16 UNK        -0.1800 
     92 C          -3.9637  -19.4621  -52.6376 C.2       16 UNK         0.5000 
     93 O          -4.7504  -20.1237  -53.3221 O.2       16 UNK        -0.5000 
     94 N          -3.9637  -18.1222  -52.6100 N.am      17 UNK        -0.5000 
     95 CA         -4.8043  -17.2501  -53.4353 C.3       17 UNK         0.1400 
     96 CB         -4.4152  -15.7877  -53.1757 C.3       17 UNK        -0.1800 
     97 C          -6.3228  -17.4407  -53.2534 C.2       17 UNK         0.5000 
     98 O          -7.0754  -17.1297  -54.1759 O.2       17 UNK        -0.5000 
     99 N          -6.7488  -17.9797  -52.1019 N.am      18 UNK        -0.5000 
    100 CA        -8.1471  -18.2991  -51.8012 C.3       18 UNK         0.1400 
    101 CB        -8.2824  -18.6388  -50.3093 C.3       18 UNK        -0.1800 
    102 C         -8.7120  -19.4405  -52.6703 C.2       18 UNK         0.5000 
    103 O         -9.9164  -19.4628  -52.9263 O.2       18 UNK        -0.5000 
    104 N         -7.8356  -20.3472  -53.1217 N.am      19 UNK        -0.5000 
    105 CA        -8.1576  -21.4506  -54.0291 C.3       19 UNK         0.1400 
    106 CB        -7.5879  -22.7444  -53.4281 C.3       19 UNK        -0.1800 
    107 C         -7.5932  -21.2200  -55.4446 C.2       19 UNK         0.5000 
    108 O         -7.7418  -22.0957  -56.2978 O.2       19 UNK        -0.5000 
    109 N         -6.9287  -20.0730  -55.6597 N.am      20 UNK        -0.5000 
    110 CA        -6.1274  -19.7141  -56.8368 C.3       20 UNK         0.1400 
    111 CB        -7.0191  -19.5417  -58.0839 C.3       20 UNK        -0.1800 
    112 C         -4.9398  -20.6782  -57.0644 C.2       20 UNK         0.5000 
    113 O         -4.5484  -20.9270  -58.2066 O.2       20 UNK        -0.5000 
    114 N         -4.3953  -21.2084  -55.9626 N.am      21 UNK        -0.5000 
    115 CA        -3.2427  -22.1010  -55.9236 C.3       21 UNK         0.1400 
    116 CB        -3.4148  -23.0497  -54.7229 C.3       21 UNK        -0.1800 
    117 C         -1.9298  -21.2987  -55.8321 C.2       21 UNK         0.5000 
    118 O         -1.9496  -20.0653  -55.8053 O.2       21 UNK        -0.5000 
    119 N         -0.8062  -22.0240  -55.7679 N.am      22 UNK        -0.5000 
    120 CA         0.5714  -21.5003  -55.6930 C.3       22 UNK         0.1400 
    121 C          1.1500  -20.9845  -57.0473 C.2       22 UNK         0.5000 
    122 N          0.4873  -21.1985  -58.1775 N.am      22 UNK        -0.7600 
    123 O          2.2333  -20.4077  -57.0843 O.2       22 UNK        -0.5000 
    124 C124        0.7909  -20.4956  -54.5175 C.3       23 UNK        -0.0398 
    125 S125        2.1755  -20.9693  -53.4258 S.3       23 UNK        -0.2404 
    126 C126        1.3554  -21.0460  -51.7956 C.3       23 UNK        -0.0205 
    127 H127       -5.8124  -16.2937  -49.8436 H         1 UNK         0.0600 
    128 H128       -5.9089  -16.8807  -48.1808 H         1 UNK         0.0600 
    129 H129       -5.1699  -17.8870  -49.4273 H         1 UNK         0.0600 
    130 H130       -4.3143  -14.6766  -49.9511 H         1 UNK         0.3000 
    131 H131       -2.4935  -13.5000  -49.9588 H         1 UNK         0.0600 
    132 H132       -0.2149  -14.4689  -49.5011 H         1 UNK         0.0800 
    133 H133       -0.9610  -15.9744  -49.0254 H         1 UNK         0.0800 
    134 H134        1.2696  -15.1920  -51.2948 H         1 UNK         0.0800 
    135 H135        0.8357  -16.0933  -52.7218 H         1 UNK         0.0800 
    136 H136        0.6942  -18.5113  -52.6946 H         1 UNK         0.1150 
    137 H137        1.9908  -20.6245  -49.1938 H         1 UNK         0.1150 
    138 H138        1.4638  -16.3777  -49.0691 H         1 UNK         0.1150 
    139 H139        3.0646  -17.9389  -47.3940 H         1 UNK         0.0800 
    140 H140        2.3502  -19.5072  -47.1439 H         1 UNK         0.0800 
    141 H141       -1.0710  -18.3851  -47.6441 H         1 UNK         0.0800 
    142 H142       -1.3520  -18.4189  -45.9253 H         1 UNK         0.0800 
    143 H143        0.0335  -20.5157  -47.6574 H         1 UNK         0.0600 
    144 H144        0.5316  -20.1320  -44.8595 H         1 UNK         0.3000 
    145 H145        1.6663  -23.4486  -44.2063 H         1 UNK         0.0600 
    146 H146        3.6210  -22.3756  -45.2709 H         1 UNK         0.0600 
    147 H147        3.6948  -22.1280  -43.5318 H         1 UNK         0.0600 
    148 H148        3.1811  -20.8158  -44.5926 H         1 UNK         0.0600 
    149 H149        1.5234  -20.9829  -42.7008 H         1 UNK         0.3000 
    150 H150       -1.7785  -21.4517  -41.4742 H         1 UNK         0.0600 
    151 H151        0.8506  -22.0250  -40.0182 H         1 UNK         0.0600 
    152 H152       -0.6020  -23.0109  -39.9931 H         1 UNK         0.0600 
    153 H153       -0.6165  -21.4186  -39.2490 H         1 UNK         0.0600 
    154 H154        0.2754  -19.6060  -40.7638 H         1 UNK         0.3000 
    155 H155        0.2862  -17.5403  -43.3329 H         1 UNK         0.0600 
    156 H156       -2.1718  -16.7711  -41.6780 H         1 UNK         0.0600 
    157 H157       -2.0641  -16.8519  -43.4246 H         1 UNK         0.0600 
    158 H158       -1.1358  -15.6406  -42.5514 H         1 UNK         0.0600 
    159 H159        1.5816  -17.2985  -41.6151 H         1 UNK         0.3000 
    160 H160        1.8968  -15.8376  -39.3776 H         1 UNK         0.0600 
    161 H161        0.9028  -17.8907  -37.3287 H         1 UNK         0.0600 
    162 H162        0.5178  -16.1763  -37.3614 H         1 UNK         0.0600 
    163 H163        2.1650  -16.6938  -37.0418 H         1 UNK         0.0600 
    164 H164        3.5304  -17.2470  -39.8627 H         1 UNK         0.3000 
    165 H165        4.7369  -19.7258  -39.2087 H         1 UNK         0.0600 
    166 H166        3.4495  -21.8110  -39.5093 H         1 UNK         0.0600 
    167 H167        3.0030  -21.3479  -41.1445 H         1 UNK         0.0600 
    168 H168        4.6836  -21.6971  -40.7525 H         1 UNK         0.0600 
    169 H169        5.5185  -18.6683  -40.9793 H         1 UNK         0.3000 
    170 H170        5.8720  -17.8837  -42.9622 H         1 UNK         0.0600 
    171 H171        5.3013  -17.6731  -45.3742 H         1 UNK         0.0600 
    172 H172        5.0442  -19.3162  -44.8131 H         1 UNK         0.0600 
    173 H173        3.6657  -18.2466  -45.0501 H         1 UNK         0.0600 
    174 H174        4.1742  -15.9798  -44.0562 H         1 UNK         0.3000 
    175 H175        3.2234  -13.9252  -41.5142 H         1 UNK         0.0600 
    176 H176        5.6288  -13.4022  -41.0925 H         1 UNK         0.0600 
    177 H177        5.9451  -13.4009  -42.8231 H         1 UNK         0.0600 
    178 H178        4.8848  -12.1830  -42.1121 H         1 UNK         0.0600 
    179 H179        3.8885  -13.2197  -44.1821 H         1 UNK         0.3000 
    180 H180        1.8039  -12.6994  -45.4059 H         1 UNK         0.0600 
    181 H181        2.6129  -15.4654  -46.4556 H         1 UNK         0.0600 
    182 H182        3.5849  -14.0063  -46.4577 H         1 UNK         0.0600 
    183 H183        2.1724  -14.1098  -47.4923 H         1 UNK         0.0600 
    184 H184        0.1190  -14.9510  -46.1719 H         1 UNK         0.3000 
    185 H185       -2.2314  -14.9803  -44.8134 H         1 UNK         0.0600 
    186 H186       -3.2527  -12.9496  -43.8589 H         1 UNK         0.0600 
    187 H187       -3.2494  -12.1596  -45.4300 H         1 UNK         0.0600 
    188 H188       -4.2642  -13.5741  -45.1507 H         1 UNK         0.0600 
    189 H189       -2.5391  -15.4091  -46.9679 H         1 UNK         0.3000 
    190 H190       -1.9909  -20.7523  -44.7236 H         1 UNK         0.3000 
    191 H191       -4.4228  -21.4511  -45.9937 H         1 UNK         0.0600 
    192 H192       -4.2530  -20.7073  -43.6243 H         1 UNK         0.0600 
    193 H193       -5.0723  -22.2588  -43.7323 H         1 UNK         0.0600 
    194 H194       -3.3978  -22.1883  -43.2000 H         1 UNK         0.0600 
    195 H195       -1.7619  -23.5418  -44.7462 H         1 UNK         0.3000 
    196 H196       -2.9281  -26.0362  -45.4048 H         1 UNK         0.0600 
    197 H197       -0.5891  -26.8901  -45.1498 H         1 UNK         0.0600 
    198 H198       -1.0280  -25.8048  -43.8401 H         1 UNK         0.0600 
    199 H199        0.0190  -25.2389  -45.1403 H         1 UNK         0.0600 
    200 H200       -0.8674  -23.8468  -47.3390 H         1 UNK         0.3000 
    201 H201       -0.7826  -25.5866  -49.6694 H         1 UNK         0.0600 
    202 H202        0.4148  -23.6782  -50.6720 H         1 UNK         0.0600 
    203 H203        1.0559  -23.9905  -49.0683 H         1 UNK         0.0600 
    204 H204       -0.0397  -22.6329  -49.3272 H         1 UNK         0.0600 
    205 H205       -3.2352  -23.7083  -48.4017 H         1 UNK         0.3000 
    206 H206       -5.2063  -23.0007  -48.9763 H         1 UNK         0.0600 
    207 H207       -5.4009  -25.0467  -50.4420 H         1 UNK         0.0600 
    208 H208       -6.3585  -23.6846  -50.9908 H         1 UNK         0.0600 
    209 H209       -4.8569  -24.0834  -51.8167 H         1 UNK         0.0600 
    210 H210       -2.7917  -22.2658  -51.4319 H         1 UNK         0.3000 
    211 H211       -2.0875  -20.4272  -52.4576 H         1 UNK         0.0600 
    212 H212       -1.5497  -19.8660  -50.0902 H         1 UNK         0.0600 
    213 H213       -1.8367  -18.4158  -51.0186 H         1 UNK         0.0600 
    214 H214       -3.0768  -19.0175  -49.9201 H         1 UNK         0.0600 
    215 H215       -3.2819  -17.6571  -52.0277 H         1 UNK         0.3000 
    216 H216       -4.5789  -17.4798  -54.4787 H         1 UNK         0.0600 
    217 H217       -4.5464  -15.5161  -52.1285 H         1 UNK         0.0600 
    218 H218       -5.0247  -15.1063  -53.7709 H         1 UNK         0.0600 
    219 H219       -3.3751  -15.6039  -53.4446 H         1 UNK         0.0600 
    220 H220       -6.0621  -18.2590  -51.4166 H         1 UNK         0.3000 
    221 H221       -8.7470  -17.4089  -52.0018 H         1 UNK         0.0600 
    222 H222       -7.6606  -19.4905  -50.0317 H         1 UNK         0.0600 
    223 H223       -7.9964  -17.7936  -49.6841 H         1 UNK         0.0600 
    224 H224       -9.3135  -18.8902  -50.0575 H         1 UNK         0.0600 
    225 H225       -6.8580  -20.2510  -52.8687 H         1 UNK         0.3000 
    226 H226       -9.2382  -21.5682  -54.1300 H         1 UNK         0.0600 
    227 H227       -8.0282  -22.9430  -52.4514 H         1 UNK         0.0600 
    228 H228       -7.8048  -23.6065  -54.0599 H         1 UNK         0.0600 
    229 H229       -6.5049  -22.6858  -53.3100 H         1 UNK         0.0600 
    230 H230       -6.8989  -19.4102  -54.8980 H         1 UNK         0.3000 
    231 H231       -5.6850  -18.7422  -56.6143 H         1 UNK         0.0600 
    232 H232       -7.4420  -20.4899  -58.4164 H         1 UNK         0.0600 
    233 H233       -6.4489  -19.1296  -58.9172 H         1 UNK         0.0600 
    234 H234       -7.8437  -18.8567  -57.8866 H         1 UNK         0.0600 
    235 H235       -4.7220  -20.8799  -55.0581 H         1 UNK         0.3000 
    236 H236       -3.2129  -22.6986  -56.8369 H         1 UNK         0.0600 
    237 H237       -3.3849  -22.5113  -53.7769 H         1 UNK         0.0600 
    238 H238       -4.3677  -23.5770  -54.7722 H         1 UNK         0.0600 
    239 H239       -2.6320  -23.8079  -54.6919 H         1 UNK         0.0600 
    240 H240       -0.8783  -23.0311  -55.8014 H         1 UNK         0.3000 
    241 H241        1.1646  -22.3920  -55.4881 H         1 UNK         0.0600 
    242 H242        0.8755  -20.8715  -59.0487 H         1 UNK         0.3800 
    243 H243       -0.3986  -21.6777  -58.1732 H         1 UNK         0.3800 
    244 H244       -0.1068  -20.4170  -53.9063 H         1 UNK         0.0800 
    245 H245        0.9653  -19.4817  -54.8817 H         1 UNK         0.0800 
    246 H246        1.8848  -21.8005  -51.2125 H         1 UNK         0.0800 
    247 H247        0.3306  -21.4058  -51.8932 H         1 UNK         0.0800 
@<TRIPOS>BOND
     1    1    2 1    
     2    1  127 1    
     3    1  128 1    
     4    1  129 1    
     5    2    3 2    
     6    2    4 am   BACKBONE|DICT|INTERRES
     7    4    5 1    
     8    4  130 1    
     9    5    6 1    
    10    5   65 1    
    11    5  131 1    
    12    6    7 1    
    13    6  132 1    
    14    6  133 1    
    15    7    8 1    
    16    8    9 1    
    17    8  134 1    
    18    8  135 1    
    19    9   10 ar   
    20    9   14 ar   
    21   10   11 ar   
    22   10  136 1    
    23   11   12 ar   
    24   11  126 1    
    25   12   13 ar   
    26   12  137 1    
    27   13   14 ar   
    28   13   15 1    
    29   14  138 1    
    30   15   16 1    
    31   15  139 1    
    32   15  140 1    
    33   16   17 1    
    34   17   18 1    
    35   17  141 1    
    36   17  142 1    
    37   18   19 1    
    38   18   67 1    
    39   18  143 1    
    40   19   20 am   BACKBONE|DICT|INTERRES
    41   19  144 1    
    42   20   21 2    
    43   20   22 1    
    44   22   23 1    
    45   22   24 1    
    46   22  145 1    
    47   23  146 1    
    48   23  147 1    
    49   23  148 1    
    50   24   25 am   BACKBONE|DICT|INTERRES
    51   24  149 1    
    52   25   26 2    
    53   25   27 1    
    54   27   28 1    
    55   27   29 1    
    56   27  150 1    
    57   28  151 1    
    58   28  152 1    
    59   28  153 1    
    60   29   30 am   BACKBONE|DICT|INTERRES
    61   29  154 1    
    62   30   31 2    
    63   30   32 1    
    64   32   33 1    
    65   32   34 1    
    66   32  155 1    
    67   33  156 1    
    68   33  157 1    
    69   33  158 1    
    70   34   35 am   BACKBONE|DICT|INTERRES
    71   34  159 1    
    72   35   36 2    
    73   35   37 1    
    74   37   38 1    
    75   37   39 1    
    76   37  160 1    
    77   38  161 1    
    78   38  162 1    
    79   38  163 1    
    80   39   40 am   BACKBONE|DICT|INTERRES
    81   39  164 1    
    82   40   41 2    
    83   40   42 1    
    84   42   43 1    
    85   42   44 1    
    86   42  165 1    
    87   43  166 1    
    88   43  167 1    
    89   43  168 1    
    90   44   45 am   BACKBONE|DICT|INTERRES
    91   44  169 1    
    92   45   46 2    
    93   45   47 1    
    94   47   48 1    
    95   47   49 1    
    96   47  170 1    
    97   48  171 1    
    98   48  172 1    
    99   48  173 1    
   100   49   50 am   BACKBONE|DICT|INTERRES
   101   49  174 1    
   102   50   51 2    
   103   50   52 1    
   104   52   53 1    
   105   52   54 1    
   106   52  175 1    
   107   53  176 1    
   108   53  177 1    
   109   53  178 1    
   110   54   55 am   BACKBONE|DICT|INTERRES
   111   54  179 1    
   112   55   56 2    
   113   55   57 1    
   114   57   58 1    
   115   57   59 1    
   116   57  180 1    
   117   58  181 1    
   118   58  182 1    
   119   58  183 1    
   120   59   60 am   BACKBONE|DICT|INTERRES
   121   59  184 1    
   122   60   61 2    
   123   60   62 1    
   124   62   63 1    
   125   62   64 1    
   126   62  185 1    
   127   63  186 1    
   128   63  187 1    
   129   63  188 1    
   130   64   65 am   BACKBONE|DICT|INTERRES
   131   64  189 1    
   132   65   66 2    
   133   67   68 2    
   134   67   69 am   BACKBONE|DICT|INTERRES
   135   69   70 1    
   136   69  190 1    
   137   70   71 1    
   138   70   72 1    
   139   70  191 1    
   140   71  192 1    
   141   71  193 1    
   142   71  194 1    
   143   72   73 2    
   144   72   74 am   BACKBONE|DICT|INTERRES
   145   74   75 1    
   146   74  195 1    
   147   75   76 1    
   148   75   77 1    
   149   75  196 1    
   150   76  197 1    
   151   76  198 1    
   152   76  199 1    
   153   77   78 2    
   154   77   79 am   BACKBONE|DICT|INTERRES
   155   79   80 1    
   156   79  200 1    
   157   80   81 1    
   158   80   82 1    
   159   80  201 1    
   160   81  202 1    
   161   81  203 1    
   162   81  204 1    
   163   82   83 2    
   164   82   84 am   BACKBONE|DICT|INTERRES
   165   84   85 1    
   166   84  205 1    
   167   85   86 1    
   168   85   87 1    
   169   85  206 1    
   170   86  207 1    
   171   86  208 1    
   172   86  209 1    
   173   87   88 2    
   174   87   89 am   BACKBONE|DICT|INTERRES
   175   89   90 1    
   176   89  210 1    
   177   90   91 1    
   178   90   92 1    
   179   90  211 1    
   180   91  212 1    
   181   91  213 1    
   182   91  214 1    
   183   92   93 2    
   184   92   94 am   BACKBONE|DICT|INTERRES
   185   94   95 1    
   186   94  215 1    
   187   95   96 1    
   188   95   97 1    
   189   95  216 1    
   190   96  217 1    
   191   96  218 1    
   192   96  219 1    
   193   97   98 2    
   194   97   99 am   BACKBONE|DICT|INTERRES
   195   99  100 1    
   196   99  220 1    
   197  100  101 1    
   198  100  102 1    
   199  100  221 1    
   200  101  222 1    
   201  101  223 1    
   202  101  224 1    
   203  102  103 2    
   204  102  104 am   BACKBONE|DICT|INTERRES
   205  104  105 1    
   206  104  225 1    
   207  105  106 1    
   208  105  107 1    
   209  105  226 1    
   210  106  227 1    
   211  106  228 1    
   212  106  229 1    
   213  107  108 2    
   214  107  109 am   BACKBONE|DICT|INTERRES
   215  109  110 1    
   216  109  230 1    
   217  110  111 1    
   218  110  112 1    
   219  110  231 1    
   220  111  232 1    
   221  111  233 1    
   222  111  234 1    
   223  112  113 2    
   224  112  114 am   BACKBONE|DICT|INTERRES
   225  114  115 1    
   226  114  235 1    
   227  115  116 1    
   228  115  117 1    
   229  115  236 1    
   230  116  237 1    
   231  116  238 1    
   232  116  239 1    
   233  117  118 2    
   234  117  119 am   BACKBONE|DICT|INTERRES
   235  119  120 1    
   236  119  240 1    
   237  120  121 1    
   238  120  124 1    
   239  120  241 1    
   240  121  122 am   BACKBONE|DICT|INTERRES
   241  121  123 2    
   242  122  242 1    
   243  122  243 1    
   244  124  125 1    
   245  124  244 1    
   246  124  245 1    
   247  125  126 1    
   248  126  246 1    
   249  126  247 1    
@<TRIPOS>SUBSTRUCTURE
     1 UNK         1 GROUP             0       ****    0 ROOT    
