@<TRIPOS>MOLECULE
3R540
247   249    1
SMALL
USER_CHARGES


@<TRIPOS>ATOM
      1 CA          5.2296  -10.0420  -47.7616 C.3       0 UNK        -0.1800 
      2 C           3.7577  -10.4253  -47.7032 C.2       0 UNK         0.5000 
      3 O           2.9058   -9.6528  -48.1411 O.2       0 UNK        -0.5000 
      4 N           3.4602  -11.6128  -47.1563 N.am      1 UNK        -0.5000 
      5 CA          2.1123  -12.1804  -46.9946 C.3       1 UNK         0.1400 
      6 C6          1.4022  -12.4489  -48.3532 C.3       23 UNK        -0.0398 
      7 S7          0.4428  -14.0016  -48.3375 S.3       23 UNK        -0.2404 
      8 C8          1.1446  -14.8696  -49.7752 C.3       23 UNK        -0.0205 
      9 C9          0.5727  -16.2723  -49.9151 C.ar      23 UNK        -0.0193 
     10 C10        -0.7436  -16.4549  -50.3475 C.ar      23 UNK        -0.1150 
     11 C11        -1.2727  -17.7408  -50.4926 C.ar      23 UNK        -0.0193 
     12 C12        -0.4797  -18.8509  -50.1888 C.ar      23 UNK        -0.1150 
     13 C13         0.8384  -18.6812  -49.7543 C.ar      23 UNK        -0.0193 
     14 C14         1.3610  -17.3909  -49.6311 C.ar      23 UNK        -0.1150 
     15 C15         1.7050  -19.8919  -49.4383 C.3       23 UNK        -0.0205 
     16 S16         2.2731  -19.9309  -47.7057 S.3       23 UNK        -0.2404 
     17 C17         0.7090  -19.9586  -46.7645 C.3       23 UNK        -0.0398 
     18 CA          0.1150  -21.3863  -46.6334 C.3       11 UNK         0.1400 
     19 N          -0.2424  -21.7191  -45.2514 N.am      11 UNK        -0.5000 
     20 C          -0.4243  -22.9726  -44.8081 C.2       10 UNK         0.5000 
     21 O          -0.2840  -23.9684  -45.5168 O.2       10 UNK        -0.5000 
     22 CA         -0.8797  -23.1505  -43.3456 C.3       10 UNK         0.1400 
     23 CB          0.3372  -23.2663  -42.4162 C.3       10 UNK        -0.1800 
     24 N          -1.7407  -22.0674  -42.8723 N.am      10 UNK        -0.5000 
     25 C          -2.9166  -21.7213  -43.4145 C.2       9 UNK         0.5000 
     26 O          -3.4564  -22.3523  -44.3220 O.2       9 UNK        -0.5000 
     27 CA         -3.5706  -20.4223  -42.9032 C.3       9 UNK         0.1400 
     28 CB         -4.7082  -20.7455  -41.9238 C.3       9 UNK        -0.1800 
     29 N          -2.6347  -19.4901  -42.2628 N.am      9 UNK        -0.5000 
     30 C          -1.5745  -18.9204  -42.8535 C.2       8 UNK         0.5000 
     31 O          -1.2350  -19.1450  -44.0187 O.2       8 UNK        -0.5000 
     32 CA         -0.7085  -18.0254  -41.9499 C.3       8 UNK         0.1400 
     33 CB          0.3520  -18.8754  -41.2330 C.3       8 UNK        -0.1800 
     34 N          -0.0439  -16.9539  -42.6899 N.am      8 UNK        -0.5000 
     35 C          -0.6748  -15.8993  -43.2285 C.2       7 UNK         0.5000 
     36 O          -1.8914  -15.7227  -43.1443 O.2       7 UNK        -0.5000 
     37 CA          0.1847  -14.8329  -43.9408 C.3       7 UNK         0.1400 
     38 CB          0.3824  -13.6298  -43.0080 C.3       7 UNK        -0.1800 
     39 N           1.5016  -15.3097  -44.3623 N.am      7 UNK        -0.5000 
     40 C           1.7149  -16.2267  -45.3179 C.2       6 UNK         0.5000 
     41 O           0.8169  -16.7153  -46.0002 O.2       6 UNK        -0.5000 
     42 CA          3.1697  -16.6979  -45.5347 C.3       6 UNK         0.1400 
     43 CB          3.7897  -15.9748  -46.7403 C.3       6 UNK        -0.1800 
     44 N           4.0503  -16.4992  -44.3809 N.am      6 UNK        -0.5000 
     45 C           3.8573  -16.9687  -43.1401 C.2       5 UNK         0.5000 
     46 O           2.9399  -17.7296  -42.8359 O.2       5 UNK        -0.5000 
     47 CA          4.8098  -16.4511  -42.0416 C.3       5 UNK         0.1400 
     48 CB          5.8482  -17.5251  -41.6843 C.3       5 UNK        -0.1800 
     49 N           5.5094  -15.2029  -42.3776 N.am      5 UNK        -0.5000 
     50 C           4.9274  -14.0286  -42.6606 C.2       4 UNK         0.5000 
     51 O           3.7060  -13.8624  -42.7132 O.2       4 UNK        -0.5000 
     52 CA          5.8808  -12.8807  -43.0378 C.3       4 UNK         0.1400 
     53 CB          6.2960  -13.0054  -44.5131 C.3       4 UNK        -0.1800 
     54 N           5.2657  -11.5702  -42.8413 N.am      4 UNK        -0.5000 
     55 C           5.0698  -10.9767  -41.6568 C.2       3 UNK         0.5000 
     56 O           5.4374  -11.4510  -40.5811 O.2       3 UNK        -0.5000 
     57 CA          4.3496   -9.6150  -41.6869 C.3       3 UNK         0.1400 
     58 CB          5.3648   -8.4734  -41.8523 C.3       3 UNK        -0.1800 
     59 N           3.3567   -9.5334  -42.7626 N.am      3 UNK        -0.5000 
     60 C           2.1294  -10.0680  -42.6871 C.2       2 UNK         0.5000 
     61 O           1.6936  -10.6472  -41.6923 O.2       2 UNK        -0.5000 
     62 CA          1.2599   -9.9671  -43.9464 C.3       2 UNK         0.1400 
     63 CB          1.0144   -8.5096  -44.3775 C.3       2 UNK        -0.1800 
     64 N           1.8902  -10.7204  -45.0274 N.am      2 UNK        -0.5000 
     65 C           1.2381  -11.3893  -45.9870 C.2       1 UNK         0.5000 
     66 O           0.0098  -11.4072  -46.0801 O.2       1 UNK        -0.5000 
     67 C          -1.0814  -21.6008  -47.5837 C.2       11 UNK         0.5000 
     68 O          -0.8988  -22.1076  -48.6900 O.2       11 UNK        -0.5000 
     69 N          -2.2951  -21.2649  -47.1207 N.am      12 UNK        -0.5000 
     70 CA         -3.5415  -21.5364  -47.8381 C.3       12 UNK         0.1400 
     71 CB         -4.7045  -20.7702  -47.1923 C.3       12 UNK        -0.1800 
     72 C          -3.8401  -23.0436  -47.9112 C.2       12 UNK         0.5000 
     73 O          -4.2436  -23.5271  -48.9681 O.2       12 UNK        -0.5000 
     74 N          -3.5873  -23.7705  -46.8133 N.am      13 UNK        -0.5000 
     75 CA         -3.6816  -25.2299  -46.7368 C.3       13 UNK         0.1400 
     76 CB         -3.4685  -25.6925  -45.2888 C.3       13 UNK        -0.1800 
     77 C          -2.7027  -25.9375  -47.6930 C.2       13 UNK         0.5000 
     78 O          -3.1030  -26.8836  -48.3714 O.2       13 UNK        -0.5000 
     79 N          -1.4648  -25.4276  -47.7857 N.am      14 UNK        -0.5000 
     80 CA         -0.4472  -25.8672  -48.7468 C.3       14 UNK         0.1400 
     81 CB          0.8962  -25.1987  -48.4189 C.3       14 UNK        -0.1800 
     82 C          -0.8434  -25.6070  -50.2152 C.2       14 UNK         0.5000 
     83 O          -0.4528  -26.3759  -51.0932 O.2       14 UNK        -0.5000 
     84 N          -1.6618  -24.5718  -50.4472 N.am      15 UNK        -0.5000 
     85 CA         -2.3114  -24.2583  -51.7212 C.3       15 UNK         0.1400 
     86 CB         -2.5102  -22.7349  -51.8235 C.3       15 UNK        -0.1800 
     87 C          -3.6368  -25.0302  -51.9221 C.2       15 UNK         0.5000 
     88 O          -4.4778  -24.5913  -52.7085 O.2       15 UNK        -0.5000 
     89 N          -3.8126  -26.1599  -51.2204 N.am      16 UNK        -0.5000 
     90 CA         -4.9532  -27.0811  -51.2741 C.3       16 UNK         0.1400 
     91 CB         -5.0708  -27.7276  -52.6711 C.3       16 UNK        -0.1800 
     92 C          -6.2672  -26.4382  -50.7864 C.2       16 UNK         0.5000 
     93 O          -7.3212  -26.6602  -51.3821 O.2       16 UNK        -0.5000 
     94 N          -6.1646  -25.6431  -49.7116 N.am      17 UNK        -0.5000 
     95 CA         -7.2113  -24.7920  -49.1322 C.3       17 UNK         0.1400 
     96 CB         -8.4120  -25.6205  -48.6282 C.3       17 UNK        -0.1800 
     97 C          -7.5991  -23.6523  -50.0962 C.2       17 UNK         0.5000 
     98 O          -8.7835  -23.3870  -50.3081 O.2       17 UNK        -0.5000 
     99 N          -6.5633  -23.0148  -50.6619 N.am      18 UNK        -0.5000 
    100 CA        -6.5971  -21.9482  -51.6652 C.3       18 UNK         0.1400 
    101 CB        -7.1068  -20.6329  -51.0415 C.3       18 UNK        -0.1800 
    102 C         -7.3603  -22.3585  -52.9442 C.2       18 UNK         0.5000 
    103 O         -8.2820  -21.6593  -53.3712 O.2       18 UNK        -0.5000 
    104 N         -6.9712  -23.5068  -53.5120 N.am      19 UNK        -0.5000 
    105 CA        -7.5491  -24.0807  -54.7281 C.3       19 UNK         0.1400 
    106 CB        -8.2730  -25.3899  -54.3812 C.3       19 UNK        -0.1800 
    107 C         -6.4844  -24.3257  -55.8098 C.2       19 UNK         0.5000 
    108 O         -6.7856  -24.1599  -56.9925 O.2       19 UNK        -0.5000 
    109 N         -5.2615  -24.7010  -55.4069 N.am      20 UNK        -0.5000 
    110 CA        -4.1204  -24.8940  -56.3078 C.3       20 UNK         0.1400 
    111 CB        -3.1134  -25.8501  -55.6499 C.3       20 UNK        -0.1800 
    112 C         -3.4402  -23.5601  -56.6711 C.2       20 UNK         0.5000 
    113 O         -2.7954  -23.4648  -57.7160 O.2       20 UNK        -0.5000 
    114 N         -3.6126  -22.5569  -55.8072 N.am      21 UNK        -0.5000 
    115 CA        -3.1836  -21.1751  -55.9604 C.3       21 UNK         0.1400 
    116 CB        -1.7144  -21.0284  -55.5258 C.3       21 UNK        -0.1800 
    117 C         -4.1137  -20.3170  -55.0922 C.2       21 UNK         0.5000 
    118 O         -4.7858  -20.8569  -54.2109 O.2       21 UNK        -0.5000 
    119 N         -4.1330  -19.0041  -55.3454 N.am      22 UNK        -0.5000 
    120 CA        -4.9174  -17.9998  -54.5969 C.3       22 UNK         0.1400 
    121 C         -6.4599  -18.0663  -54.8258 C.2       22 UNK         0.5000 
    122 N         -6.9508  -18.7771  -55.8335 N.am      22 UNK        -0.7600 
    123 O         -7.2261  -17.4344  -54.1033 O.2       22 UNK        -0.5000 
    124 C124       -4.5539  -17.9317  -53.0840 C.3       23 UNK        -0.0398 
    125 S125       -2.7701  -17.6951  -52.7953 S.3       23 UNK        -0.2404 
    126 C126       -2.6947  -17.9245  -50.9944 C.3       23 UNK        -0.0205 
    127 H127        5.8679  -10.8101  -47.3240 H         1 UNK         0.0600 
    128 H128        5.3968   -9.1118  -47.2187 H         1 UNK         0.0600 
    129 H129        5.5372   -9.8936  -48.7966 H         1 UNK         0.0600 
    130 H130        4.2172  -12.2047  -46.8468 H         1 UNK         0.3000 
    131 H131        2.2870  -13.1425  -46.5113 H         1 UNK         0.0600 
    132 H132        0.7503  -11.6219  -48.6402 H         1 UNK         0.0800 
    133 H133        2.1418  -12.5169  -49.1518 H         1 UNK         0.0800 
    134 H134        2.2308  -14.9097  -49.6804 H         1 UNK         0.0800 
    135 H135        0.9325  -14.2997  -50.6810 H         1 UNK         0.0800 
    136 H136       -1.3546  -15.5940  -50.5807 H         1 UNK         0.1150 
    137 H137       -0.8858  -19.8468  -50.3008 H         1 UNK         0.1150 
    138 H138        2.3841  -17.2656  -49.3096 H         1 UNK         0.1150 
    139 H139        1.1800  -20.8200  -49.6657 H         1 UNK         0.0800 
    140 H140        2.5794  -19.8745  -50.0901 H         1 UNK         0.0800 
    141 H141        0.0014  -19.2403  -47.1835 H         1 UNK         0.0800 
    142 H142        0.9501  -19.5589  -45.7783 H         1 UNK         0.0800 
    143 H143        0.8799  -22.1061  -46.9336 H         1 UNK         0.0600 
    144 H144       -0.4300  -20.9375  -44.6323 H         1 UNK         0.3000 
    145 H145       -1.4490  -24.0794  -43.2831 H         1 UNK         0.0600 
    146 H146        0.0324  -23.4737  -41.3902 H         1 UNK         0.0600 
    147 H147        0.9301  -22.3506  -42.4125 H         1 UNK         0.0600 
    148 H148        0.9919  -24.0805  -42.7302 H         1 UNK         0.0600 
    149 H149       -1.3778  -21.4950  -42.1253 H         1 UNK         0.3000 
    150 H150       -3.9986  -19.9158  -43.7706 H         1 UNK         0.0600 
    151 H151       -4.3360  -21.2308  -41.0206 H         1 UNK         0.0600 
    152 H152       -5.4380  -21.4161  -42.3797 H         1 UNK         0.0600 
    153 H153       -5.2418  -19.8428  -41.6259 H         1 UNK         0.0600 
    154 H154       -2.8272  -19.2676  -41.2965 H         1 UNK         0.3000 
    155 H155       -1.3492  -17.5638  -41.1956 H         1 UNK         0.0600 
    156 H156       -0.1123  -19.6287  -40.5956 H         1 UNK         0.0600 
    157 H157        0.9885  -18.2604  -40.5964 H         1 UNK         0.0600 
    158 H158        0.9944  -19.3985  -41.9427 H         1 UNK         0.0600 
    159 H159        0.9539  -17.0590  -42.8343 H         1 UNK         0.3000 
    160 H160       -0.3554  -14.5005  -44.8301 H         1 UNK         0.0600 
    161 H161        0.8446  -13.9235  -42.0645 H         1 UNK         0.0600 
    162 H162       -0.5691  -13.1505  -42.7754 H         1 UNK         0.0600 
    163 H163        1.0242  -12.8794  -43.4631 H         1 UNK         0.0600 
    164 H164        2.2942  -14.9532  -43.8392 H         1 UNK         0.3000 
    165 H165        3.1347  -17.7677  -45.7470 H         1 UNK         0.0600 
    166 H166        4.7324  -16.4363  -47.0346 H         1 UNK         0.0600 
    167 H167        3.1269  -16.0100  -47.6033 H         1 UNK         0.0600 
    168 H168        3.9824  -14.9239  -46.5243 H         1 UNK         0.0600 
    169 H169        4.8393  -15.8881  -44.5249 H         1 UNK         0.3000 
    170 H170        4.1998  -16.2569  -41.1570 H         1 UNK         0.0600 
    171 H171        6.5085  -17.7412  -42.5251 H         1 UNK         0.0600 
    172 H172        6.4659  -17.2132  -40.8419 H         1 UNK         0.0600 
    173 H173        5.3627  -18.4597  -41.3996 H         1 UNK         0.0600 
    174 H174        6.5182  -15.2538  -42.3820 H         1 UNK         0.3000 
    175 H175        6.7736  -12.9447  -42.4121 H         1 UNK         0.0600 
    176 H176        5.4327  -12.9782  -45.1782 H         1 UNK         0.0600 
    177 H177        6.9698  -12.1989  -44.8036 H         1 UNK         0.0600 
    178 H178        6.8211  -13.9436  -44.6968 H         1 UNK         0.0600 
    179 H179        4.9207  -11.1076  -43.6654 H         1 UNK         0.3000 
    180 H180        3.8467   -9.4821  -40.7264 H         1 UNK         0.0600 
    181 H181        4.8737   -7.5009  -41.8130 H         1 UNK         0.0600 
    182 H182        5.9004   -8.5416  -42.8001 H         1 UNK         0.0600 
    183 H183        6.1075   -8.4935  -41.0536 H         1 UNK         0.0600 
    184 H184        3.6269   -9.0265  -43.5925 H         1 UNK         0.3000 
    185 H185        0.2948  -10.4173  -43.7028 H         1 UNK         0.0600 
    186 H186        1.9303   -8.0216  -44.7117 H         1 UNK         0.0600 
    187 H187        0.2975   -8.4618  -45.1974 H         1 UNK         0.0600 
    188 H188        0.6059   -7.9217  -43.5547 H         1 UNK         0.0600 
    189 H189        2.8963  -10.7777  -45.0089 H         1 UNK         0.3000 
    190 H190       -2.3750  -20.8855  -46.1886 H         1 UNK         0.3000 
    191 H191       -3.4287  -21.1709  -48.8610 H         1 UNK         0.0600 
    192 H192       -4.5145  -19.6968  -47.1881 H         1 UNK         0.0600 
    193 H193       -5.6303  -20.9339  -47.7457 H         1 UNK         0.0600 
    194 H194       -4.8803  -21.0841  -46.1636 H         1 UNK         0.0600 
    195 H195       -3.3294  -23.2836  -45.9587 H         1 UNK         0.3000 
    196 H196       -4.6951  -25.5090  -47.0311 H         1 UNK         0.0600 
    197 H197       -4.1675  -25.2035  -44.6099 H         1 UNK         0.0600 
    198 H198       -2.4585  -25.4792  -44.9416 H         1 UNK         0.0600 
    199 H199       -3.6239  -26.7682  -45.1982 H         1 UNK         0.0600 
    200 H200       -1.1907  -24.6905  -47.1438 H         1 UNK         0.3000 
    201 H201       -0.3256  -26.9457  -48.6278 H         1 UNK         0.0600 
    202 H202        1.2166  -25.4335  -47.4038 H         1 UNK         0.0600 
    203 H203        0.8413  -24.1143  -48.5105 H         1 UNK         0.0600 
    204 H204        1.6793  -25.5446  -49.0947 H         1 UNK         0.0600 
    205 H205       -1.9120  -23.9783  -49.6664 H         1 UNK         0.3000 
    206 H206       -1.6503  -24.5568  -52.5367 H         1 UNK         0.0600 
    207 H207       -1.5644  -22.2051  -51.7086 H         1 UNK         0.0600 
    208 H208       -3.1941  -22.3610  -51.0631 H         1 UNK         0.0600 
    209 H209       -2.9208  -22.4555  -52.7937 H         1 UNK         0.0600 
    210 H210       -3.0981  -26.4112  -50.5495 H         1 UNK         0.3000 
    211 H211       -4.7297  -27.8790  -50.5646 H         1 UNK         0.0600 
    212 H212       -5.3496  -27.0025  -53.4351 H         1 UNK         0.0600 
    213 H213       -5.8286  -28.5117  -52.6759 H         1 UNK         0.0600 
    214 H214       -4.1293  -28.1859  -52.9734 H         1 UNK         0.0600 
    215 H215       -5.2337  -25.4770  -49.3508 H         1 UNK         0.3000 
    216 H216       -6.7673  -24.3124  -48.2590 H         1 UNK         0.0600 
    217 H217       -9.1055  -24.9932  -48.0672 H         1 UNK         0.0600 
    218 H218       -8.0874  -26.4206  -47.9632 H         1 UNK         0.0600 
    219 H219       -8.9741  -26.0702  -49.4468 H         1 UNK         0.0600 
    220 H220       -5.6365  -23.3130  -50.3753 H         1 UNK         0.3000 
    221 H221       -5.5603  -21.7880  -51.9596 H         1 UNK         0.0600 
    222 H222       -8.1401  -20.7179  -50.7042 H         1 UNK         0.0600 
    223 H223       -6.4963  -20.3403  -50.1874 H         1 UNK         0.0600 
    224 H224       -7.0648  -19.8180  -51.7653 H         1 UNK         0.0600 
    225 H225       -6.1823  -23.9983  -53.1001 H         1 UNK         0.3000 
    226 H226       -8.2830  -23.3957  -55.1572 H         1 UNK         0.0600 
    227 H227       -9.0325  -25.2299  -53.6156 H         1 UNK         0.0600 
    228 H228       -8.7730  -25.8037  -55.2577 H         1 UNK         0.0600 
    229 H229       -7.5810  -26.1464  -54.0115 H         1 UNK         0.0600 
    230 H230       -5.0642  -24.7874  -54.4133 H         1 UNK         0.3000 
    231 H231       -4.4701  -25.3558  -57.2335 H         1 UNK         0.0600 
    232 H232       -2.2903  -26.0743  -56.3294 H         1 UNK         0.0600 
    233 H233       -2.6812  -25.4219  -54.7459 H         1 UNK         0.0600 
    234 H234       -3.5822  -26.7975  -55.3836 H         1 UNK         0.0600 
    235 H235       -4.2039  -22.7024  -54.9974 H         1 UNK         0.3000 
    236 H236       -3.2980  -20.8715  -57.0029 H         1 UNK         0.0600 
    237 H237       -1.5731  -21.3096  -54.4819 H         1 UNK         0.0600 
    238 H238       -1.0579  -21.6526  -56.1319 H         1 UNK         0.0600 
    239 H239       -1.3743  -19.9981  -55.6354 H         1 UNK         0.0600 
    240 H240       -3.5545  -18.6386  -56.0880 H         1 UNK         0.3000 
    241 H241       -4.6286  -17.0416  -55.0297 H         1 UNK         0.0600 
    242 H242       -7.9479  -18.8100  -55.9762 H         1 UNK         0.3800 
    243 H243       -6.3386  -19.2940  -56.4432 H         1 UNK         0.3800 
    244 H244       -4.8796  -18.8356  -52.5681 H         1 UNK         0.0800 
    245 H245       -5.0760  -17.1028  -52.6033 H         1 UNK         0.0800 
    246 H246       -3.0668  -18.9179  -50.7375 H         1 UNK         0.0800 
    247 H247       -3.3538  -17.2062  -50.5045 H         1 UNK         0.0800 
@<TRIPOS>BOND
     1    1    2 1    
     2    1  127 1    
     3    1  128 1    
     4    1  129 1    
     5    2    3 2    
     6    2    4 am   BACKBONE|DICT|INTERRES
     7    4    5 1    
     8    4  130 1    
     9    5    6 1    
    10    5   65 1    
    11    5  131 1    
    12    6    7 1    
    13    6  132 1    
    14    6  133 1    
    15    7    8 1    
    16    8    9 1    
    17    8  134 1    
    18    8  135 1    
    19    9   10 ar   
    20    9   14 ar   
    21   10   11 ar   
    22   10  136 1    
    23   11   12 ar   
    24   11  126 1    
    25   12   13 ar   
    26   12  137 1    
    27   13   14 ar   
    28   13   15 1    
    29   14  138 1    
    30   15   16 1    
    31   15  139 1    
    32   15  140 1    
    33   16   17 1    
    34   17   18 1    
    35   17  141 1    
    36   17  142 1    
    37   18   19 1    
    38   18   67 1    
    39   18  143 1    
    40   19   20 am   BACKBONE|DICT|INTERRES
    41   19  144 1    
    42   20   21 2    
    43   20   22 1    
    44   22   23 1    
    45   22   24 1    
    46   22  145 1    
    47   23  146 1    
    48   23  147 1    
    49   23  148 1    
    50   24   25 am   BACKBONE|DICT|INTERRES
    51   24  149 1    
    52   25   26 2    
    53   25   27 1    
    54   27   28 1    
    55   27   29 1    
    56   27  150 1    
    57   28  151 1    
    58   28  152 1    
    59   28  153 1    
    60   29   30 am   BACKBONE|DICT|INTERRES
    61   29  154 1    
    62   30   31 2    
    63   30   32 1    
    64   32   33 1    
    65   32   34 1    
    66   32  155 1    
    67   33  156 1    
    68   33  157 1    
    69   33  158 1    
    70   34   35 am   BACKBONE|DICT|INTERRES
    71   34  159 1    
    72   35   36 2    
    73   35   37 1    
    74   37   38 1    
    75   37   39 1    
    76   37  160 1    
    77   38  161 1    
    78   38  162 1    
    79   38  163 1    
    80   39   40 am   BACKBONE|DICT|INTERRES
    81   39  164 1    
    82   40   41 2    
    83   40   42 1    
    84   42   43 1    
    85   42   44 1    
    86   42  165 1    
    87   43  166 1    
    88   43  167 1    
    89   43  168 1    
    90   44   45 am   BACKBONE|DICT|INTERRES
    91   44  169 1    
    92   45   46 2    
    93   45   47 1    
    94   47   48 1    
    95   47   49 1    
    96   47  170 1    
    97   48  171 1    
    98   48  172 1    
    99   48  173 1    
   100   49   50 am   BACKBONE|DICT|INTERRES
   101   49  174 1    
   102   50   51 2    
   103   50   52 1    
   104   52   53 1    
   105   52   54 1    
   106   52  175 1    
   107   53  176 1    
   108   53  177 1    
   109   53  178 1    
   110   54   55 am   BACKBONE|DICT|INTERRES
   111   54  179 1    
   112   55   56 2    
   113   55   57 1    
   114   57   58 1    
   115   57   59 1    
   116   57  180 1    
   117   58  181 1    
   118   58  182 1    
   119   58  183 1    
   120   59   60 am   BACKBONE|DICT|INTERRES
   121   59  184 1    
   122   60   61 2    
   123   60   62 1    
   124   62   63 1    
   125   62   64 1    
   126   62  185 1    
   127   63  186 1    
   128   63  187 1    
   129   63  188 1    
   130   64   65 am   BACKBONE|DICT|INTERRES
   131   64  189 1    
   132   65   66 2    
   133   67   68 2    
   134   67   69 am   BACKBONE|DICT|INTERRES
   135   69   70 1    
   136   69  190 1    
   137   70   71 1    
   138   70   72 1    
   139   70  191 1    
   140   71  192 1    
   141   71  193 1    
   142   71  194 1    
   143   72   73 2    
   144   72   74 am   BACKBONE|DICT|INTERRES
   145   74   75 1    
   146   74  195 1    
   147   75   76 1    
   148   75   77 1    
   149   75  196 1    
   150   76  197 1    
   151   76  198 1    
   152   76  199 1    
   153   77   78 2    
   154   77   79 am   BACKBONE|DICT|INTERRES
   155   79   80 1    
   156   79  200 1    
   157   80   81 1    
   158   80   82 1    
   159   80  201 1    
   160   81  202 1    
   161   81  203 1    
   162   81  204 1    
   163   82   83 2    
   164   82   84 am   BACKBONE|DICT|INTERRES
   165   84   85 1    
   166   84  205 1    
   167   85   86 1    
   168   85   87 1    
   169   85  206 1    
   170   86  207 1    
   171   86  208 1    
   172   86  209 1    
   173   87   88 2    
   174   87   89 am   BACKBONE|DICT|INTERRES
   175   89   90 1    
   176   89  210 1    
   177   90   91 1    
   178   90   92 1    
   179   90  211 1    
   180   91  212 1    
   181   91  213 1    
   182   91  214 1    
   183   92   93 2    
   184   92   94 am   BACKBONE|DICT|INTERRES
   185   94   95 1    
   186   94  215 1    
   187   95   96 1    
   188   95   97 1    
   189   95  216 1    
   190   96  217 1    
   191   96  218 1    
   192   96  219 1    
   193   97   98 2    
   194   97   99 am   BACKBONE|DICT|INTERRES
   195   99  100 1    
   196   99  220 1    
   197  100  101 1    
   198  100  102 1    
   199  100  221 1    
   200  101  222 1    
   201  101  223 1    
   202  101  224 1    
   203  102  103 2    
   204  102  104 am   BACKBONE|DICT|INTERRES
   205  104  105 1    
   206  104  225 1    
   207  105  106 1    
   208  105  107 1    
   209  105  226 1    
   210  106  227 1    
   211  106  228 1    
   212  106  229 1    
   213  107  108 2    
   214  107  109 am   BACKBONE|DICT|INTERRES
   215  109  110 1    
   216  109  230 1    
   217  110  111 1    
   218  110  112 1    
   219  110  231 1    
   220  111  232 1    
   221  111  233 1    
   222  111  234 1    
   223  112  113 2    
   224  112  114 am   BACKBONE|DICT|INTERRES
   225  114  115 1    
   226  114  235 1    
   227  115  116 1    
   228  115  117 1    
   229  115  236 1    
   230  116  237 1    
   231  116  238 1    
   232  116  239 1    
   233  117  118 2    
   234  117  119 am   BACKBONE|DICT|INTERRES
   235  119  120 1    
   236  119  240 1    
   237  120  121 1    
   238  120  124 1    
   239  120  241 1    
   240  121  122 am   BACKBONE|DICT|INTERRES
   241  121  123 2    
   242  122  242 1    
   243  122  243 1    
   244  124  125 1    
   245  124  244 1    
   246  124  245 1    
   247  125  126 1    
   248  126  246 1    
   249  126  247 1    
@<TRIPOS>SUBSTRUCTURE
     1 UNK         1 GROUP             0       ****    0 ROOT    
