@<TRIPOS>MOLECULE
3R540
247   249    1
SMALL
USER_CHARGES


@<TRIPOS>ATOM
      1 CA          2.2935  -13.6741  -42.2337 C.3       0 UNK        -0.1800 
      2 C           2.4777  -13.7358  -43.7420 C.2       0 UNK         0.5000 
      3 O           2.1198  -12.7935  -44.4488 O.2       0 UNK        -0.5000 
      4 N           3.0544  -14.8343  -44.2426 N.am      1 UNK        -0.5000 
      5 CA          3.4345  -15.0062  -45.6532 C.3       1 UNK         0.1400 
      6 C6          3.4461  -16.4960  -46.0685 C.3       23 UNK        -0.0398 
      7 S7          1.7379  -17.0929  -46.3014 S.3       23 UNK        -0.2404 
      8 C8          1.8025  -17.7098  -48.0182 C.3       23 UNK        -0.0205 
      9 C9          0.4499  -17.8385  -48.7174 C.ar      23 UNK        -0.0193 
     10 C10         0.4263  -17.8292  -50.1152 C.ar      23 UNK        -0.1150 
     11 C11        -0.7778  -17.9329  -50.8150 C.ar      23 UNK        -0.0193 
     12 C12        -1.9756  -18.0480  -50.1051 C.ar      23 UNK        -0.1150 
     13 C13        -1.9733  -18.0616  -48.7080 C.ar      23 UNK        -0.0193 
     14 C14        -0.7592  -17.9651  -48.0202 C.ar      23 UNK        -0.1150 
     15 C15        -3.2887  -18.1399  -47.9471 C.3       23 UNK        -0.0205 
     16 S16        -3.8004  -19.8565  -47.6312 S.3       23 UNK        -0.2404 
     17 C17        -2.6610  -20.3370  -46.2932 C.3       23 UNK        -0.0398 
     18 CA         -1.5038  -21.2454  -46.7740 C.3       11 UNK         0.1400 
     19 N          -0.3487  -21.1617  -45.8687 N.am      11 UNK        -0.5000 
     20 C           0.8076  -21.8320  -45.9919 C.2       10 UNK         0.5000 
     21 O           1.0558  -22.6042  -46.9164 O.2       10 UNK        -0.5000 
     22 CA          1.8296  -21.6744  -44.8553 C.3       10 UNK         0.1400 
     23 CB          2.6425  -20.3843  -45.0088 C.3       10 UNK        -0.1800 
     24 N           1.1662  -21.6869  -43.5534 N.am      10 UNK        -0.5000 
     25 C           0.7965  -22.8042  -42.9125 C.2       9 UNK         0.5000 
     26 O           1.0690  -23.9388  -43.3042 O.2       9 UNK        -0.5000 
     27 CA         -0.0379  -22.6276  -41.6291 C.3       9 UNK         0.1400 
     28 CB          0.8780  -22.5416  -40.3991 C.3       9 UNK        -0.1800 
     29 N          -0.9083  -21.4502  -41.6626 N.am      9 UNK        -0.5000 
     30 C          -1.9504  -21.2944  -42.4914 C.2       8 UNK         0.5000 
     31 O          -2.3022  -22.1396  -43.3139 O.2       8 UNK        -0.5000 
     32 CA         -2.6922  -19.9452  -42.4227 C.3       8 UNK         0.1400 
     33 CB         -3.8036  -19.9963  -41.3645 C.3       8 UNK        -0.1800 
     34 N          -1.8151  -18.8021  -42.1506 N.am      8 UNK        -0.5000 
     35 C          -0.7873  -18.4200  -42.9196 C.2       7 UNK         0.5000 
     36 O          -0.4488  -19.0074  -43.9487 O.2       7 UNK        -0.5000 
     37 CA          0.0057  -17.1932  -42.4440 C.3       7 UNK         0.1400 
     38 CB          1.5199  -17.4553  -42.4715 C.3       7 UNK        -0.1800 
     39 N          -0.3201  -16.0186  -43.2541 N.am      7 UNK        -0.5000 
     40 C          -1.3984  -15.2511  -43.0394 C.2       6 UNK         0.5000 
     41 O          -2.2162  -15.4792  -42.1465 O.2       6 UNK        -0.5000 
     42 CA         -1.6062  -14.0085  -43.9273 C.3       6 UNK         0.1400 
     43 CB         -1.3908  -12.7165  -43.1213 C.3       6 UNK        -0.1800 
     44 N          -0.7534  -13.9578  -45.1166 N.am      6 UNK        -0.5000 
     45 C          -1.0955  -14.4774  -46.3037 C.2       5 UNK         0.5000 
     46 O          -2.0929  -15.1794  -46.4682 O.2       5 UNK        -0.5000 
     47 CA         -0.2165  -14.0827  -47.5069 C.3       5 UNK         0.1400 
     48 CB         -0.9436  -14.2182  -48.8587 C.3       5 UNK        -0.1800 
     49 N           0.2617  -12.7097  -47.3430 N.am      5 UNK        -0.5000 
     50 C           1.4306  -12.2321  -47.7815 C.2       4 UNK         0.5000 
     51 O           2.2576  -12.9053  -48.3953 O.2       4 UNK        -0.5000 
     52 CA          1.7393  -10.7586  -47.4769 C.3       4 UNK         0.1400 
     53 CB          0.4926   -9.9032  -47.1603 C.3       4 UNK        -0.1800 
     54 N           2.6760  -10.7028  -46.3607 N.am      4 UNK        -0.5000 
     55 C           3.5458   -9.7106  -46.1378 C.2       3 UNK         0.5000 
     56 O           3.6803   -8.7358  -46.8787 O.2       3 UNK        -0.5000 
     57 CA          4.4120   -9.8245  -44.8730 C.3       3 UNK         0.1400 
     58 CB          3.5798   -9.5355  -43.6128 C.3       3 UNK        -0.1800 
     59 N           5.0222  -11.1470  -44.7558 N.am      3 UNK        -0.5000 
     60 C           6.1860  -11.5049  -45.3181 C.2       2 UNK         0.5000 
     61 O           6.8865  -10.7451  -45.9878 O.2       2 UNK        -0.5000 
     62 CA          6.6483  -12.9586  -45.0893 C.3       2 UNK         0.1400 
     63 CB          7.5233  -13.0538  -43.8301 C.3       2 UNK        -0.1800 
     64 N           5.5148  -13.8741  -44.9554 N.am      2 UNK        -0.5000 
     65 C           4.7656  -14.2956  -45.9848 C.2       1 UNK         0.5000 
     66 O           5.0744  -14.1086  -47.1613 O.2       1 UNK        -0.5000 
     67 C          -1.9985  -22.6930  -46.9839 C.2       11 UNK         0.5000 
     68 O          -2.3503  -23.0661  -48.1050 O.2       11 UNK        -0.5000 
     69 N          -1.9692  -23.4931  -45.9087 N.am      12 UNK        -0.5000 
     70 CA         -2.2823  -24.9226  -45.8879 C.3       12 UNK         0.1400 
     71 CB         -2.1743  -25.4358  -44.4450 C.3       12 UNK        -0.1800 
     72 C          -1.4140  -25.7799  -46.8310 C.2       12 UNK         0.5000 
     73 O          -1.8839  -26.8218  -47.2877 O.2       12 UNK        -0.5000 
     74 N          -0.1852  -25.3298  -47.1154 N.am      13 UNK        -0.5000 
     75 CA          0.7431  -25.9764  -48.0392 C.3       13 UNK         0.1400 
     76 CB          2.1446  -26.0016  -47.4081 C.3       13 UNK        -0.1800 
     77 C           0.7729  -25.2531  -49.3957 C.2       13 UNK         0.5000 
     78 O           0.7101  -25.9124  -50.4333 O.2       13 UNK        -0.5000 
     79 N           0.8793  -23.9174  -49.3662 N.am      14 UNK        -0.5000 
     80 CA          1.0717  -23.0627  -50.5385 C.3       14 UNK         0.1400 
     81 CB          1.4497  -21.6458  -50.0733 C.3       14 UNK        -0.1800 
     82 C          -0.1487  -23.0107  -51.4717 C.2       14 UNK         0.5000 
     83 O           0.0156  -23.0866  -52.6899 O.2       14 UNK        -0.5000 
     84 N          -1.3406  -22.8809  -50.8800 N.am      15 UNK        -0.5000 
     85 CA         -2.6058  -22.6771  -51.5844 C.3       15 UNK         0.1400 
     86 CB         -3.1648  -21.3100  -51.1649 C.3       15 UNK        -0.1800 
     87 C          -3.6214  -23.7900  -51.2816 C.2       15 UNK         0.5000 
     88 O          -4.7906  -23.6426  -51.6358 O.2       15 UNK        -0.5000 
     89 N          -3.1846  -24.8534  -50.5891 N.am      16 UNK        -0.5000 
     90 CA         -3.9965  -25.9711  -50.0927 C.3       16 UNK         0.1400 
     91 CB         -4.4512  -26.8699  -51.2604 C.3       16 UNK        -0.1800 
     92 C          -5.1623  -25.5035  -49.1915 C.2       16 UNK         0.5000 
     93 O          -6.2777  -26.0133  -49.3061 O.2       16 UNK        -0.5000 
     94 N          -4.8680  -24.5181  -48.3290 N.am      17 UNK        -0.5000 
     95 CA         -5.7873  -23.8065  -47.4359 C.3       17 UNK         0.1400 
     96 CB         -6.4585  -24.7597  -46.4236 C.3       17 UNK        -0.1800 
     97 C          -6.7837  -22.9321  -48.2225 C.2       17 UNK         0.5000 
     98 O          -7.9942  -23.0124  -48.0068 O.2       17 UNK        -0.5000 
     99 N          -6.2272  -22.0996  -49.1145 N.am      18 UNK        -0.5000 
    100 CA        -6.9055  -21.1022  -49.9478 C.3       18 UNK         0.1400 
    101 CB        -7.5283  -19.9899  -49.0779 C.3       18 UNK        -0.1800 
    102 C         -7.9027  -21.7133  -50.9539 C.2       18 UNK         0.5000 
    103 O         -8.9865  -21.1646  -51.1650 O.2       18 UNK        -0.5000 
    104 N         -7.5080  -22.8186  -51.5978 N.am      19 UNK        -0.5000 
    105 CA        -8.2600  -23.4916  -52.6568 C.3       19 UNK         0.1400 
    106 CB        -7.8065  -24.9599  -52.7302 C.3       19 UNK        -0.1800 
    107 C         -8.0784  -22.7453  -53.9944 C.2       19 UNK         0.5000 
    108 O         -7.3517  -23.2126  -54.8724 O.2       19 UNK        -0.5000 
    109 N         -8.7182  -21.5704  -54.0931 N.am      20 UNK        -0.5000 
    110 CA        -8.6008  -20.5759  -55.1688 C.3       20 UNK         0.1400 
    111 CB        -9.0622  -21.1464  -56.5270 C.3       20 UNK        -0.1800 
    112 C         -7.2011  -19.9226  -55.2191 C.2       20 UNK         0.5000 
    113 O         -6.7034  -19.5961  -56.2988 O.2       20 UNK        -0.5000 
    114 N         -6.6100  -19.7289  -54.0298 N.am      21 UNK        -0.5000 
    115 CA        -5.2825  -19.1630  -53.7710 C.3       21 UNK         0.1400 
    116 CB        -5.2458  -17.6670  -54.1574 C.3       21 UNK        -0.1800 
    117 C         -4.1419  -19.9986  -54.3977 C.2       21 UNK         0.5000 
    118 O         -4.2858  -21.2113  -54.5611 O.2       21 UNK        -0.5000 
    119 N         -3.0159  -19.3439  -54.6990 N.am      22 UNK        -0.5000 
    120 CA        -1.8171  -19.9523  -55.3019 C.3       22 UNK         0.1400 
    121 C         -1.8655  -20.0342  -56.8580 C.2       22 UNK         0.5000 
    122 N         -2.9327  -19.6048  -57.5213 N.am      22 UNK        -0.7600 
    123 O         -0.9193  -20.5089  -57.4804 O.2       22 UNK        -0.5000 
    124 C124       -0.5226  -19.2545  -54.8064 C.3       23 UNK        -0.0398 
    125 S125       -0.2479  -19.5014  -53.0199 S.3       23 UNK        -0.2404 
    126 C126       -0.7798  -17.9041  -52.3353 C.3       23 UNK        -0.0205 
    127 H127        3.0583  -14.2544  -41.7175 H         1 UNK         0.0600 
    128 H128        1.3179  -14.0655  -41.9497 H         1 UNK         0.0600 
    129 H129        2.3630  -12.6432  -41.8865 H         1 UNK         0.0600 
    130 H130        3.3193  -15.5856  -43.6219 H         1 UNK         0.3000 
    131 H131        2.6900  -14.5016  -46.2698 H         1 UNK         0.0600 
    132 H132        4.0051  -16.6438  -46.9939 H         1 UNK         0.0800 
    133 H133        3.9435  -17.1116  -45.3176 H         1 UNK         0.0800 
    134 H134        2.2967  -18.6821  -48.0255 H         1 UNK         0.0800 
    135 H135        2.4267  -17.0335  -48.6044 H         1 UNK         0.0800 
    136 H136        1.3515  -17.7398  -50.6672 H         1 UNK         0.1150 
    137 H137       -2.9126  -18.1213  -50.6386 H         1 UNK         0.1150 
    138 H138       -0.7665  -17.9734  -46.9402 H         1 UNK         0.1150 
    139 H139       -3.2189  -17.5931  -47.0057 H         1 UNK         0.0800 
    140 H140       -4.0724  -17.6438  -48.5213 H         1 UNK         0.0800 
    141 H141       -3.2431  -20.8231  -45.5093 H         1 UNK         0.0800 
    142 H142       -2.2672  -19.4285  -45.8384 H         1 UNK         0.0800 
    143 H143       -1.1540  -20.8811  -47.7419 H         1 UNK         0.0600 
    144 H144       -0.4342  -20.5041  -45.0982 H         1 UNK         0.3000 
    145 H145        2.5256  -22.5141  -44.9153 H         1 UNK         0.0600 
    146 H146        3.4429  -20.3322  -44.2709 H         1 UNK         0.0600 
    147 H147        3.1009  -20.3201  -45.9964 H         1 UNK         0.0600 
    148 H148        2.0131  -19.5075  -44.8782 H         1 UNK         0.0600 
    149 H149        0.8608  -20.7942  -43.1929 H         1 UNK         0.3000 
    150 H150       -0.6710  -23.5114  -41.5243 H         1 UNK         0.0600 
    151 H151        1.5248  -23.4175  -40.3321 H         1 UNK         0.0600 
    152 H152        0.2978  -22.4969  -39.4773 H         1 UNK         0.0600 
    153 H153        1.5206  -21.6610  -40.4357 H         1 UNK         0.0600 
    154 H154       -0.6910  -20.7039  -41.0188 H         1 UNK         0.3000 
    155 H155       -3.1600  -19.7738  -43.3929 H         1 UNK         0.0600 
    156 H156       -3.3990  -20.1290  -40.3603 H         1 UNK         0.0600 
    157 H157       -4.4870  -20.8249  -41.5556 H         1 UNK         0.0600 
    158 H158       -4.3960  -19.0810  -41.3701 H         1 UNK         0.0600 
    159 H159       -2.0447  -18.2446  -41.3400 H         1 UNK         0.3000 
    160 H160       -0.2579  -16.9944  -41.4027 H         1 UNK         0.0600 
    161 H161        1.8966  -17.5741  -43.4849 H         1 UNK         0.0600 
    162 H162        1.7684  -18.3653  -41.9240 H         1 UNK         0.0600 
    163 H163        2.0669  -16.6399  -42.0005 H         1 UNK         0.0600 
    164 H164        0.2665  -15.8328  -44.0544 H         1 UNK         0.3000 
    165 H165       -2.6531  -14.0224  -44.2389 H         1 UNK         0.0600 
    166 H166       -1.6633  -11.8394  -43.7085 H         1 UNK         0.0600 
    167 H167       -2.0071  -12.7046  -42.2214 H         1 UNK         0.0600 
    168 H168       -0.3538  -12.5966  -42.8106 H         1 UNK         0.0600 
    169 H169        0.0999  -13.4165  -45.0432 H         1 UNK         0.3000 
    170 H170        0.6337  -14.7636  -47.5120 H         1 UNK         0.0600 
    171 H171       -1.2948  -15.2372  -49.0182 H         1 UNK         0.0600 
    172 H172       -1.8100  -13.5586  -48.9150 H         1 UNK         0.0600 
    173 H173       -0.2810  -13.9757  -49.6895 H         1 UNK         0.0600 
    174 H174       -0.3589  -12.0865  -46.8450 H         1 UNK         0.3000 
    175 H175        2.2170  -10.3524  -48.3711 H         1 UNK         0.0600 
    176 H176        0.0278  -10.1907  -46.2163 H         1 UNK         0.0600 
    177 H177        0.7538   -8.8475  -47.0864 H         1 UNK         0.0600 
    178 H178       -0.2571   -9.9905  -47.9478 H         1 UNK         0.0600 
    179 H179        2.6151  -11.4739  -45.6998 H         1 UNK         0.3000 
    180 H180        5.1978   -9.0681  -44.9330 H         1 UNK         0.0600 
    181 H181        2.7784  -10.2627  -43.4767 H         1 UNK         0.0600 
    182 H182        3.1197   -8.5481  -43.6685 H         1 UNK         0.0600 
    183 H183        4.2024   -9.5532  -42.7182 H         1 UNK         0.0600 
    184 H184        4.4959  -11.8408  -44.2480 H         1 UNK         0.3000 
    185 H185        7.2521  -13.2603  -45.9480 H         1 UNK         0.0600 
    186 H186        8.3907  -12.3969  -43.9081 H         1 UNK         0.0600 
    187 H187        6.9739  -12.7665  -42.9327 H         1 UNK         0.0600 
    188 H188        7.8970  -14.0677  -43.6856 H         1 UNK         0.0600 
    189 H189        5.2189  -14.0988  -44.0174 H         1 UNK         0.3000 
    190 H190       -1.7397  -23.0754  -45.0123 H         1 UNK         0.3000 
    191 H191       -3.3181  -25.0390  -46.2029 H         1 UNK         0.0600 
    192 H192       -1.1619  -25.3271  -44.0555 H         1 UNK         0.0600 
    193 H193       -2.4384  -26.4924  -44.3839 H         1 UNK         0.0600 
    194 H194       -2.8489  -24.8943  -43.7815 H         1 UNK         0.0600 
    195 H195        0.1105  -24.4403  -46.7311 H         1 UNK         0.3000 
    196 H196        0.4430  -27.0108  -48.2196 H         1 UNK         0.0600 
    197 H197        2.8650  -26.4766  -48.0753 H         1 UNK         0.0600 
    198 H198        2.1438  -26.5659  -46.4755 H         1 UNK         0.0600 
    199 H199        2.5109  -24.9978  -47.1890 H         1 UNK         0.0600 
    200 H200        0.9356  -23.4507  -48.4624 H         1 UNK         0.3000 
    201 H201        1.9102  -23.4653  -51.1105 H         1 UNK         0.0600 
    202 H202        2.3538  -21.6569  -49.4644 H         1 UNK         0.0600 
    203 H203        0.6554  -21.1881  -49.4822 H         1 UNK         0.0600 
    204 H204        1.6389  -20.9915  -50.9252 H         1 UNK         0.0600 
    205 H205       -1.3950  -22.8657  -49.8667 H         1 UNK         0.3000 
    206 H206       -2.4592  -22.6699  -52.6663 H         1 UNK         0.0600 
    207 H207       -2.4857  -20.5082  -51.4461 H         1 UNK         0.0600 
    208 H208       -4.1187  -21.1096  -51.6484 H         1 UNK         0.0600 
    209 H209       -3.3186  -21.2561  -50.0890 H         1 UNK         0.0600 
    210 H210       -2.2070  -24.8696  -50.3362 H         1 UNK         0.3000 
    211 H211       -3.3434  -26.5706  -49.4593 H         1 UNK         0.0600 
    212 H212       -5.1363  -26.3500  -51.9287 H         1 UNK         0.0600 
    213 H213       -4.9639  -27.7597  -50.8934 H         1 UNK         0.0600 
    214 H214       -3.5998  -27.2076  -51.8511 H         1 UNK         0.0600 
    215 H215       -3.9237  -24.1428  -48.3573 H         1 UNK         0.3000 
    216 H216       -5.1707  -23.1146  -46.8599 H         1 UNK         0.0600 
    217 H217       -7.0219  -24.1964  -45.6791 H         1 UNK         0.0600 
    218 H218       -5.7199  -25.3552  -45.8876 H         1 UNK         0.0600 
    219 H219       -7.1563  -25.4451  -46.9047 H         1 UNK         0.0600 
    220 H220       -5.2251  -22.1431  -49.2254 H         1 UNK         0.3000 
    221 H221       -6.1275  -20.6331  -50.5494 H         1 UNK         0.0600 
    222 H222       -8.3606  -20.3605  -48.4789 H         1 UNK         0.0600 
    223 H223       -6.7922  -19.5600  -48.3990 H         1 UNK         0.0600 
    224 H224       -7.9088  -19.1763  -49.6966 H         1 UNK         0.0600 
    225 H225       -6.5659  -23.1717  -51.4377 H         1 UNK         0.3000 
    226 H226       -9.3226  -23.4851  -52.4045 H         1 UNK         0.0600 
    227 H227       -7.9374  -25.4628  -51.7717 H         1 UNK         0.0600 
    228 H228       -8.3862  -25.5104  -53.4719 H         1 UNK         0.0600 
    229 H229       -6.7557  -25.0411  -53.0084 H         1 UNK         0.0600 
    230 H230       -9.2542  -21.2758  -53.2837 H         1 UNK         0.3000 
    231 H231       -9.2917  -19.7731  -54.9077 H         1 UNK         0.0600 
    232 H232      -10.0466  -21.6075  -56.4479 H         1 UNK         0.0600 
    233 H233       -8.3696  -21.8946  -56.9127 H         1 UNK         0.0600 
    234 H234       -9.1341  -20.3565  -57.2755 H         1 UNK         0.0600 
    235 H235       -7.1058  -20.0640  -53.2184 H         1 UNK         0.3000 
    236 H236       -5.1399  -19.2203  -52.6915 H         1 UNK         0.0600 
    237 H237       -4.3527  -17.1754  -53.7704 H         1 UNK         0.0600 
    238 H238       -5.2635  -17.5244  -55.2385 H         1 UNK         0.0600 
    239 H239       -6.1013  -17.1350  -53.7406 H         1 UNK         0.0600 
    240 H240       -2.9815  -18.3457  -54.5592 H         1 UNK         0.3000 
    241 H241       -1.7614  -20.9914  -54.9709 H         1 UNK         0.0600 
    242 H242       -2.9502  -19.6706  -58.5271 H         1 UNK         0.3800 
    243 H243       -3.7372  -19.2492  -57.0291 H         1 UNK         0.3800 
    244 H244       -0.5382  -18.1895  -55.0427 H         1 UNK         0.0800 
    245 H245        0.3530  -19.6629  -55.3138 H         1 UNK         0.0800 
    246 H246       -1.7755  -17.6590  -52.7057 H         1 UNK         0.0800 
    247 H247       -0.1131  -17.1163  -52.6890 H         1 UNK         0.0800 
@<TRIPOS>BOND
     1    1    2 1    
     2    1  127 1    
     3    1  128 1    
     4    1  129 1    
     5    2    3 2    
     6    2    4 am   BACKBONE|DICT|INTERRES
     7    4    5 1    
     8    4  130 1    
     9    5    6 1    
    10    5   65 1    
    11    5  131 1    
    12    6    7 1    
    13    6  132 1    
    14    6  133 1    
    15    7    8 1    
    16    8    9 1    
    17    8  134 1    
    18    8  135 1    
    19    9   10 ar   
    20    9   14 ar   
    21   10   11 ar   
    22   10  136 1    
    23   11   12 ar   
    24   11  126 1    
    25   12   13 ar   
    26   12  137 1    
    27   13   14 ar   
    28   13   15 1    
    29   14  138 1    
    30   15   16 1    
    31   15  139 1    
    32   15  140 1    
    33   16   17 1    
    34   17   18 1    
    35   17  141 1    
    36   17  142 1    
    37   18   19 1    
    38   18   67 1    
    39   18  143 1    
    40   19   20 am   BACKBONE|DICT|INTERRES
    41   19  144 1    
    42   20   21 2    
    43   20   22 1    
    44   22   23 1    
    45   22   24 1    
    46   22  145 1    
    47   23  146 1    
    48   23  147 1    
    49   23  148 1    
    50   24   25 am   BACKBONE|DICT|INTERRES
    51   24  149 1    
    52   25   26 2    
    53   25   27 1    
    54   27   28 1    
    55   27   29 1    
    56   27  150 1    
    57   28  151 1    
    58   28  152 1    
    59   28  153 1    
    60   29   30 am   BACKBONE|DICT|INTERRES
    61   29  154 1    
    62   30   31 2    
    63   30   32 1    
    64   32   33 1    
    65   32   34 1    
    66   32  155 1    
    67   33  156 1    
    68   33  157 1    
    69   33  158 1    
    70   34   35 am   BACKBONE|DICT|INTERRES
    71   34  159 1    
    72   35   36 2    
    73   35   37 1    
    74   37   38 1    
    75   37   39 1    
    76   37  160 1    
    77   38  161 1    
    78   38  162 1    
    79   38  163 1    
    80   39   40 am   BACKBONE|DICT|INTERRES
    81   39  164 1    
    82   40   41 2    
    83   40   42 1    
    84   42   43 1    
    85   42   44 1    
    86   42  165 1    
    87   43  166 1    
    88   43  167 1    
    89   43  168 1    
    90   44   45 am   BACKBONE|DICT|INTERRES
    91   44  169 1    
    92   45   46 2    
    93   45   47 1    
    94   47   48 1    
    95   47   49 1    
    96   47  170 1    
    97   48  171 1    
    98   48  172 1    
    99   48  173 1    
   100   49   50 am   BACKBONE|DICT|INTERRES
   101   49  174 1    
   102   50   51 2    
   103   50   52 1    
   104   52   53 1    
   105   52   54 1    
   106   52  175 1    
   107   53  176 1    
   108   53  177 1    
   109   53  178 1    
   110   54   55 am   BACKBONE|DICT|INTERRES
   111   54  179 1    
   112   55   56 2    
   113   55   57 1    
   114   57   58 1    
   115   57   59 1    
   116   57  180 1    
   117   58  181 1    
   118   58  182 1    
   119   58  183 1    
   120   59   60 am   BACKBONE|DICT|INTERRES
   121   59  184 1    
   122   60   61 2    
   123   60   62 1    
   124   62   63 1    
   125   62   64 1    
   126   62  185 1    
   127   63  186 1    
   128   63  187 1    
   129   63  188 1    
   130   64   65 am   BACKBONE|DICT|INTERRES
   131   64  189 1    
   132   65   66 2    
   133   67   68 2    
   134   67   69 am   BACKBONE|DICT|INTERRES
   135   69   70 1    
   136   69  190 1    
   137   70   71 1    
   138   70   72 1    
   139   70  191 1    
   140   71  192 1    
   141   71  193 1    
   142   71  194 1    
   143   72   73 2    
   144   72   74 am   BACKBONE|DICT|INTERRES
   145   74   75 1    
   146   74  195 1    
   147   75   76 1    
   148   75   77 1    
   149   75  196 1    
   150   76  197 1    
   151   76  198 1    
   152   76  199 1    
   153   77   78 2    
   154   77   79 am   BACKBONE|DICT|INTERRES
   155   79   80 1    
   156   79  200 1    
   157   80   81 1    
   158   80   82 1    
   159   80  201 1    
   160   81  202 1    
   161   81  203 1    
   162   81  204 1    
   163   82   83 2    
   164   82   84 am   BACKBONE|DICT|INTERRES
   165   84   85 1    
   166   84  205 1    
   167   85   86 1    
   168   85   87 1    
   169   85  206 1    
   170   86  207 1    
   171   86  208 1    
   172   86  209 1    
   173   87   88 2    
   174   87   89 am   BACKBONE|DICT|INTERRES
   175   89   90 1    
   176   89  210 1    
   177   90   91 1    
   178   90   92 1    
   179   90  211 1    
   180   91  212 1    
   181   91  213 1    
   182   91  214 1    
   183   92   93 2    
   184   92   94 am   BACKBONE|DICT|INTERRES
   185   94   95 1    
   186   94  215 1    
   187   95   96 1    
   188   95   97 1    
   189   95  216 1    
   190   96  217 1    
   191   96  218 1    
   192   96  219 1    
   193   97   98 2    
   194   97   99 am   BACKBONE|DICT|INTERRES
   195   99  100 1    
   196   99  220 1    
   197  100  101 1    
   198  100  102 1    
   199  100  221 1    
   200  101  222 1    
   201  101  223 1    
   202  101  224 1    
   203  102  103 2    
   204  102  104 am   BACKBONE|DICT|INTERRES
   205  104  105 1    
   206  104  225 1    
   207  105  106 1    
   208  105  107 1    
   209  105  226 1    
   210  106  227 1    
   211  106  228 1    
   212  106  229 1    
   213  107  108 2    
   214  107  109 am   BACKBONE|DICT|INTERRES
   215  109  110 1    
   216  109  230 1    
   217  110  111 1    
   218  110  112 1    
   219  110  231 1    
   220  111  232 1    
   221  111  233 1    
   222  111  234 1    
   223  112  113 2    
   224  112  114 am   BACKBONE|DICT|INTERRES
   225  114  115 1    
   226  114  235 1    
   227  115  116 1    
   228  115  117 1    
   229  115  236 1    
   230  116  237 1    
   231  116  238 1    
   232  116  239 1    
   233  117  118 2    
   234  117  119 am   BACKBONE|DICT|INTERRES
   235  119  120 1    
   236  119  240 1    
   237  120  121 1    
   238  120  124 1    
   239  120  241 1    
   240  121  122 am   BACKBONE|DICT|INTERRES
   241  121  123 2    
   242  122  242 1    
   243  122  243 1    
   244  124  125 1    
   245  124  244 1    
   246  124  245 1    
   247  125  126 1    
   248  126  246 1    
   249  126  247 1    
@<TRIPOS>SUBSTRUCTURE
     1 UNK         1 GROUP             0       ****    0 ROOT    
