@<TRIPOS>MOLECULE
3R540
247   249    1
SMALL
USER_CHARGES


@<TRIPOS>ATOM
      1 CA          1.7332   -9.7200  -45.8922 C.3       0 UNK        -0.1800 
      2 C           0.7547  -10.6268  -46.6369 C.2       0 UNK         0.5000 
      3 O          -0.4298  -10.3047  -46.7037 O.2       0 UNK        -0.5000 
      4 N           1.1850  -11.7524  -47.2243 N.am      1 UNK        -0.5000 
      5 CA          2.5283  -12.3423  -47.1842 C.3       1 UNK         0.1400 
      6 C6          2.6947  -13.4699  -48.2376 C.3       23 UNK        -0.0398 
      7 S7          1.3136  -14.6631  -48.3644 S.3       23 UNK        -0.2404 
      8 C8          1.7485  -15.4107  -49.9671 C.3       23 UNK        -0.0205 
      9 C9          0.7976  -16.5237  -50.3805 C.ar      23 UNK        -0.0193 
     10 C10        -0.3662  -16.2263  -51.0945 C.ar      23 UNK        -0.1150 
     11 C11        -1.2044  -17.2509  -51.5444 C.ar      23 UNK        -0.0193 
     12 C12        -0.8827  -18.5797  -51.2549 C.ar      23 UNK        -0.1150 
     13 C13         0.2753  -18.8951  -50.5389 C.ar      23 UNK        -0.0193 
     14 C14         1.1141  -17.8582  -50.1099 C.ar      23 UNK        -0.1150 
     15 C15         0.6219  -20.3625  -50.2908 C.3       23 UNK        -0.0205 
     16 S16         1.3783  -20.6843  -48.6643 S.3       23 UNK        -0.2404 
     17 C17         0.0235  -20.2114  -47.5454 C.3       23 UNK        -0.0398 
     18 CA         -0.3847  -21.3633  -46.6005 C.3       11 UNK         0.1400 
     19 N          -0.6695  -20.8785  -45.2480 N.am      11 UNK        -0.5000 
     20 C          -0.9558  -21.6456  -44.1868 C.2       10 UNK         0.5000 
     21 O          -1.0098  -22.8760  -44.2233 O.2       10 UNK        -0.5000 
     22 CA         -1.2915  -20.8992  -42.8864 C.3       10 UNK         0.1400 
     23 CB         -0.0157  -20.5797  -42.0926 C.3       10 UNK        -0.1800 
     24 N          -2.0307  -19.6675  -43.1774 N.am      10 UNK        -0.5000 
     25 C          -3.3487  -19.6430  -43.4220 C.2       9 UNK         0.5000 
     26 O          -4.0806  -20.6262  -43.3059 O.2       9 UNK        -0.5000 
     27 CA         -3.9535  -18.3130  -43.9029 C.3       9 UNK         0.1400 
     28 CB         -4.3591  -17.4400  -42.7064 C.3       9 UNK        -0.1800 
     29 N          -3.0670  -17.5607  -44.7948 N.am      9 UNK        -0.5000 
     30 C          -2.8039  -17.9135  -46.0627 C.2       8 UNK         0.5000 
     31 O          -3.2104  -18.9651  -46.5551 O.2       8 UNK        -0.5000 
     32 CA         -1.9297  -16.9873  -46.9368 C.3       8 UNK         0.1400 
     33 CB         -2.6107  -16.6558  -48.2775 C.3       8 UNK        -0.1800 
     34 N          -1.4555  -15.7780  -46.2653 N.am      8 UNK        -0.5000 
     35 C          -2.1452  -14.6931  -45.8877 C.2       7 UNK         0.5000 
     36 O          -3.3391  -14.5078  -46.1262 O.2       7 UNK        -0.5000 
     37 CA         -1.3400  -13.6699  -45.0563 C.3       7 UNK         0.1400 
     38 CB         -2.2331  -12.7257  -44.2263 C.3       7 UNK        -0.1800 
     39 N          -0.3238  -14.3091  -44.2065 N.am      7 UNK        -0.5000 
     40 C          -0.5489  -15.2413  -43.2684 C.2       6 UNK         0.5000 
     41 O          -1.6709  -15.6516  -42.9721 O.2       6 UNK        -0.5000 
     42 CA          0.6953  -15.8618  -42.6130 C.3       6 UNK         0.1400 
     43 CB          0.3458  -16.8100  -41.4481 C.3       6 UNK        -0.1800 
     44 N           1.5520  -16.5448  -43.5861 N.am      6 UNK        -0.5000 
     45 C           1.2552  -17.5757  -44.3927 C.2       5 UNK         0.5000 
     46 O           0.1371  -18.0849  -44.4914 O.2       5 UNK        -0.5000 
     47 CA          2.4148  -18.1516  -45.2261 C.3       5 UNK         0.1400 
     48 CB          2.5192  -17.4214  -46.5717 C.3       5 UNK        -0.1800 
     49 N           3.6905  -18.0169  -44.5275 N.am      5 UNK        -0.5000 
     50 C           4.3374  -18.9926  -43.8787 C.2       4 UNK         0.5000 
     51 O           3.9728  -20.1685  -43.8620 O.2       4 UNK        -0.5000 
     52 CA          5.6040  -18.5747  -43.1001 C.3       4 UNK         0.1400 
     53 CB          6.8423  -18.6486  -44.0061 C.3       4 UNK        -0.1800 
     54 N           5.5036  -17.2255  -42.5350 N.am      4 UNK        -0.5000 
     55 C           4.6512  -16.8784  -41.5613 C.2       3 UNK         0.5000 
     56 O           3.9659  -17.6933  -40.9437 O.2       3 UNK        -0.5000 
     57 CA          4.5092  -15.3789  -41.2196 C.3       3 UNK         0.1400 
     58 CB          5.2558  -15.0635  -39.9140 C.3       3 UNK        -0.1800 
     59 N           4.9262  -14.4054  -42.2407 N.am      3 UNK        -0.5000 
     60 C           4.5628  -14.3544  -43.5301 C.2       2 UNK         0.5000 
     61 O           3.9534  -15.2544  -44.1069 O.2       2 UNK        -0.5000 
     62 CA          4.9910  -13.0910  -44.3013 C.3       2 UNK         0.1400 
     63 CB          6.4990  -13.1401  -44.5978 C.3       2 UNK        -0.1800 
     64 N           4.2849  -12.8590  -45.5675 N.am      2 UNK        -0.5000 
     65 C           2.9597  -12.7838  -45.7653 C.2       1 UNK         0.5000 
     66 O           2.1111  -12.9993  -44.8956 O.2       1 UNK        -0.5000 
     67 C          -1.5406  -22.1971  -47.1882 C.2       11 UNK         0.5000 
     68 O          -1.2826  -23.2173  -47.8224 O.2       11 UNK        -0.5000 
     69 N          -2.7851  -21.7919  -46.8925 N.am      12 UNK        -0.5000 
     70 CA         -4.0214  -22.4925  -47.2418 C.3       12 UNK         0.1400 
     71 CB         -5.2233  -21.6714  -46.7510 C.3       12 UNK        -0.1800 
     72 C          -4.1098  -23.9397  -46.7140 C.2       12 UNK         0.5000 
     73 O          -4.8052  -24.7558  -47.3188 O.2       12 UNK        -0.5000 
     74 N          -3.4089  -24.2370  -45.6123 N.am      13 UNK        -0.5000 
     75 CA         -3.2584  -25.5868  -45.0778 C.3       13 UNK         0.1400 
     76 CB         -3.2656  -25.5312  -43.5416 C.3       13 UNK        -0.1800 
     77 C          -1.9656  -26.2377  -45.5971 C.2       13 UNK         0.5000 
     78 O          -2.0006  -27.3849  -46.0427 O.2       13 UNK        -0.5000 
     79 N          -0.8483  -25.5014  -45.5199 N.am      14 UNK        -0.5000 
     80 CA          0.4994  -26.0032  -45.7942 C.3       14 UNK         0.1400 
     81 CB          1.5246  -24.9920  -45.2586 C.3       14 UNK        -0.1800 
     82 C           0.7886  -26.3236  -47.2736 C.2       14 UNK         0.5000 
     83 O           1.5556  -27.2493  -47.5427 O.2       14 UNK        -0.5000 
     84 N           0.2022  -25.5544  -48.1982 N.am      15 UNK        -0.5000 
     85 CA          0.4801  -25.6064  -49.6362 C.3       15 UNK         0.1400 
     86 CB          1.3445  -24.3886  -50.0116 C.3       15 UNK        -0.1800 
     87 C          -0.8107  -25.6759  -50.4752 C.2       15 UNK         0.5000 
     88 O          -0.7738  -25.3520  -51.6636 O.2       15 UNK        -0.5000 
     89 N          -1.9145  -26.1077  -49.8460 N.am      16 UNK        -0.5000 
     90 CA         -3.2946  -26.1409  -50.3499 C.3       16 UNK         0.1400 
     91 CB         -3.4116  -26.9482  -51.6603 C.3       16 UNK        -0.1800 
     92 C          -3.9232  -24.7369  -50.4756 C.2       16 UNK         0.5000 
     93 O          -3.2238  -23.7277  -50.3769 O.2       16 UNK        -0.5000 
     94 N          -5.2565  -24.7182  -50.6279 N.am      17 UNK        -0.5000 
     95 CA         -6.1462  -23.5576  -50.5136 C.3       17 UNK         0.1400 
     96 CB         -7.5489  -23.9564  -50.9984 C.3       17 UNK        -0.1800 
     97 C          -5.6733  -22.2985  -51.2613 C.2       17 UNK         0.5000 
     98 O          -5.3911  -22.3684  -52.4590 O.2       17 UNK        -0.5000 
     99 N          -5.6458  -21.1614  -50.5519 N.am      18 UNK        -0.5000 
    100 CA        -5.1963  -19.8642  -51.0646 C.3       18 UNK         0.1400 
    101 CB        -5.1936  -18.8396  -49.9214 C.3       18 UNK        -0.1800 
    102 C         -6.0302  -19.3546  -52.2545 C.2       18 UNK         0.5000 
    103 O         -5.4764  -18.7472  -53.1691 O.2       18 UNK        -0.5000 
    104 N         -7.3340  -19.6646  -52.2468 N.am      19 UNK        -0.5000 
    105 CA        -8.2728  -19.3654  -53.3293 C.3       19 UNK         0.1400 
    106 CB        -9.7011  -19.6511  -52.8407 C.3       19 UNK        -0.1800 
    107 C         -7.9837  -20.1407  -54.6309 C.2       19 UNK         0.5000 
    108 O         -8.3609  -19.6692  -55.7039 O.2       19 UNK        -0.5000 
    109 N         -7.3245  -21.3028  -54.5198 N.am      20 UNK        -0.5000 
    110 CA        -6.8515  -22.0907  -55.6544 C.3       20 UNK         0.1400 
    111 CB        -6.8993  -23.5878  -55.3065 C.3       20 UNK        -0.1800 
    112 C         -5.4323  -21.6541  -56.0496 C.2       20 UNK         0.5000 
    113 O         -5.1902  -21.3799  -57.2254 O.2       20 UNK        -0.5000 
    114 N         -4.5320  -21.5633  -55.0589 N.am      21 UNK        -0.5000 
    115 CA        -3.1174  -21.2139  -55.2228 C.3       21 UNK         0.1400 
    116 CB        -2.4077  -21.3266  -53.8653 C.3       21 UNK        -0.1800 
    117 C         -2.8837  -19.8233  -55.8440 C.2       21 UNK         0.5000 
    118 O         -1.9952  -19.6801  -56.6851 O.2       21 UNK        -0.5000 
    119 N         -3.7047  -18.8457  -55.4457 N.am      22 UNK        -0.5000 
    120 CA        -3.7475  -17.4846  -56.0031 C.3       22 UNK         0.1400 
    121 C         -4.9987  -17.2515  -56.9019 C.2       22 UNK         0.5000 
    122 N         -5.6821  -18.2876  -57.3743 N.am      22 UNK        -0.7600 
    123 O         -5.3515  -16.1132  -57.1991 O.2       22 UNK        -0.5000 
    124 C124       -3.6031  -16.4067  -54.8948 C.3       23 UNK        -0.0398 
    125 S125       -1.9761  -16.4854  -54.0714 S.3       23 UNK        -0.2404 
    126 C126       -2.4393  -16.9253  -52.3687 C.3       23 UNK        -0.0205 
    127 H127        2.6720   -9.6036  -46.4320 H         1 UNK         0.0600 
    128 H128        1.9428  -10.1184  -44.8996 H         1 UNK         0.0600 
    129 H129        1.3051   -8.7252  -45.7672 H         1 UNK         0.0600 
    130 H130        0.5087  -12.3232  -47.7101 H         1 UNK         0.3000 
    131 H131        3.2212  -11.5514  -47.4766 H         1 UNK         0.0600 
    132 H132        3.6217  -14.0254  -48.0833 H         1 UNK         0.0800 
    133 H133        2.8045  -12.9997  -49.2160 H         1 UNK         0.0800 
    134 H134        1.7551  -14.6363  -50.7358 H         1 UNK         0.0800 
    135 H135        2.7678  -15.7967  -49.9155 H         1 UNK         0.0800 
    136 H136       -0.6073  -15.1980  -51.3244 H         1 UNK         0.1150 
    137 H137       -1.5250  -19.3733  -51.6074 H         1 UNK         0.1150 
    138 H138        2.0270  -18.0882  -49.5797 H         1 UNK         0.1150 
    139 H139       -0.2668  -20.9893  -50.3868 H         1 UNK         0.0800 
    140 H140        1.3147  -20.6892  -51.0670 H         1 UNK         0.0800 
    141 H141        0.3960  -19.3693  -46.9692 H         1 UNK         0.0800 
    142 H142       -0.8288  -19.8221  -48.1061 H         1 UNK         0.0800 
    143 H143        0.4653  -22.0383  -46.4876 H         1 UNK         0.0600 
    144 H144       -0.6297  -19.8764  -45.1025 H         1 UNK         0.3000 
    145 H145       -1.9099  -21.5568  -42.2715 H         1 UNK         0.0600 
    146 H146       -0.2501  -20.0664  -41.1601 H         1 UNK         0.0600 
    147 H147        0.5167  -21.4954  -41.8329 H         1 UNK         0.0600 
    148 H148        0.6751  -19.9540  -42.6568 H         1 UNK         0.0600 
    149 H149       -1.4836  -18.8312  -43.3492 H         1 UNK         0.3000 
    150 H150       -4.8615  -18.5486  -44.4626 H         1 UNK         0.0600 
    151 H151       -5.1274  -17.9336  -42.1103 H         1 UNK         0.0600 
    152 H152       -4.7640  -16.4818  -43.0327 H         1 UNK         0.0600 
    153 H153       -3.5149  -17.2418  -42.0457 H         1 UNK         0.0600 
    154 H154       -2.6430  -16.7233  -44.4097 H         1 UNK         0.3000 
    155 H155       -1.0255  -17.5469  -47.1685 H         1 UNK         0.0600 
    156 H156       -2.0387  -15.9187  -48.8398 H         1 UNK         0.0600 
    157 H157       -3.6182  -16.2633  -48.1374 H         1 UNK         0.0600 
    158 H158       -2.6890  -17.5478  -48.8986 H         1 UNK         0.0600 
    159 H159       -0.4885  -15.8111  -45.9765 H         1 UNK         0.3000 
    160 H160       -0.7965  -13.0611  -45.7769 H         1 UNK         0.0600 
    161 H161       -1.6321  -12.0117  -43.6633 H         1 UNK         0.0600 
    162 H162       -2.8971  -12.1497  -44.8719 H         1 UNK         0.0600 
    163 H163       -2.8569  -13.2732  -43.5192 H         1 UNK         0.0600 
    164 H164        0.6339  -14.0109  -44.3867 H         1 UNK         0.3000 
    165 H165        1.2795  -15.0351  -42.2071 H         1 UNK         0.0600 
    166 H166       -0.2764  -17.6421  -41.7758 H         1 UNK         0.0600 
    167 H167        1.2440  -17.2243  -40.9911 H         1 UNK         0.0600 
    168 H168       -0.2030  -16.2815  -40.6680 H         1 UNK         0.0600 
    169 H169        2.4812  -16.1425  -43.6867 H         1 UNK         0.3000 
    170 H170        2.1979  -19.2044  -45.4169 H         1 UNK         0.0600 
    171 H171        1.5634  -17.4041  -47.0944 H         1 UNK         0.0600 
    172 H172        2.8374  -16.3866  -46.4405 H         1 UNK         0.0600 
    173 H173        3.2394  -17.9102  -47.2277 H         1 UNK         0.0600 
    174 H174        4.0459  -17.0681  -44.4464 H         1 UNK         0.3000 
    175 H175        5.7381  -19.2811  -42.2781 H         1 UNK         0.0600 
    176 H176        6.7749  -17.9468  -44.8385 H         1 UNK         0.0600 
    177 H177        7.7525  -18.4243  -43.4496 H         1 UNK         0.0600 
    178 H178        6.9579  -19.6480  -44.4277 H         1 UNK         0.0600 
    179 H179        6.0302  -16.4964  -42.9927 H         1 UNK         0.3000 
    180 H180        3.4463  -15.2063  -41.0435 H         1 UNK         0.0600 
    181 H181        6.3350  -15.1645  -40.0361 H         1 UNK         0.0600 
    182 H182        4.9518  -15.7384  -39.1125 H         1 UNK         0.0600 
    183 H183        5.0487  -14.0487  -39.5740 H         1 UNK         0.0600 
    184 H184        5.4682  -13.6315  -41.8840 H         1 UNK         0.3000 
    185 H185        4.7875  -12.2308  -43.6607 H         1 UNK         0.0600 
    186 H186        7.0831  -13.2603  -43.6845 H         1 UNK         0.0600 
    187 H187        6.7498  -13.9712  -45.2584 H         1 UNK         0.0600 
    188 H188        6.8386  -12.2197  -45.0735 H         1 UNK         0.0600 
    189 H189        4.8887  -12.6849  -46.3571 H         1 UNK         0.3000 
    190 H190       -2.9015  -20.8932  -46.4338 H         1 UNK         0.3000 
    191 H191       -4.0677  -22.5324  -48.3282 H         1 UNK         0.0600 
    192 H192       -5.2375  -20.6793  -47.2017 H         1 UNK         0.0600 
    193 H193       -6.1647  -22.1585  -47.0083 H         1 UNK         0.0600 
    194 H194       -5.2050  -21.5454  -45.6681 H         1 UNK         0.0600 
    195 H195       -2.8401  -23.5157  -45.1870 H         1 UNK         0.3000 
    196 H196       -4.0981  -26.2122  -45.3885 H         1 UNK         0.0600 
    197 H197       -3.1628  -26.5300  -43.1155 H         1 UNK         0.0600 
    198 H198       -4.2012  -25.1137  -43.1691 H         1 UNK         0.0600 
    199 H199       -2.4503  -24.9223  -43.1499 H         1 UNK         0.0600 
    200 H200       -0.9070  -24.5659  -45.1281 H         1 UNK         0.3000 
    201 H201        0.6237  -26.9317  -45.2327 H         1 UNK         0.0600 
    202 H202        1.3790  -24.8062  -44.1942 H         1 UNK         0.0600 
    203 H203        1.4545  -24.0365  -45.7778 H         1 UNK         0.0600 
    204 H204        2.5428  -25.3610  -45.3882 H         1 UNK         0.0600 
    205 H205       -0.4100  -24.7928  -47.9050 H         1 UNK         0.3000 
    206 H206        1.0430  -26.5089  -49.8813 H         1 UNK         0.0600 
    207 H207        2.2528  -24.3462  -49.4106 H         1 UNK         0.0600 
    208 H208        1.6500  -24.4256  -51.0578 H         1 UNK         0.0600 
    209 H209        0.7987  -23.4570  -49.8601 H         1 UNK         0.0600 
    210 H210       -1.8117  -26.3290  -48.8657 H         1 UNK         0.3000 
    211 H211       -3.8636  -26.6690  -49.5830 H         1 UNK         0.0600 
    212 H212       -2.9862  -26.4135  -52.5098 H         1 UNK         0.0600 
    213 H213       -4.4548  -27.1529  -51.9020 H         1 UNK         0.0600 
    214 H214       -2.9053  -27.9101  -51.5794 H         1 UNK         0.0600 
    215 H215       -5.7266  -25.6062  -50.7193 H         1 UNK         0.3000 
    216 H216       -6.2136  -23.3224  -49.4502 H         1 UNK         0.0600 
    217 H217       -7.9530  -24.7793  -50.4085 H         1 UNK         0.0600 
    218 H218       -7.5383  -24.2664  -52.0444 H         1 UNK         0.0600 
    219 H219       -8.2478  -23.1234  -50.9107 H         1 UNK         0.0600 
    220 H220       -5.9211  -21.1820  -49.5818 H         1 UNK         0.3000 
    221 H221       -4.1684  -19.9850  -51.4079 H         1 UNK         0.0600 
    222 H222       -4.8424  -17.8671  -50.2691 H         1 UNK         0.0600 
    223 H223       -6.1904  -18.6981  -49.5021 H         1 UNK         0.0600 
    224 H224       -4.5316  -19.1535  -49.1141 H         1 UNK         0.0600 
    225 H225       -7.7020  -20.1693  -51.4543 H         1 UNK         0.3000 
    226 H226       -8.1941  -18.3005  -53.5587 H         1 UNK         0.0600 
    227 H227      -10.4334  -19.4123  -53.6132 H         1 UNK         0.0600 
    228 H228       -9.8333  -20.7011  -52.5763 H         1 UNK         0.0600 
    229 H229       -9.9470  -19.0495  -51.9654 H         1 UNK         0.0600 
    230 H230       -7.0003  -21.5959  -53.6072 H         1 UNK         0.3000 
    231 H231       -7.5066  -21.9317  -56.5138 H         1 UNK         0.0600 
    232 H232       -6.5817  -24.1930  -56.1564 H         1 UNK         0.0600 
    233 H233       -7.9115  -23.8980  -55.0470 H         1 UNK         0.0600 
    234 H234       -6.2493  -23.8381  -54.4680 H         1 UNK         0.0600 
    235 H235       -4.8228  -21.8200  -54.1179 H         1 UNK         0.3000 
    236 H236       -2.6780  -21.9522  -55.8965 H         1 UNK         0.0600 
    237 H237       -2.5072  -22.3282  -53.4453 H         1 UNK         0.0600 
    238 H238       -1.3419  -21.1153  -53.9600 H         1 UNK         0.0600 
    239 H239       -2.8195  -20.6209  -53.1460 H         1 UNK         0.0600 
    240 H240       -4.3998  -19.0384  -54.7298 H         1 UNK         0.3000 
    241 H241       -2.9055  -17.3477  -56.6834 H         1 UNK         0.0600 
    242 H242       -6.4938  -18.1228  -57.9482 H         1 UNK         0.3800 
    243 H243       -5.3870  -19.2369  -57.1885 H         1 UNK         0.3800 
    244 H244       -4.4055  -16.4968  -54.1616 H         1 UNK         0.0800 
    245 H245       -3.6919  -15.4047  -55.3175 H         1 UNK         0.0800 
    246 H246       -2.9868  -16.1009  -51.9097 H         1 UNK         0.0800 
    247 H247       -3.1159  -17.7796  -52.3893 H         1 UNK         0.0800 
@<TRIPOS>BOND
     1    1    2 1    
     2    1  127 1    
     3    1  128 1    
     4    1  129 1    
     5    2    3 2    
     6    2    4 am   BACKBONE|DICT|INTERRES
     7    4    5 1    
     8    4  130 1    
     9    5    6 1    
    10    5   65 1    
    11    5  131 1    
    12    6    7 1    
    13    6  132 1    
    14    6  133 1    
    15    7    8 1    
    16    8    9 1    
    17    8  134 1    
    18    8  135 1    
    19    9   10 ar   
    20    9   14 ar   
    21   10   11 ar   
    22   10  136 1    
    23   11   12 ar   
    24   11  126 1    
    25   12   13 ar   
    26   12  137 1    
    27   13   14 ar   
    28   13   15 1    
    29   14  138 1    
    30   15   16 1    
    31   15  139 1    
    32   15  140 1    
    33   16   17 1    
    34   17   18 1    
    35   17  141 1    
    36   17  142 1    
    37   18   19 1    
    38   18   67 1    
    39   18  143 1    
    40   19   20 am   BACKBONE|DICT|INTERRES
    41   19  144 1    
    42   20   21 2    
    43   20   22 1    
    44   22   23 1    
    45   22   24 1    
    46   22  145 1    
    47   23  146 1    
    48   23  147 1    
    49   23  148 1    
    50   24   25 am   BACKBONE|DICT|INTERRES
    51   24  149 1    
    52   25   26 2    
    53   25   27 1    
    54   27   28 1    
    55   27   29 1    
    56   27  150 1    
    57   28  151 1    
    58   28  152 1    
    59   28  153 1    
    60   29   30 am   BACKBONE|DICT|INTERRES
    61   29  154 1    
    62   30   31 2    
    63   30   32 1    
    64   32   33 1    
    65   32   34 1    
    66   32  155 1    
    67   33  156 1    
    68   33  157 1    
    69   33  158 1    
    70   34   35 am   BACKBONE|DICT|INTERRES
    71   34  159 1    
    72   35   36 2    
    73   35   37 1    
    74   37   38 1    
    75   37   39 1    
    76   37  160 1    
    77   38  161 1    
    78   38  162 1    
    79   38  163 1    
    80   39   40 am   BACKBONE|DICT|INTERRES
    81   39  164 1    
    82   40   41 2    
    83   40   42 1    
    84   42   43 1    
    85   42   44 1    
    86   42  165 1    
    87   43  166 1    
    88   43  167 1    
    89   43  168 1    
    90   44   45 am   BACKBONE|DICT|INTERRES
    91   44  169 1    
    92   45   46 2    
    93   45   47 1    
    94   47   48 1    
    95   47   49 1    
    96   47  170 1    
    97   48  171 1    
    98   48  172 1    
    99   48  173 1    
   100   49   50 am   BACKBONE|DICT|INTERRES
   101   49  174 1    
   102   50   51 2    
   103   50   52 1    
   104   52   53 1    
   105   52   54 1    
   106   52  175 1    
   107   53  176 1    
   108   53  177 1    
   109   53  178 1    
   110   54   55 am   BACKBONE|DICT|INTERRES
   111   54  179 1    
   112   55   56 2    
   113   55   57 1    
   114   57   58 1    
   115   57   59 1    
   116   57  180 1    
   117   58  181 1    
   118   58  182 1    
   119   58  183 1    
   120   59   60 am   BACKBONE|DICT|INTERRES
   121   59  184 1    
   122   60   61 2    
   123   60   62 1    
   124   62   63 1    
   125   62   64 1    
   126   62  185 1    
   127   63  186 1    
   128   63  187 1    
   129   63  188 1    
   130   64   65 am   BACKBONE|DICT|INTERRES
   131   64  189 1    
   132   65   66 2    
   133   67   68 2    
   134   67   69 am   BACKBONE|DICT|INTERRES
   135   69   70 1    
   136   69  190 1    
   137   70   71 1    
   138   70   72 1    
   139   70  191 1    
   140   71  192 1    
   141   71  193 1    
   142   71  194 1    
   143   72   73 2    
   144   72   74 am   BACKBONE|DICT|INTERRES
   145   74   75 1    
   146   74  195 1    
   147   75   76 1    
   148   75   77 1    
   149   75  196 1    
   150   76  197 1    
   151   76  198 1    
   152   76  199 1    
   153   77   78 2    
   154   77   79 am   BACKBONE|DICT|INTERRES
   155   79   80 1    
   156   79  200 1    
   157   80   81 1    
   158   80   82 1    
   159   80  201 1    
   160   81  202 1    
   161   81  203 1    
   162   81  204 1    
   163   82   83 2    
   164   82   84 am   BACKBONE|DICT|INTERRES
   165   84   85 1    
   166   84  205 1    
   167   85   86 1    
   168   85   87 1    
   169   85  206 1    
   170   86  207 1    
   171   86  208 1    
   172   86  209 1    
   173   87   88 2    
   174   87   89 am   BACKBONE|DICT|INTERRES
   175   89   90 1    
   176   89  210 1    
   177   90   91 1    
   178   90   92 1    
   179   90  211 1    
   180   91  212 1    
   181   91  213 1    
   182   91  214 1    
   183   92   93 2    
   184   92   94 am   BACKBONE|DICT|INTERRES
   185   94   95 1    
   186   94  215 1    
   187   95   96 1    
   188   95   97 1    
   189   95  216 1    
   190   96  217 1    
   191   96  218 1    
   192   96  219 1    
   193   97   98 2    
   194   97   99 am   BACKBONE|DICT|INTERRES
   195   99  100 1    
   196   99  220 1    
   197  100  101 1    
   198  100  102 1    
   199  100  221 1    
   200  101  222 1    
   201  101  223 1    
   202  101  224 1    
   203  102  103 2    
   204  102  104 am   BACKBONE|DICT|INTERRES
   205  104  105 1    
   206  104  225 1    
   207  105  106 1    
   208  105  107 1    
   209  105  226 1    
   210  106  227 1    
   211  106  228 1    
   212  106  229 1    
   213  107  108 2    
   214  107  109 am   BACKBONE|DICT|INTERRES
   215  109  110 1    
   216  109  230 1    
   217  110  111 1    
   218  110  112 1    
   219  110  231 1    
   220  111  232 1    
   221  111  233 1    
   222  111  234 1    
   223  112  113 2    
   224  112  114 am   BACKBONE|DICT|INTERRES
   225  114  115 1    
   226  114  235 1    
   227  115  116 1    
   228  115  117 1    
   229  115  236 1    
   230  116  237 1    
   231  116  238 1    
   232  116  239 1    
   233  117  118 2    
   234  117  119 am   BACKBONE|DICT|INTERRES
   235  119  120 1    
   236  119  240 1    
   237  120  121 1    
   238  120  124 1    
   239  120  241 1    
   240  121  122 am   BACKBONE|DICT|INTERRES
   241  121  123 2    
   242  122  242 1    
   243  122  243 1    
   244  124  125 1    
   245  124  244 1    
   246  124  245 1    
   247  125  126 1    
   248  126  246 1    
   249  126  247 1    
@<TRIPOS>SUBSTRUCTURE
     1 UNK         1 GROUP             0       ****    0 ROOT    
