@<TRIPOS>MOLECULE
3R540
247   249    1
SMALL
USER_CHARGES


@<TRIPOS>ATOM
      1 CA         -0.7652   -8.3587  -46.4026 C.3       0 UNK        -0.1800 
      2 C           0.2011   -9.0504  -47.3542 C.2       0 UNK         0.5000 
      3 O           0.9657   -8.3782  -48.0473 O.2       0 UNK        -0.5000 
      4 N           0.1621  -10.3873  -47.3964 N.am      1 UNK        -0.5000 
      5 CA          1.0470  -11.2327  -48.2052 C.3       1 UNK         0.1400 
      6 C6          0.5547  -12.7019  -48.2545 C.3       23 UNK        -0.0398 
      7 S7         -1.1147  -12.8459  -48.9722 S.3       23 UNK        -0.2404 
      8 C8         -1.5898  -14.5203  -48.4370 C.3       23 UNK        -0.0205 
      9 C9         -0.8163  -15.6063  -49.1722 C.ar      23 UNK        -0.0193 
     10 C10        -0.9874  -15.7805  -50.5477 C.ar      23 UNK        -0.1150 
     11 C11        -0.2975  -16.7868  -51.2288 C.ar      23 UNK        -0.0193 
     12 C12         0.5630  -17.6311  -50.5202 C.ar      23 UNK        -0.1150 
     13 C13         0.7346  -17.4777  -49.1404 C.ar      23 UNK        -0.0193 
     14 C14         0.0529  -16.4515  -48.4778 C.ar      23 UNK        -0.1150 
     15 C15         1.6771  -18.3921  -48.3646 C.3       23 UNK        -0.0205 
     16 S16         1.3206  -20.1730  -48.5726 S.3       23 UNK        -0.2404 
     17 C17        -0.4131  -20.3124  -48.0232 C.3       23 UNK        -0.0398 
     18 CA         -0.7195  -21.6882  -47.3726 C.3       11 UNK         0.1400 
     19 N          -0.2177  -21.8042  -45.9973 N.am      11 UNK        -0.5000 
     20 C          -0.2827  -22.9169  -45.2491 C.2       10 UNK         0.5000 
     21 O          -0.7211  -23.9903  -45.6617 O.2       10 UNK        -0.5000 
     22 CA          0.1576  -22.8108  -43.7767 C.3       10 UNK         0.1400 
     23 CB          1.6874  -22.8414  -43.6506 C.3       10 UNK        -0.1800 
     24 N          -0.3834  -21.6261  -43.1072 N.am      10 UNK        -0.5000 
     25 C          -1.6913  -21.4061  -42.9033 C.2       9 UNK         0.5000 
     26 O          -2.5735  -22.2034  -43.2162 O.2       9 UNK        -0.5000 
     27 CA         -2.0914  -20.0420  -42.3116 C.3       9 UNK         0.1400 
     28 CB         -1.9195  -20.0213  -40.7858 C.3       9 UNK        -0.1800 
     29 N          -1.3406  -18.9407  -42.9107 N.am      9 UNK        -0.5000 
     30 C          -1.3836  -18.6178  -44.2110 C.2       8 UNK         0.5000 
     31 O          -2.1288  -19.1545  -45.0306 O.2       8 UNK        -0.5000 
     32 CA         -0.3724  -17.5668  -44.6876 C.3       8 UNK         0.1400 
     33 CB         -0.8954  -16.1439  -44.4332 C.3       8 UNK        -0.1800 
     34 N           0.9442  -17.7636  -44.0741 N.am      8 UNK        -0.5000 
     35 C           1.7474  -18.8014  -44.3537 C.2       7 UNK         0.5000 
     36 O           1.4658  -19.6688  -45.1765 O.2       7 UNK        -0.5000 
     37 CA          3.0522  -18.9376  -43.5470 C.3       7 UNK         0.1400 
     38 CB          4.2224  -18.2261  -44.2377 C.3       7 UNK        -0.1800 
     39 N           2.9204  -18.4496  -42.1762 N.am      7 UNK        -0.5000 
     40 C           2.1915  -19.0637  -41.2350 C.2       6 UNK         0.5000 
     41 O           1.5940  -20.1243  -41.4173 O.2       6 UNK        -0.5000 
     42 CA          2.0666  -18.3326  -39.8872 C.3       6 UNK         0.1400 
     43 CB          3.2799  -18.6285  -38.9932 C.3       6 UNK        -0.1800 
     44 N           1.9129  -16.8817  -40.0411 N.am      6 UNK        -0.5000 
     45 C           0.8618  -16.2923  -40.6295 C.2       5 UNK         0.5000 
     46 O          -0.0618  -16.9175  -41.1492 O.2       5 UNK        -0.5000 
     47 CA          0.8529  -14.7549  -40.6850 C.3       5 UNK         0.1400 
     48 CB          0.1769  -14.1875  -39.4284 C.3       5 UNK        -0.1800 
     49 N           2.2045  -14.1936  -40.7934 N.am      5 UNK        -0.5000 
     50 C           2.9049  -13.9352  -41.9084 C.2       4 UNK         0.5000 
     51 O           4.0639  -13.5208  -41.8488 O.2       4 UNK        -0.5000 
     52 CA          2.2605  -14.1266  -43.2964 C.3       4 UNK         0.1400 
     53 CB          1.3795  -12.9198  -43.6782 C.3       4 UNK        -0.1800 
     54 N           3.3187  -14.2741  -44.2914 N.am      4 UNK        -0.5000 
     55 C           3.1898  -14.8687  -45.4809 C.2       3 UNK         0.5000 
     56 O           2.1456  -15.3833  -45.8770 O.2       3 UNK        -0.5000 
     57 CA          4.4106  -14.8012  -46.4063 C.3       3 UNK         0.1400 
     58 CB          4.3429  -15.8503  -47.5373 C.3       3 UNK        -0.1800 
     59 N           4.4036  -13.4495  -46.9431 N.am      3 UNK        -0.5000 
     60 C           5.2914  -12.8582  -47.7452 C.2       2 UNK         0.5000 
     61 O           6.3468  -13.3845  -48.1018 O.2       2 UNK        -0.5000 
     62 CA          4.9086  -11.4426  -48.2448 C.3       2 UNK         0.1400 
     63 CB          5.7246  -11.0121  -49.4771 C.3       2 UNK        -0.1800 
     64 N           3.4775  -11.3227  -48.5623 N.am      2 UNK        -0.5000 
     65 C           2.4904  -11.1880  -47.6664 C.2       1 UNK         0.5000 
     66 O           2.6891  -11.1221  -46.4509 O.2       1 UNK        -0.5000 
     67 C          -2.2260  -22.0064  -47.4592 C.2       11 UNK         0.5000 
     68 O          -2.6308  -22.7790  -48.3282 O.2       11 UNK        -0.5000 
     69 N          -3.0273  -21.4383  -46.5497 N.am      12 UNK        -0.5000 
     70 CA         -4.4674  -21.6748  -46.4665 C.3       12 UNK         0.1400 
     71 CB         -5.0905  -20.6927  -45.4635 C.3       12 UNK        -0.1800 
     72 C          -4.8255  -23.1284  -46.1033 C.2       12 UNK         0.5000 
     73 O          -5.7300  -23.6946  -46.7160 O.2       12 UNK        -0.5000 
     74 N          -4.1238  -23.7007  -45.1170 N.am      13 UNK        -0.5000 
     75 CA         -4.4026  -25.0306  -44.5808 C.3       13 UNK         0.1400 
     76 CB         -3.8453  -25.1371  -43.1518 C.3       13 UNK        -0.1800 
     77 C          -3.8588  -26.1697  -45.4583 C.2       13 UNK         0.5000 
     78 O          -4.6217  -27.0626  -45.8291 O.2       13 UNK        -0.5000 
     79 N          -2.5484  -26.1520  -45.7345 N.am      14 UNK        -0.5000 
     80 CA         -1.8329  -27.2797  -46.3327 C.3       14 UNK         0.1400 
     81 CB         -0.3829  -27.3009  -45.8226 C.3       14 UNK        -0.1800 
     82 C          -1.8662  -27.2484  -47.8659 C.2       14 UNK         0.5000 
     83 O          -2.0778  -28.2912  -48.4860 O.2       14 UNK        -0.5000 
     84 N          -1.6594  -26.0613  -48.4514 N.am      15 UNK        -0.5000 
     85 CA         -1.6331  -25.8677  -49.9043 C.3       15 UNK         0.1400 
     86 CB         -0.6112  -24.7731  -50.2563 C.3       15 UNK        -0.1800 
     87 C          -3.0202  -25.5422  -50.4887 C.2       15 UNK         0.5000 
     88 O          -3.1414  -25.4378  -51.7097 O.2       15 UNK        -0.5000 
     89 N          -4.0311  -25.3584  -49.6250 N.am      16 UNK        -0.5000 
     90 CA         -5.4127  -24.9847  -49.9509 C.3       16 UNK         0.1400 
     91 CB         -6.1218  -26.1289  -50.7059 C.3       16 UNK        -0.1800 
     92 C          -5.4925  -23.6338  -50.6926 C.2       16 UNK         0.5000 
     93 O          -6.2280  -23.5091  -51.6728 O.2       16 UNK        -0.5000 
     94 N          -4.6793  -22.6650  -50.2434 N.am      17 UNK        -0.5000 
     95 CA         -4.4442  -21.3538  -50.8572 C.3       17 UNK         0.1400 
     96 CB         -5.7141  -20.4792  -50.7870 C.3       17 UNK        -0.1800 
     97 C          -3.8592  -21.4880  -52.2789 C.2       17 UNK         0.5000 
     98 O          -4.2971  -20.7940  -53.1964 O.2       17 UNK        -0.5000 
     99 N          -2.9070  -22.4232  -52.4257 N.am      18 UNK        -0.5000 
    100 CA        -2.2750  -22.8728  -53.6715 C.3       18 UNK         0.1400 
    101 CB        -1.3826  -21.7647  -54.2637 C.3       18 UNK        -0.1800 
    102 C         -3.3123  -23.4169  -54.6742 C.2       18 UNK         0.5000 
    103 O         -3.3408  -22.9938  -55.8294 O.2       18 UNK        -0.5000 
    104 N         -4.1838  -24.3126  -54.1872 N.am      19 UNK        -0.5000 
    105 CA        -5.3672  -24.8487  -54.8721 C.3       19 UNK         0.1400 
    106 CB        -4.9514  -25.8089  -56.0054 C.3       19 UNK        -0.1800 
    107 C         -6.3207  -23.7263  -55.3417 C.2       19 UNK         0.5000 
    108 O         -6.7412  -23.7010  -56.4996 O.2       19 UNK        -0.5000 
    109 N         -6.5990  -22.7959  -54.4191 N.am      20 UNK        -0.5000 
    110 CA        -7.4022  -21.5771  -54.5507 C.3       20 UNK         0.1400 
    111 CB        -8.8577  -21.9126  -54.9354 C.3       20 UNK        -0.1800 
    112 C         -6.8052  -20.4751  -55.4545 C.2       20 UNK         0.5000 
    113 O         -7.4462  -19.4336  -55.6099 O.2       20 UNK        -0.5000 
    114 N         -5.5970  -20.6670  -56.0073 N.am      21 UNK        -0.5000 
    115 CA        -4.9234  -19.6944  -56.8761 C.3       21 UNK         0.1400 
    116 CB        -3.6901  -20.3357  -57.5270 C.3       21 UNK        -0.1800 
    117 C         -4.5352  -18.3842  -56.1629 C.2       21 UNK         0.5000 
    118 O         -4.4891  -17.3393  -56.8140 O.2       21 UNK        -0.5000 
    119 N         -4.2945  -18.4496  -54.8474 N.am      22 UNK        -0.5000 
    120 CA        -4.0747  -17.2798  -53.9813 C.3       22 UNK         0.1400 
    121 C         -5.3866  -16.5404  -53.5765 C.2       22 UNK         0.5000 
    122 N         -6.5740  -17.0095  -53.9460 N.am      22 UNK        -0.7600 
    123 O         -5.3270  -15.5051  -52.9190 O.2       22 UNK        -0.5000 
    124 C124       -3.2264  -17.6284  -52.7305 C.3       23 UNK        -0.0398 
    125 S125       -1.5897  -18.3250  -53.1424 S.3       23 UNK        -0.2404 
    126 C126       -0.4684  -16.9529  -52.7315 C.3       23 UNK        -0.0205 
    127 H127       -1.4226   -7.6885  -46.9564 H         1 UNK         0.0600 
    128 H128       -0.2129   -7.7692  -45.6707 H         1 UNK         0.0600 
    129 H129       -1.3858   -9.0749  -45.8634 H         1 UNK         0.0600 
    130 H130       -0.4843  -10.8822  -46.7997 H         1 UNK         0.3000 
    131 H131        1.0509  -10.8353  -49.2227 H         1 UNK         0.0600 
    132 H132        0.5507  -13.1404  -47.2543 H         1 UNK         0.0800 
    133 H133        1.2279  -13.3173  -48.8548 H         1 UNK         0.0800 
    134 H134       -2.6548  -14.6592  -48.6278 H         1 UNK         0.0800 
    135 H135       -1.4602  -14.6080  -47.3570 H         1 UNK         0.0800 
    136 H136       -1.6541  -15.1224  -51.0872 H         1 UNK         0.1150 
    137 H137        1.0963  -18.4128  -51.0429 H         1 UNK         0.1150 
    138 H138        0.2020  -16.3027  -47.4192 H         1 UNK         0.1150 
    139 H139        2.6961  -18.2043  -48.7039 H         1 UNK         0.0800 
    140 H140        1.6634  -18.1445  -47.3036 H         1 UNK         0.0800 
    141 H141       -1.0292  -20.1478  -48.9097 H         1 UNK         0.0800 
    142 H142       -0.6505  -19.5007  -47.3353 H         1 UNK         0.0800 
    143 H143       -0.2127  -22.4587  -47.9570 H         1 UNK         0.0600 
    144 H144        0.2283  -20.9762  -45.6087 H         1 UNK         0.3000 
    145 H145       -0.2349  -23.6856  -43.2540 H         1 UNK         0.0600 
    146 H146        1.9999  -22.7837  -42.6077 H         1 UNK         0.0600 
    147 H147        2.0904  -23.7679  -44.0611 H         1 UNK         0.0600 
    148 H148        2.1562  -22.0182  -44.1876 H         1 UNK         0.0600 
    149 H149        0.2854  -20.9405  -42.7736 H         1 UNK         0.3000 
    150 H150       -3.1482  -19.8811  -42.5345 H         1 UNK         0.0600 
    151 H151       -2.5124  -20.8079  -40.3175 H         1 UNK         0.0600 
    152 H152       -2.2484  -19.0707  -40.3655 H         1 UNK         0.0600 
    153 H153       -0.8818  -20.1744  -40.4910 H         1 UNK         0.0600 
    154 H154       -0.7310  -18.4108  -42.2961 H         1 UNK         0.3000 
    155 H155       -0.2626  -17.6960  -45.7638 H         1 UNK         0.0600 
    156 H156       -1.0015  -15.9279  -43.3711 H         1 UNK         0.0600 
    157 H157       -1.8758  -16.0066  -44.8910 H         1 UNK         0.0600 
    158 H158       -0.2372  -15.3932  -44.8667 H         1 UNK         0.0600 
    159 H159        1.2117  -17.1220  -43.3466 H         1 UNK         0.3000 
    160 H160        3.2949  -20.0013  -43.5060 H         1 UNK         0.0600 
    161 H161        5.1716  -18.5002  -43.7769 H         1 UNK         0.0600 
    162 H162        4.1272  -17.1446  -44.1763 H         1 UNK         0.0600 
    163 H163        4.2830  -18.5001  -45.2917 H         1 UNK         0.0600 
    164 H164        3.3928  -17.5897  -41.9413 H         1 UNK         0.3000 
    165 H165        1.1737  -18.7144  -39.3873 H         1 UNK         0.0600 
    166 H166        3.1588  -18.1843  -38.0051 H         1 UNK         0.0600 
    167 H167        3.4073  -19.7026  -38.8516 H         1 UNK         0.0600 
    168 H168        4.2043  -18.2421  -39.4244 H         1 UNK         0.0600 
    169 H169        2.6399  -16.3031  -39.6469 H         1 UNK         0.3000 
    170 H170        0.2421  -14.4609  -41.5380 H         1 UNK         0.0600 
    171 H171       -0.8370  -14.5757  -39.3206 H         1 UNK         0.0600 
    172 H172        0.7250  -14.4446  -38.5210 H         1 UNK         0.0600 
    173 H173        0.1032  -13.1009  -39.4786 H         1 UNK         0.0600 
    174 H174        2.6584  -14.0042  -39.9119 H         1 UNK         0.3000 
    175 H175        1.6635  -15.0381  -43.2867 H         1 UNK         0.0600 
    176 H176        1.9727  -12.0087  -43.7663 H         1 UNK         0.0600 
    177 H177        0.8809  -13.0805  -44.6340 H         1 UNK         0.0600 
    178 H178        0.6031  -12.7279  -42.9385 H         1 UNK         0.0600 
    179 H179        4.2072  -13.8775  -44.0095 H         1 UNK         0.3000 
    180 H180        5.3158  -14.9577  -45.8169 H         1 UNK         0.0600 
    181 H181        3.4945  -15.6746  -48.2002 H         1 UNK         0.0600 
    182 H182        4.2378  -16.8555  -47.1289 H         1 UNK         0.0600 
    183 H183        5.2474  -15.8455  -48.1448 H         1 UNK         0.0600 
    184 H184        3.6095  -12.8865  -46.6544 H         1 UNK         0.3000 
    185 H185        5.1439  -10.7488  -47.4349 H         1 UNK         0.0600 
    186 H186        5.5605  -11.6824  -50.3217 H         1 UNK         0.0600 
    187 H187        5.4598  -10.0027  -49.7925 H         1 UNK         0.0600 
    188 H188        6.7937  -11.0101  -49.2604 H         1 UNK         0.0600 
    189 H189        3.2387  -11.4098  -49.5399 H         1 UNK         0.3000 
    190 H190       -2.6331  -20.7797  -45.8823 H         1 UNK         0.3000 
    191 H191       -4.8959  -21.4655  -47.4489 H         1 UNK         0.0600 
    192 H192       -4.6778  -20.8229  -44.4627 H         1 UNK         0.0600 
    193 H193       -6.1699  -20.8338  -45.3961 H         1 UNK         0.0600 
    194 H194       -4.9151  -19.6595  -45.7642 H         1 UNK         0.0600 
    195 H195       -3.4214  -23.1519  -44.6274 H         1 UNK         0.3000 
    196 H196       -5.4859  -25.1543  -44.5158 H         1 UNK         0.0600 
    197 H197       -4.0503  -26.1188  -42.7230 H         1 UNK         0.0600 
    198 H198       -4.3013  -24.3947  -42.4965 H         1 UNK         0.0600 
    199 H199       -2.7655  -24.9853  -43.1254 H         1 UNK         0.0600 
    200 H200       -1.9855  -25.3448  -45.4760 H         1 UNK         0.3000 
    201 H201       -2.3033  -28.2110  -46.0091 H         1 UNK         0.0600 
    202 H202       -0.3482  -27.3335  -44.7335 H         1 UNK         0.0600 
    203 H203        0.1784  -26.4254  -46.1497 H         1 UNK         0.0600 
    204 H204        0.1449  -28.1813  -46.1913 H         1 UNK         0.0600 
    205 H205       -1.5095  -25.2452  -47.8725 H         1 UNK         0.3000 
    206 H206       -1.2964  -26.7880  -50.3862 H         1 UNK         0.0600 
    207 H207       -0.4789  -24.6985  -51.3362 H         1 UNK         0.0600 
    208 H208       -0.9173  -23.7915  -49.9007 H         1 UNK         0.0600 
    209 H209        0.3666  -24.9941  -49.8280 H         1 UNK         0.0600 
    210 H210       -3.8171  -25.4338  -48.6409 H         1 UNK         0.3000 
    211 H211       -5.9352  -24.8488  -49.0051 H         1 UNK         0.0600 
    212 H212       -5.6883  -26.2986  -51.6916 H         1 UNK         0.0600 
    213 H213       -7.1795  -25.9051  -50.8491 H         1 UNK         0.0600 
    214 H214       -6.0616  -27.0635  -50.1484 H         1 UNK         0.0600 
    215 H215       -4.0650  -22.8833  -49.4610 H         1 UNK         0.3000 
    216 H216       -3.6750  -20.8635  -50.2589 H         1 UNK         0.0600 
    217 H217       -5.5272  -19.4737  -51.1622 H         1 UNK         0.0600 
    218 H218       -6.0625  -20.3795  -49.7591 H         1 UNK         0.0600 
    219 H219       -6.5306  -20.8961  -51.3748 H         1 UNK         0.0600 
    220 H220       -2.6721  -22.9692  -51.6101 H         1 UNK         0.3000 
    221 H221       -1.6292  -23.7120  -53.4104 H         1 UNK         0.0600 
    222 H222       -1.9699  -20.9075  -54.5922 H         1 UNK         0.0600 
    223 H223       -0.6544  -21.4119  -53.5336 H         1 UNK         0.0600 
    224 H224       -0.8276  -22.1301  -55.1283 H         1 UNK         0.0600 
    225 H225       -4.0442  -24.6262  -53.2303 H         1 UNK         0.3000 
    226 H226       -5.9170  -25.4294  -54.1302 H         1 UNK         0.0600 
    227 H227       -5.8242  -26.2896  -56.4485 H         1 UNK         0.0600 
    228 H228       -4.4230  -25.2892  -56.8053 H         1 UNK         0.0600 
    229 H229       -4.3004  -26.5991  -55.6318 H         1 UNK         0.0600 
    230 H230       -6.2249  -22.9485  -53.4851 H         1 UNK         0.3000 
    231 H231       -7.4271  -21.1448  -53.5505 H         1 UNK         0.0600 
    232 H232       -9.2787  -22.6646  -54.2681 H         1 UNK         0.0600 
    233 H233       -8.9325  -22.2876  -55.9563 H         1 UNK         0.0600 
    234 H234       -9.4940  -21.0295  -54.8677 H         1 UNK         0.0600 
    235 H235       -5.0943  -21.5224  -55.8054 H         1 UNK         0.3000 
    236 H236       -5.6224  -19.4347  -57.6738 H         1 UNK         0.0600 
    237 H237       -3.2478  -19.6658  -58.2652 H         1 UNK         0.0600 
    238 H238       -2.9192  -20.5601  -56.7901 H         1 UNK         0.0600 
    239 H239       -3.9478  -21.2622  -58.0403 H         1 UNK         0.0600 
    240 H240       -4.3390  -19.3510  -54.3757 H         1 UNK         0.3000 
    241 H241       -3.5002  -16.5492  -54.5536 H         1 UNK         0.0600 
    242 H242       -7.4047  -16.5072  -53.6763 H         1 UNK         0.3800 
    243 H243       -6.6602  -17.8431  -54.5148 H         1 UNK         0.3800 
    244 H244       -3.0907  -16.7457  -52.1063 H         1 UNK         0.0800 
    245 H245       -3.7504  -18.3505  -52.1067 H         1 UNK         0.0800 
    246 H246        0.5046  -17.1491  -53.1839 H         1 UNK         0.0800 
    247 H247       -0.8345  -16.0314  -53.1869 H         1 UNK         0.0800 
@<TRIPOS>BOND
     1    1    2 1    
     2    1  127 1    
     3    1  128 1    
     4    1  129 1    
     5    2    3 2    
     6    2    4 am   BACKBONE|DICT|INTERRES
     7    4    5 1    
     8    4  130 1    
     9    5    6 1    
    10    5   65 1    
    11    5  131 1    
    12    6    7 1    
    13    6  132 1    
    14    6  133 1    
    15    7    8 1    
    16    8    9 1    
    17    8  134 1    
    18    8  135 1    
    19    9   10 ar   
    20    9   14 ar   
    21   10   11 ar   
    22   10  136 1    
    23   11   12 ar   
    24   11  126 1    
    25   12   13 ar   
    26   12  137 1    
    27   13   14 ar   
    28   13   15 1    
    29   14  138 1    
    30   15   16 1    
    31   15  139 1    
    32   15  140 1    
    33   16   17 1    
    34   17   18 1    
    35   17  141 1    
    36   17  142 1    
    37   18   19 1    
    38   18   67 1    
    39   18  143 1    
    40   19   20 am   BACKBONE|DICT|INTERRES
    41   19  144 1    
    42   20   21 2    
    43   20   22 1    
    44   22   23 1    
    45   22   24 1    
    46   22  145 1    
    47   23  146 1    
    48   23  147 1    
    49   23  148 1    
    50   24   25 am   BACKBONE|DICT|INTERRES
    51   24  149 1    
    52   25   26 2    
    53   25   27 1    
    54   27   28 1    
    55   27   29 1    
    56   27  150 1    
    57   28  151 1    
    58   28  152 1    
    59   28  153 1    
    60   29   30 am   BACKBONE|DICT|INTERRES
    61   29  154 1    
    62   30   31 2    
    63   30   32 1    
    64   32   33 1    
    65   32   34 1    
    66   32  155 1    
    67   33  156 1    
    68   33  157 1    
    69   33  158 1    
    70   34   35 am   BACKBONE|DICT|INTERRES
    71   34  159 1    
    72   35   36 2    
    73   35   37 1    
    74   37   38 1    
    75   37   39 1    
    76   37  160 1    
    77   38  161 1    
    78   38  162 1    
    79   38  163 1    
    80   39   40 am   BACKBONE|DICT|INTERRES
    81   39  164 1    
    82   40   41 2    
    83   40   42 1    
    84   42   43 1    
    85   42   44 1    
    86   42  165 1    
    87   43  166 1    
    88   43  167 1    
    89   43  168 1    
    90   44   45 am   BACKBONE|DICT|INTERRES
    91   44  169 1    
    92   45   46 2    
    93   45   47 1    
    94   47   48 1    
    95   47   49 1    
    96   47  170 1    
    97   48  171 1    
    98   48  172 1    
    99   48  173 1    
   100   49   50 am   BACKBONE|DICT|INTERRES
   101   49  174 1    
   102   50   51 2    
   103   50   52 1    
   104   52   53 1    
   105   52   54 1    
   106   52  175 1    
   107   53  176 1    
   108   53  177 1    
   109   53  178 1    
   110   54   55 am   BACKBONE|DICT|INTERRES
   111   54  179 1    
   112   55   56 2    
   113   55   57 1    
   114   57   58 1    
   115   57   59 1    
   116   57  180 1    
   117   58  181 1    
   118   58  182 1    
   119   58  183 1    
   120   59   60 am   BACKBONE|DICT|INTERRES
   121   59  184 1    
   122   60   61 2    
   123   60   62 1    
   124   62   63 1    
   125   62   64 1    
   126   62  185 1    
   127   63  186 1    
   128   63  187 1    
   129   63  188 1    
   130   64   65 am   BACKBONE|DICT|INTERRES
   131   64  189 1    
   132   65   66 2    
   133   67   68 2    
   134   67   69 am   BACKBONE|DICT|INTERRES
   135   69   70 1    
   136   69  190 1    
   137   70   71 1    
   138   70   72 1    
   139   70  191 1    
   140   71  192 1    
   141   71  193 1    
   142   71  194 1    
   143   72   73 2    
   144   72   74 am   BACKBONE|DICT|INTERRES
   145   74   75 1    
   146   74  195 1    
   147   75   76 1    
   148   75   77 1    
   149   75  196 1    
   150   76  197 1    
   151   76  198 1    
   152   76  199 1    
   153   77   78 2    
   154   77   79 am   BACKBONE|DICT|INTERRES
   155   79   80 1    
   156   79  200 1    
   157   80   81 1    
   158   80   82 1    
   159   80  201 1    
   160   81  202 1    
   161   81  203 1    
   162   81  204 1    
   163   82   83 2    
   164   82   84 am   BACKBONE|DICT|INTERRES
   165   84   85 1    
   166   84  205 1    
   167   85   86 1    
   168   85   87 1    
   169   85  206 1    
   170   86  207 1    
   171   86  208 1    
   172   86  209 1    
   173   87   88 2    
   174   87   89 am   BACKBONE|DICT|INTERRES
   175   89   90 1    
   176   89  210 1    
   177   90   91 1    
   178   90   92 1    
   179   90  211 1    
   180   91  212 1    
   181   91  213 1    
   182   91  214 1    
   183   92   93 2    
   184   92   94 am   BACKBONE|DICT|INTERRES
   185   94   95 1    
   186   94  215 1    
   187   95   96 1    
   188   95   97 1    
   189   95  216 1    
   190   96  217 1    
   191   96  218 1    
   192   96  219 1    
   193   97   98 2    
   194   97   99 am   BACKBONE|DICT|INTERRES
   195   99  100 1    
   196   99  220 1    
   197  100  101 1    
   198  100  102 1    
   199  100  221 1    
   200  101  222 1    
   201  101  223 1    
   202  101  224 1    
   203  102  103 2    
   204  102  104 am   BACKBONE|DICT|INTERRES
   205  104  105 1    
   206  104  225 1    
   207  105  106 1    
   208  105  107 1    
   209  105  226 1    
   210  106  227 1    
   211  106  228 1    
   212  106  229 1    
   213  107  108 2    
   214  107  109 am   BACKBONE|DICT|INTERRES
   215  109  110 1    
   216  109  230 1    
   217  110  111 1    
   218  110  112 1    
   219  110  231 1    
   220  111  232 1    
   221  111  233 1    
   222  111  234 1    
   223  112  113 2    
   224  112  114 am   BACKBONE|DICT|INTERRES
   225  114  115 1    
   226  114  235 1    
   227  115  116 1    
   228  115  117 1    
   229  115  236 1    
   230  116  237 1    
   231  116  238 1    
   232  116  239 1    
   233  117  118 2    
   234  117  119 am   BACKBONE|DICT|INTERRES
   235  119  120 1    
   236  119  240 1    
   237  120  121 1    
   238  120  124 1    
   239  120  241 1    
   240  121  122 am   BACKBONE|DICT|INTERRES
   241  121  123 2    
   242  122  242 1    
   243  122  243 1    
   244  124  125 1    
   245  124  244 1    
   246  124  245 1    
   247  125  126 1    
   248  126  246 1    
   249  126  247 1    
@<TRIPOS>SUBSTRUCTURE
     1 UNK         1 GROUP             0       ****    0 ROOT    
