@<TRIPOS>MOLECULE
3R540
247   249    1
SMALL
USER_CHARGES


@<TRIPOS>ATOM
      1 CA         -2.7235  -11.9431  -50.0748 C.3       0 UNK        -0.1800 
      2 C          -1.9541  -12.5868  -48.9302 C.2       0 UNK         0.5000 
      3 O          -1.5425  -11.8931  -48.0009 O.2       0 UNK        -0.5000 
      4 N          -1.7708  -13.9118  -48.9874 N.am      1 UNK        -0.5000 
      5 CA         -1.0288  -14.7046  -47.9951 C.3       1 UNK         0.1400 
      6 C6         -0.3887  -15.9734  -48.6178 C.3       23 UNK        -0.0398 
      7 S7          0.8014  -15.5611  -49.9409 S.3       23 UNK        -0.2404 
      8 C8          0.0523  -16.3561  -51.3973 C.3       23 UNK        -0.0205 
      9 C9          0.6768  -17.7145  -51.6906 C.ar      23 UNK        -0.0193 
     10 C10         1.4626  -17.8817  -52.8344 C.ar      23 UNK        -0.1150 
     11 C11         2.0322  -19.1232  -53.1382 C.ar      23 UNK        -0.0193 
     12 C12         1.8468  -20.1886  -52.2535 C.ar      23 UNK        -0.1150 
     13 C13         1.0793  -20.0356  -51.0953 C.ar      23 UNK        -0.0193 
     14 C14         0.4737  -18.8016  -50.8336 C.ar      23 UNK        -0.1150 
     15 C15         0.8988  -21.2176  -50.1515 C.3       23 UNK        -0.0205 
     16 S16         1.9608  -21.1191  -48.6682 S.3       23 UNK        -0.2404 
     17 C17         1.0859  -19.9588  -47.5579 C.3       23 UNK        -0.0398 
     18 CA         -0.3315  -20.4357  -47.1676 C.3       11 UNK         0.1400 
     19 N          -0.3524  -21.7639  -46.5545 N.am      11 UNK        -0.5000 
     20 C          -1.4487  -22.5289  -46.4785 C.2       10 UNK         0.5000 
     21 O          -2.5463  -22.1860  -46.9133 O.2       10 UNK        -0.5000 
     22 CA         -1.3006  -23.8848  -45.7696 C.3       10 UNK         0.1400 
     23 CB         -0.6914  -24.9265  -46.7198 C.3       10 UNK        -0.1800 
     24 N          -0.4865  -23.7878  -44.5581 N.am      10 UNK        -0.5000 
     25 C          -0.8481  -23.1042  -43.4632 C.2       9 UNK         0.5000 
     26 O          -1.9262  -22.5236  -43.3433 O.2       9 UNK        -0.5000 
     27 CA          0.1877  -23.0186  -42.3287 C.3       9 UNK         0.1400 
     28 CB          0.0707  -24.2351  -41.3984 C.3       9 UNK        -0.1800 
     29 N           1.5714  -22.8965  -42.7972 N.am      9 UNK        -0.5000 
     30 C           2.0411  -21.8915  -43.5478 C.2       8 UNK         0.5000 
     31 O           1.3387  -20.9931  -44.0174 O.2       8 UNK        -0.5000 
     32 CA          3.5510  -21.8906  -43.8314 C.3       8 UNK         0.1400 
     33 CB          3.8298  -22.1551  -45.3182 C.3       8 UNK        -0.1800 
     34 N           4.1266  -20.6037  -43.4551 N.am      8 UNK        -0.5000 
     35 C           4.3002  -20.1801  -42.1987 C.2       7 UNK         0.5000 
     36 O           4.0963  -20.8860  -41.2099 O.2       7 UNK        -0.5000 
     37 CA          4.7675  -18.7260  -42.0020 C.3       7 UNK         0.1400 
     38 CB          6.2816  -18.5828  -42.2470 C.3       7 UNK        -0.1800 
     39 N           4.0017  -17.7280  -42.7598 N.am      7 UNK        -0.5000 
     40 C           3.9451  -17.5192  -44.0854 C.2       6 UNK         0.5000 
     41 O           4.5250  -18.2218  -44.9145 O.2       6 UNK        -0.5000 
     42 CA          3.0996  -16.3259  -44.5812 C.3       6 UNK         0.1400 
     43 CB          1.8027  -16.8207  -45.2346 C.3       6 UNK        -0.1800 
     44 N           2.7646  -15.3641  -43.5280 N.am      6 UNK        -0.5000 
     45 C           3.6485  -14.5468  -42.9334 C.2       5 UNK         0.5000 
     46 O           4.8216  -14.4420  -43.2932 O.2       5 UNK        -0.5000 
     47 CA          3.1644  -13.7302  -41.7153 C.3       5 UNK         0.1400 
     48 CB          2.9146  -12.2681  -42.1164 C.3       5 UNK        -0.1800 
     49 N           1.9534  -14.2521  -41.0779 N.am      5 UNK        -0.5000 
     50 C           1.7988  -15.4681  -40.5336 C.2       4 UNK         0.5000 
     51 O           2.7057  -16.2965  -40.4457 O.2       4 UNK        -0.5000 
     52 CA          0.3776  -15.8418  -40.0611 C.3       4 UNK         0.1400 
     53 CB          0.2687  -15.7141  -38.5344 C.3       4 UNK        -0.1800 
     54 N          -0.6922  -15.0508  -40.6853 N.am      4 UNK        -0.5000 
     55 C          -0.9574  -15.0160  -41.9982 C.2       3 UNK         0.5000 
     56 O          -0.3069  -15.6392  -42.8401 O.2       3 UNK        -0.5000 
     57 CA         -2.0877  -14.0784  -42.4413 C.3       3 UNK         0.1400 
     58 CB         -1.5766  -12.6299  -42.5501 C.3       3 UNK        -0.1800 
     59 N          -2.5931  -14.5245  -43.7327 N.am      3 UNK        -0.5000 
     60 C          -3.7869  -14.2432  -44.2596 C.2       2 UNK         0.5000 
     61 O          -4.6100  -13.5135  -43.7029 O.2       2 UNK        -0.5000 
     62 CA         -4.1174  -14.8807  -45.6324 C.3       2 UNK         0.1400 
     63 CB         -5.5076  -14.4632  -46.1496 C.3       2 UNK        -0.1800 
     64 N          -3.1346  -14.5988  -46.6842 N.am      2 UNK        -0.5000 
     65 C          -1.8814  -15.0704  -46.7591 C.2       1 UNK         0.5000 
     66 O          -1.3852  -15.7829  -45.8917 O.2       1 UNK        -0.5000 
     67 C          -1.0808  -19.4059  -46.3083 C.2       11 UNK         0.5000 
     68 O          -1.8647  -18.6337  -46.8628 O.2       11 UNK        -0.5000 
     69 N          -0.8892  -19.4785  -44.9819 N.am      12 UNK        -0.5000 
     70 CA         -1.6112  -18.6939  -43.9784 C.3       12 UNK         0.1400 
     71 CB         -1.0365  -18.9863  -42.5849 C.3       12 UNK        -0.1800 
     72 C          -3.1338  -18.9267  -44.0100 C.2       12 UNK         0.5000 
     73 O          -3.8969  -17.9825  -43.8049 O.2       12 UNK        -0.5000 
     74 N          -3.5569  -20.1551  -44.3424 N.am      13 UNK        -0.5000 
     75 CA         -4.9413  -20.5459  -44.6218 C.3       13 UNK         0.1400 
     76 CB         -5.0867  -22.0635  -44.4110 C.3       13 UNK        -0.1800 
     77 C          -5.4113  -20.0914  -46.0242 C.2       13 UNK         0.5000 
     78 O          -5.9651  -20.8878  -46.7856 O.2       13 UNK        -0.5000 
     79 N          -5.1800  -18.8073  -46.3315 N.am      14 UNK        -0.5000 
     80 CA         -5.5776  -18.0773  -47.5371 C.3       14 UNK         0.1400 
     81 CB         -7.0902  -17.7811  -47.4938 C.3       14 UNK        -0.1800 
     82 C          -5.1381  -18.7612  -48.8451 C.2       14 UNK         0.5000 
     83 O          -5.9650  -18.9803  -49.7320 O.2       14 UNK        -0.5000 
     84 N          -3.8438  -19.1028  -48.9281 N.am      15 UNK        -0.5000 
     85 CA         -3.2019  -19.7819  -50.0594 C.3       15 UNK         0.1400 
     86 CB         -3.1673  -18.8610  -51.2967 C.3       15 UNK        -0.1800 
     87 C          -3.8410  -21.1524  -50.3542 C.2       15 UNK         0.5000 
     88 O          -4.2183  -21.4182  -51.4928 O.2       15 UNK        -0.5000 
     89 N          -3.9937  -21.9773  -49.3090 N.am      16 UNK        -0.5000 
     90 CA         -4.6580  -23.2848  -49.3055 C.3       16 UNK         0.1400 
     91 CB         -3.8166  -24.3182  -50.0832 C.3       16 UNK        -0.1800 
     92 C          -6.1217  -23.2036  -49.7899 C.2       16 UNK         0.5000 
     93 O          -6.5572  -24.0381  -50.5849 O.2       16 UNK        -0.5000 
     94 N          -6.8375  -22.1758  -49.3087 N.am      17 UNK        -0.5000 
     95 CA         -8.1864  -21.7682  -49.7104 C.3       17 UNK         0.1400 
     96 CB         -9.2315  -22.8101  -49.2597 C.3       17 UNK        -0.1800 
     97 C          -8.2689  -21.4255  -51.2147 C.2       17 UNK         0.5000 
     98 O          -9.0873  -21.9950  -51.9398 O.2       17 UNK        -0.5000 
     99 N          -7.4086  -20.4892  -51.6399 N.am      18 UNK        -0.5000 
    100 CA        -7.2591  -19.9547  -52.9969 C.3       18 UNK         0.1400 
    101 CB        -8.5064  -19.1404  -53.4000 C.3       18 UNK        -0.1800 
    102 C         -6.8703  -21.0294  -54.0348 C.2       18 UNK         0.5000 
    103 O         -7.5239  -21.1644  -55.0720 O.2       18 UNK        -0.5000 
    104 N         -5.8010  -21.7694  -53.7329 N.am      19 UNK        -0.5000 
    105 CA        -5.1934  -22.7865  -54.5804 C.3       19 UNK         0.1400 
    106 CB        -5.7731  -24.1696  -54.2168 C.3       19 UNK        -0.1800 
    107 C         -3.6640  -22.6678  -54.4411 C.2       19 UNK         0.5000 
    108 O         -3.1220  -21.5984  -54.7284 O.2       19 UNK        -0.5000 
    109 N         -3.0035  -23.7497  -54.0007 N.am      20 UNK        -0.5000 
    110 CA        -1.5580  -23.8949  -53.7899 C.3       20 UNK         0.1400 
    111 CB        -1.0616  -22.9142  -52.7034 C.3       20 UNK        -0.1800 
    112 C         -0.7349  -23.8019  -55.0946 C.2       20 UNK         0.5000 
    113 O         -1.2965  -23.8047  -56.1934 O.2       20 UNK        -0.5000 
    114 N          0.5974  -23.7410  -54.9543 N.am      21 UNK        -0.5000 
    115 CA         1.5683  -23.6874  -56.0549 C.3       21 UNK         0.1400 
    116 CB         2.9864  -23.7779  -55.4700 C.3       21 UNK        -0.1800 
    117 C          1.4369  -22.4412  -56.9541 C.2       21 UNK         0.5000 
    118 O          1.8005  -22.4984  -58.1294 O.2       21 UNK        -0.5000 
    119 N          0.9045  -21.3530  -56.3878 N.am      22 UNK        -0.5000 
    120 CA         0.5491  -20.1152  -57.0951 C.3       22 UNK         0.1400 
    121 C         -0.8287  -20.1774  -57.8234 C.2       22 UNK         0.5000 
    122 N         -1.6021  -21.2532  -57.7308 N.am      22 UNK        -0.7600 
    123 O         -1.1981  -19.2306  -58.5128 O.2       22 UNK        -0.5000 
    124 C124        0.6462  -18.8928  -56.1452 C.3       23 UNK        -0.0398 
    125 S125        2.3725  -18.3678  -55.8545 S.3       23 UNK        -0.2404 
    126 C126        2.8786  -19.3389  -54.3912 C.3       23 UNK        -0.0205 
    127 H127       -3.0297  -12.6763  -50.8214 H         1 UNK         0.0600 
    128 H128       -2.1037  -11.1946  -50.5684 H         1 UNK         0.0600 
    129 H129       -3.6184  -11.4498  -49.6954 H         1 UNK         0.0600 
    130 H130       -2.1336  -14.4264  -49.7766 H         1 UNK         0.3000 
    131 H131       -0.2101  -14.0907  -47.6130 H         1 UNK         0.0600 
    132 H132        0.1615  -16.5375  -47.8630 H         1 UNK         0.0800 
    133 H133       -1.1607  -16.6492  -48.9883 H         1 UNK         0.0800 
    134 H134        0.1911  -15.6885  -52.2491 H         1 UNK         0.0800 
    135 H135       -1.0251  -16.4522  -51.2766 H         1 UNK         0.0800 
    136 H136        1.6237  -17.0418  -53.4948 H         1 UNK         0.1150 
    137 H137        2.3068  -21.1435  -52.4661 H         1 UNK         0.1150 
    138 H138       -0.1392  -18.6765  -49.9545 H         1 UNK         0.1150 
    139 H139       -0.1506  -21.3471  -49.8970 H         1 UNK         0.0800 
    140 H140        1.1741  -22.1372  -50.6681 H         1 UNK         0.0800 
    141 H141        1.0553  -18.9774  -48.0315 H         1 UNK         0.0800 
    142 H142        1.6955  -19.8360  -46.6614 H         1 UNK         0.0800 
    143 H143       -0.9123  -20.5059  -48.0817 H         1 UNK         0.0600 
    144 H144        0.5069  -22.0846  -46.1338 H         1 UNK         0.3000 
    145 H145       -2.2990  -24.2233  -45.4845 H         1 UNK         0.0600 
    146 H146       -1.2926  -25.0268  -47.6245 H         1 UNK         0.0600 
    147 H147        0.3193  -24.6535  -47.0262 H         1 UNK         0.0600 
    148 H148       -0.6464  -25.9093  -46.2504 H         1 UNK         0.0600 
    149 H149        0.4178  -24.2356  -44.5717 H         1 UNK         0.3000 
    150 H150       -0.0396  -22.1242  -41.7455 H         1 UNK         0.0600 
    151 H151       -0.9464  -24.3392  -41.0179 H         1 UNK         0.0600 
    152 H152        0.7297  -24.1369  -40.5355 H         1 UNK         0.0600 
    153 H153        0.3255  -25.1625  -41.9127 H         1 UNK         0.0600 
    154 H154        2.2199  -23.5902  -42.4537 H         1 UNK         0.3000 
    155 H155        4.0321  -22.6761  -43.2449 H         1 UNK         0.0600 
    156 H156        3.3781  -23.0930  -45.6437 H         1 UNK         0.0600 
    157 H157        4.9005  -22.2255  -45.5098 H         1 UNK         0.0600 
    158 H158        3.4324  -21.3604  -45.9494 H         1 UNK         0.0600 
    159 H159        4.2800  -19.9277  -44.1986 H         1 UNK         0.3000 
    160 H160        4.5886  -18.4842  -40.9530 H         1 UNK         0.0600 
    161 H161        6.6190  -17.5673  -42.0390 H         1 UNK         0.0600 
    162 H162        6.5559  -18.8236  -43.2743 H         1 UNK         0.0600 
    163 H163        6.8445  -19.2526  -41.5958 H         1 UNK         0.0600 
    164 H164        3.4573  -17.1051  -42.1721 H         1 UNK         0.3000 
    165 H165        3.6853  -15.8064  -45.3423 H         1 UNK         0.0600 
    166 H166        1.1753  -17.3642  -44.5273 H         1 UNK         0.0600 
    167 H167        1.2226  -15.9855  -45.6246 H         1 UNK         0.0600 
    168 H168        2.0145  -17.4865  -46.0708 H         1 UNK         0.0600 
    169 H169        1.8082  -15.3846  -43.1909 H         1 UNK         0.3000 
    170 H170        3.9639  -13.7530  -40.9723 H         1 UNK         0.0600 
    171 H171        2.1022  -12.1836  -42.8395 H         1 UNK         0.0600 
    172 H172        2.6588  -11.6583  -41.2497 H         1 UNK         0.0600 
    173 H173        3.8044  -11.8283  -42.5691 H         1 UNK         0.0600 
    174 H174        1.1441  -13.6506  -41.1049 H         1 UNK         0.3000 
    175 H175        0.2152  -16.8876  -40.3300 H         1 UNK         0.0600 
    176 H176        0.3961  -14.6815  -38.2071 H         1 UNK         0.0600 
    177 H177       -0.6998  -16.0641  -38.1767 H         1 UNK         0.0600 
    178 H178        1.0324  -16.3131  -38.0362 H         1 UNK         0.0600 
    179 H179       -1.2586  -14.4972  -40.0584 H         1 UNK         0.3000 
    180 H180       -2.8917  -14.1334  -41.7044 H         1 UNK         0.0600 
    181 H181       -0.7777  -12.5426  -43.2878 H         1 UNK         0.0600 
    182 H182       -1.1847  -12.2764  -41.5958 H         1 UNK         0.0600 
    183 H183       -2.3751  -11.9476  -42.8416 H         1 UNK         0.0600 
    184 H184       -1.9605  -15.1309  -44.2554 H         1 UNK         0.3000 
    185 H185       -4.1331  -15.9601  -45.4797 H         1 UNK         0.0600 
    186 H186       -5.7401  -14.9290  -47.1065 H         1 UNK         0.0600 
    187 H187       -6.2900  -14.7584  -45.4492 H         1 UNK         0.0600 
    188 H188       -5.5765  -13.3830  -46.2843 H         1 UNK         0.0600 
    189 H189       -3.4390  -13.9804  -47.4210 H         1 UNK         0.3000 
    190 H190       -0.1942  -20.1314  -44.6263 H         1 UNK         0.3000 
    191 H191       -1.4368  -17.6418  -44.1969 H         1 UNK         0.0600 
    192 H192       -1.1735  -20.0303  -42.3044 H         1 UNK         0.0600 
    193 H193        0.0299  -18.7626  -42.5443 H         1 UNK         0.0600 
    194 H194       -1.5252  -18.3731  -41.8270 H         1 UNK         0.0600 
    195 H195       -2.8615  -20.8811  -44.4650 H         1 UNK         0.3000 
    196 H196       -5.5911  -20.0518  -43.8970 H         1 UNK         0.0600 
    197 H197       -4.7885  -22.3513  -43.4027 H         1 UNK         0.0600 
    198 H198       -4.4750  -22.6290  -45.1137 H         1 UNK         0.0600 
    199 H199       -6.1212  -22.3817  -44.5455 H         1 UNK         0.0600 
    200 H200       -4.6953  -18.2628  -45.6264 H         1 UNK         0.3000 
    201 H201       -5.0470  -17.1263  -47.5102 H         1 UNK         0.0600 
    202 H202       -7.3931  -17.1608  -48.3383 H         1 UNK         0.0600 
    203 H203       -7.3602  -17.2434  -46.5849 H         1 UNK         0.0600 
    204 H204       -7.6813  -18.6970  -47.5298 H         1 UNK         0.0600 
    205 H205       -3.2442  -18.9061  -48.1292 H         1 UNK         0.3000 
    206 H206       -2.1714  -19.9744  -49.7751 H         1 UNK         0.0600 
    207 H207       -4.1603  -18.7059  -51.7194 H         1 UNK         0.0600 
    208 H208       -2.5415  -19.2877  -52.0819 H         1 UNK         0.0600 
    209 H209       -2.7604  -17.8839  -51.0457 H         1 UNK         0.0600 
    210 H210       -3.6334  -21.6940  -48.4015 H         1 UNK         0.3000 
    211 H211       -4.6962  -23.6043  -48.2631 H         1 UNK         0.0600 
    212 H212       -2.7889  -24.3429  -49.7211 H         1 UNK         0.0600 
    213 H213       -4.2269  -25.3218  -49.9672 H         1 UNK         0.0600 
    214 H214       -3.7924  -24.0971  -51.1503 H         1 UNK         0.0600 
    215 H215       -6.3902  -21.5733  -48.6231 H         1 UNK         0.3000 
    216 H216       -8.3953  -20.8422  -49.1724 H         1 UNK         0.0600 
    217 H217      -10.2433  -22.4583  -49.4639 H         1 UNK         0.0600 
    218 H218       -9.1074  -23.7628  -49.7751 H         1 UNK         0.0600 
    219 H219       -9.1629  -22.9971  -48.1881 H         1 UNK         0.0600 
    220 H220       -6.7857  -20.0743  -50.9482 H         1 UNK         0.3000 
    221 H221       -6.4190  -19.2600  -52.9529 H         1 UNK         0.0600 
    222 H222       -9.3918  -19.7701  -53.4910 H         1 UNK         0.0600 
    223 H223       -8.7218  -18.3625  -52.6675 H         1 UNK         0.0600 
    224 H224       -8.3560  -18.6474  -54.3611 H         1 UNK         0.0600 
    225 H225       -5.2881  -21.5754  -52.8706 H         1 UNK         0.3000 
    226 H226       -5.4222  -22.5803  -55.6279 H         1 UNK         0.0600 
    227 H227       -6.8539  -24.1858  -54.3587 H         1 UNK         0.0600 
    228 H228       -5.3567  -24.9545  -54.8492 H         1 UNK         0.0600 
    229 H229       -5.5780  -24.4300  -53.1757 H         1 UNK         0.0600 
    230 H230       -3.5481  -24.5810  -53.8230 H         1 UNK         0.3000 
    231 H231       -1.4147  -24.9080  -53.4118 H         1 UNK         0.0600 
    232 H232       -0.0500  -23.1609  -52.3842 H         1 UNK         0.0600 
    233 H233       -1.6917  -22.9559  -51.8157 H         1 UNK         0.0600 
    234 H234       -1.0538  -21.8817  -53.0548 H         1 UNK         0.0600 
    235 H235        0.9855  -23.7598  -54.0228 H         1 UNK         0.3000 
    236 H236        1.4016  -24.5621  -56.6869 H         1 UNK         0.0600 
    237 H237        3.1261  -24.7053  -54.9144 H         1 UNK         0.0600 
    238 H238        3.7378  -23.7591  -56.2607 H         1 UNK         0.0600 
    239 H239        3.1983  -22.9468  -54.7964 H         1 UNK         0.0600 
    240 H240        0.6154  -21.4119  -55.4235 H         1 UNK         0.3000 
    241 H241        1.2745  -19.9648  -57.8970 H         1 UNK         0.0600 
    242 H242       -2.4844  -21.2622  -58.2160 H         1 UNK         0.3800 
    243 H243       -1.3424  -22.0516  -57.1619 H         1 UNK         0.3800 
    244 H244        0.1411  -18.0257  -56.5740 H         1 UNK         0.0800 
    245 H245        0.1378  -19.0896  -55.2004 H         1 UNK         0.0800 
    246 H246        3.9108  -19.0820  -54.1511 H         1 UNK         0.0800 
    247 H247        2.8856  -20.3939  -54.6661 H         1 UNK         0.0800 
@<TRIPOS>BOND
     1    1    2 1    
     2    1  127 1    
     3    1  128 1    
     4    1  129 1    
     5    2    3 2    
     6    2    4 am   BACKBONE|DICT|INTERRES
     7    4    5 1    
     8    4  130 1    
     9    5    6 1    
    10    5   65 1    
    11    5  131 1    
    12    6    7 1    
    13    6  132 1    
    14    6  133 1    
    15    7    8 1    
    16    8    9 1    
    17    8  134 1    
    18    8  135 1    
    19    9   10 ar   
    20    9   14 ar   
    21   10   11 ar   
    22   10  136 1    
    23   11   12 ar   
    24   11  126 1    
    25   12   13 ar   
    26   12  137 1    
    27   13   14 ar   
    28   13   15 1    
    29   14  138 1    
    30   15   16 1    
    31   15  139 1    
    32   15  140 1    
    33   16   17 1    
    34   17   18 1    
    35   17  141 1    
    36   17  142 1    
    37   18   19 1    
    38   18   67 1    
    39   18  143 1    
    40   19   20 am   BACKBONE|DICT|INTERRES
    41   19  144 1    
    42   20   21 2    
    43   20   22 1    
    44   22   23 1    
    45   22   24 1    
    46   22  145 1    
    47   23  146 1    
    48   23  147 1    
    49   23  148 1    
    50   24   25 am   BACKBONE|DICT|INTERRES
    51   24  149 1    
    52   25   26 2    
    53   25   27 1    
    54   27   28 1    
    55   27   29 1    
    56   27  150 1    
    57   28  151 1    
    58   28  152 1    
    59   28  153 1    
    60   29   30 am   BACKBONE|DICT|INTERRES
    61   29  154 1    
    62   30   31 2    
    63   30   32 1    
    64   32   33 1    
    65   32   34 1    
    66   32  155 1    
    67   33  156 1    
    68   33  157 1    
    69   33  158 1    
    70   34   35 am   BACKBONE|DICT|INTERRES
    71   34  159 1    
    72   35   36 2    
    73   35   37 1    
    74   37   38 1    
    75   37   39 1    
    76   37  160 1    
    77   38  161 1    
    78   38  162 1    
    79   38  163 1    
    80   39   40 am   BACKBONE|DICT|INTERRES
    81   39  164 1    
    82   40   41 2    
    83   40   42 1    
    84   42   43 1    
    85   42   44 1    
    86   42  165 1    
    87   43  166 1    
    88   43  167 1    
    89   43  168 1    
    90   44   45 am   BACKBONE|DICT|INTERRES
    91   44  169 1    
    92   45   46 2    
    93   45   47 1    
    94   47   48 1    
    95   47   49 1    
    96   47  170 1    
    97   48  171 1    
    98   48  172 1    
    99   48  173 1    
   100   49   50 am   BACKBONE|DICT|INTERRES
   101   49  174 1    
   102   50   51 2    
   103   50   52 1    
   104   52   53 1    
   105   52   54 1    
   106   52  175 1    
   107   53  176 1    
   108   53  177 1    
   109   53  178 1    
   110   54   55 am   BACKBONE|DICT|INTERRES
   111   54  179 1    
   112   55   56 2    
   113   55   57 1    
   114   57   58 1    
   115   57   59 1    
   116   57  180 1    
   117   58  181 1    
   118   58  182 1    
   119   58  183 1    
   120   59   60 am   BACKBONE|DICT|INTERRES
   121   59  184 1    
   122   60   61 2    
   123   60   62 1    
   124   62   63 1    
   125   62   64 1    
   126   62  185 1    
   127   63  186 1    
   128   63  187 1    
   129   63  188 1    
   130   64   65 am   BACKBONE|DICT|INTERRES
   131   64  189 1    
   132   65   66 2    
   133   67   68 2    
   134   67   69 am   BACKBONE|DICT|INTERRES
   135   69   70 1    
   136   69  190 1    
   137   70   71 1    
   138   70   72 1    
   139   70  191 1    
   140   71  192 1    
   141   71  193 1    
   142   71  194 1    
   143   72   73 2    
   144   72   74 am   BACKBONE|DICT|INTERRES
   145   74   75 1    
   146   74  195 1    
   147   75   76 1    
   148   75   77 1    
   149   75  196 1    
   150   76  197 1    
   151   76  198 1    
   152   76  199 1    
   153   77   78 2    
   154   77   79 am   BACKBONE|DICT|INTERRES
   155   79   80 1    
   156   79  200 1    
   157   80   81 1    
   158   80   82 1    
   159   80  201 1    
   160   81  202 1    
   161   81  203 1    
   162   81  204 1    
   163   82   83 2    
   164   82   84 am   BACKBONE|DICT|INTERRES
   165   84   85 1    
   166   84  205 1    
   167   85   86 1    
   168   85   87 1    
   169   85  206 1    
   170   86  207 1    
   171   86  208 1    
   172   86  209 1    
   173   87   88 2    
   174   87   89 am   BACKBONE|DICT|INTERRES
   175   89   90 1    
   176   89  210 1    
   177   90   91 1    
   178   90   92 1    
   179   90  211 1    
   180   91  212 1    
   181   91  213 1    
   182   91  214 1    
   183   92   93 2    
   184   92   94 am   BACKBONE|DICT|INTERRES
   185   94   95 1    
   186   94  215 1    
   187   95   96 1    
   188   95   97 1    
   189   95  216 1    
   190   96  217 1    
   191   96  218 1    
   192   96  219 1    
   193   97   98 2    
   194   97   99 am   BACKBONE|DICT|INTERRES
   195   99  100 1    
   196   99  220 1    
   197  100  101 1    
   198  100  102 1    
   199  100  221 1    
   200  101  222 1    
   201  101  223 1    
   202  101  224 1    
   203  102  103 2    
   204  102  104 am   BACKBONE|DICT|INTERRES
   205  104  105 1    
   206  104  225 1    
   207  105  106 1    
   208  105  107 1    
   209  105  226 1    
   210  106  227 1    
   211  106  228 1    
   212  106  229 1    
   213  107  108 2    
   214  107  109 am   BACKBONE|DICT|INTERRES
   215  109  110 1    
   216  109  230 1    
   217  110  111 1    
   218  110  112 1    
   219  110  231 1    
   220  111  232 1    
   221  111  233 1    
   222  111  234 1    
   223  112  113 2    
   224  112  114 am   BACKBONE|DICT|INTERRES
   225  114  115 1    
   226  114  235 1    
   227  115  116 1    
   228  115  117 1    
   229  115  236 1    
   230  116  237 1    
   231  116  238 1    
   232  116  239 1    
   233  117  118 2    
   234  117  119 am   BACKBONE|DICT|INTERRES
   235  119  120 1    
   236  119  240 1    
   237  120  121 1    
   238  120  124 1    
   239  120  241 1    
   240  121  122 am   BACKBONE|DICT|INTERRES
   241  121  123 2    
   242  122  242 1    
   243  122  243 1    
   244  124  125 1    
   245  124  244 1    
   246  124  245 1    
   247  125  126 1    
   248  126  246 1    
   249  126  247 1    
@<TRIPOS>SUBSTRUCTURE
     1 UNK         1 GROUP             0       ****    0 ROOT    
