@<TRIPOS>MOLECULE
3R540
247   249    1
SMALL
USER_CHARGES


@<TRIPOS>ATOM
      1 CA          4.5921  -11.7163  -47.6267 C.3       0 UNK        -0.1800 
      2 C           3.3618  -12.5661  -47.3429 C.2       0 UNK         0.5000 
      3 O           3.1344  -12.9469  -46.1958 O.2       0 UNK        -0.5000 
      4 N           2.5756  -12.8675  -48.3833 N.am      1 UNK        -0.5000 
      5 CA          1.3320  -13.6402  -48.3211 C.3       1 UNK         0.1400 
      6 C6          0.9146  -14.1634  -49.7182 C.3       23 UNK        -0.0398 
      7 S7          2.0692  -15.4263  -50.3545 S.3       23 UNK        -0.2404 
      8 C8          1.1308  -16.9268  -49.9471 C.3       23 UNK        -0.0205 
      9 C9          1.8582  -18.1956  -50.3617 C.ar      23 UNK        -0.0193 
     10 C10         1.6035  -18.7701  -51.6089 C.ar      23 UNK        -0.1150 
     11 C11         2.2497  -19.9472  -51.9951 C.ar      23 UNK        -0.0193 
     12 C12         3.1586  -20.5513  -51.1229 C.ar      23 UNK        -0.1150 
     13 C13         3.4249  -19.9862  -49.8722 C.ar      23 UNK        -0.0193 
     14 C14         2.7707  -18.8074  -49.4967 C.ar      23 UNK        -0.1150 
     15 C15         4.4464  -20.6359  -48.9491 C.3       23 UNK        -0.0205 
     16 S16         3.7906  -22.1157  -48.1125 S.3       23 UNK        -0.2404 
     17 C17         2.6855  -21.3645  -46.8724 C.3       23 UNK        -0.0398 
     18 CA          1.3266  -22.0863  -46.7154 C.3       11 UNK         0.1400 
     19 N           0.6414  -21.6403  -45.4991 N.am      11 UNK        -0.5000 
     20 C          -0.4911  -22.1533  -44.9990 C.2       10 UNK         0.5000 
     21 O          -1.0755  -23.1241  -45.4780 O.2       10 UNK        -0.5000 
     22 CA         -1.1002  -21.4169  -43.7902 C.3       10 UNK         0.1400 
     23 CB         -0.4177  -21.8356  -42.4794 C.3       10 UNK        -0.1800 
     24 N          -1.0290  -19.9622  -43.9464 N.am      10 UNK        -0.5000 
     25 C          -1.7248  -19.2748  -44.8639 C.2       9 UNK         0.5000 
     26 O          -2.5593  -19.7868  -45.6086 O.2       9 UNK        -0.5000 
     27 CA         -1.3926  -17.7807  -45.0196 C.3       9 UNK         0.1400 
     28 CB         -2.2254  -16.9228  -44.0583 C.3       9 UNK        -0.1800 
     29 N           0.0337  -17.5116  -44.8280 N.am      9 UNK        -0.5000 
     30 C           0.9754  -17.8698  -45.7131 C.2       8 UNK         0.5000 
     31 O           0.7202  -18.4228  -46.7808 O.2       8 UNK        -0.5000 
     32 CA          2.4472  -17.6244  -45.3299 C.3       8 UNK         0.1400 
     33 CB          2.9002  -16.2303  -45.7769 C.3       8 UNK        -0.1800 
     34 N           2.6991  -17.7901  -43.8989 N.am      8 UNK        -0.5000 
     35 C           2.5844  -18.9559  -43.2489 C.2       7 UNK         0.5000 
     36 O           2.2852  -20.0125  -43.8033 O.2       7 UNK        -0.5000 
     37 CA          2.7942  -18.9375  -41.7240 C.3       7 UNK         0.1400 
     38 CB          4.2533  -19.2727  -41.3828 C.3       7 UNK        -0.1800 
     39 N           2.4274  -17.6753  -41.0738 N.am      7 UNK        -0.5000 
     40 C           1.2137  -17.1029  -41.1005 C.2       6 UNK         0.5000 
     41 O           0.2751  -17.5404  -41.7658 O.2       6 UNK        -0.5000 
     42 CA          1.0121  -15.8279  -40.2570 C.3       6 UNK         0.1400 
     43 CB          0.0278  -16.1147  -39.1131 C.3       6 UNK        -0.1800 
     44 N           2.2675  -15.3467  -39.6678 N.am      6 UNK        -0.5000 
     45 C           3.1497  -14.4505  -40.1406 C.2       5 UNK         0.5000 
     46 O           4.2410  -14.3089  -39.5918 O.2       5 UNK        -0.5000 
     47 CA          2.8236  -13.5446  -41.3529 C.3       5 UNK         0.1400 
     48 CB          2.8839  -14.3045  -42.6873 C.3       5 UNK        -0.1800 
     49 N           1.5744  -12.7856  -41.2473 N.am      5 UNK        -0.5000 
     50 C           1.2787  -11.9153  -40.2672 C.2       4 UNK         0.5000 
     51 O           2.0365  -11.6611  -39.3303 O.2       4 UNK        -0.5000 
     52 CA         -0.0713  -11.1708  -40.3457 C.3       4 UNK         0.1400 
     53 CB          0.1495   -9.7017  -40.7407 C.3       4 UNK        -0.1800 
     54 N          -1.0142  -11.7658  -41.2910 N.am      4 UNK        -0.5000 
     55 C          -1.7131  -12.8889  -41.0827 C.2       3 UNK         0.5000 
     56 O          -1.6992  -13.5102  -40.0215 O.2       3 UNK        -0.5000 
     57 CA         -2.5575  -13.4184  -42.2604 C.3       3 UNK         0.1400 
     58 CB         -4.0548  -13.2013  -41.9941 C.3       3 UNK        -0.1800 
     59 N          -2.2151  -12.8214  -43.5575 N.am      3 UNK        -0.5000 
     60 C          -1.0576  -13.0014  -44.2058 C.2       2 UNK         0.5000 
     61 O          -0.1359  -13.7018  -43.7792 O.2       2 UNK        -0.5000 
     62 CA         -0.8855  -12.2190  -45.5134 C.3       2 UNK         0.1400 
     63 CB         -0.4414  -10.7733  -45.2256 C.3       2 UNK        -0.1800 
     64 N           0.1151  -12.8863  -46.3349 N.am      2 UNK        -0.5000 
     65 C           0.2122  -12.8067  -47.6653 C.2       1 UNK         0.5000 
     66 O          -0.5236  -12.1074  -48.3647 O.2       1 UNK        -0.5000 
     67 C           0.4319  -21.9475  -47.9683 C.2       11 UNK         0.5000 
     68 O           0.3789  -22.8745  -48.7768 O.2       11 UNK        -0.5000 
     69 N          -0.2997  -20.8277  -48.0729 N.am      12 UNK        -0.5000 
     70 CA         -1.3216  -20.6033  -49.0940 C.3       12 UNK         0.1400 
     71 CB         -1.8230  -19.1534  -49.0233 C.3       12 UNK        -0.1800 
     72 C          -2.4945  -21.5894  -48.9610 C.2       12 UNK         0.5000 
     73 O          -2.8188  -22.2735  -49.9293 O.2       12 UNK        -0.5000 
     74 N          -3.0823  -21.6753  -47.7574 N.am      13 UNK        -0.5000 
     75 CA         -4.2311  -22.5293  -47.4385 C.3       13 UNK         0.1400 
     76 CB         -4.6662  -22.2859  -45.9867 C.3       13 UNK        -0.1800 
     77 C          -3.9927  -24.0308  -47.6846 C.2       13 UNK         0.5000 
     78 O          -4.9278  -24.7366  -48.0648 O.2       13 UNK        -0.5000 
     79 N          -2.7418  -24.4833  -47.5200 N.am      14 UNK        -0.5000 
     80 CA         -2.2827  -25.8455  -47.8032 C.3       14 UNK         0.1400 
     81 CB         -0.8216  -25.9906  -47.3514 C.3       14 UNK        -0.1800 
     82 C          -2.4449  -26.2858  -49.2748 C.2       14 UNK         0.5000 
     83 O          -2.4379  -27.4888  -49.5386 O.2       14 UNK        -0.5000 
     84 N          -2.6253  -25.3315  -50.2018 N.am      15 UNK        -0.5000 
     85 CA         -2.9652  -25.5906  -51.6030 C.3       15 UNK         0.1400 
     86 CB         -2.5960  -24.3647  -52.4494 C.3       15 UNK        -0.1800 
     87 C          -4.4388  -26.0104  -51.8168 C.2       15 UNK         0.5000 
     88 O          -4.7874  -26.3879  -52.9363 O.2       15 UNK        -0.5000 
     89 N          -5.2641  -25.9676  -50.7562 N.am      16 UNK        -0.5000 
     90 CA         -6.6142  -26.5285  -50.6296 C.3       16 UNK         0.1400 
     91 CB         -6.5444  -28.0700  -50.5867 C.3       16 UNK        -0.1800 
     92 C          -7.6049  -25.9979  -51.6831 C.2       16 UNK         0.5000 
     93 O          -8.2064  -24.9450  -51.4744 O.2       16 UNK        -0.5000 
     94 N          -7.7478  -26.7148  -52.8058 N.am      17 UNK        -0.5000 
     95 CA         -8.5601  -26.3165  -53.9583 C.3       17 UNK         0.1400 
     96 CB         -8.6076  -27.4800  -54.9601 C.3       17 UNK        -0.1800 
     97 C          -8.0562  -25.0307  -54.6462 C.2       17 UNK         0.5000 
     98 O          -8.8485  -24.3371  -55.2846 O.2       17 UNK        -0.5000 
     99 N          -6.7618  -24.7290  -54.4837 N.am      18 UNK        -0.5000 
    100 CA        -6.0977  -23.5271  -54.9783 C.3       18 UNK         0.1400 
    101 CB        -4.9736  -23.9476  -55.9417 C.3       18 UNK        -0.1800 
    102 C         -5.5826  -22.6665  -53.8080 C.2       18 UNK         0.5000 
    103 O         -4.5323  -22.0398  -53.9337 O.2       18 UNK        -0.5000 
    104 N         -6.3201  -22.6353  -52.6847 N.am      19 UNK        -0.5000 
    105 CA        -5.9658  -21.9165  -51.4497 C.3       19 UNK         0.1400 
    106 CB        -7.0239  -22.1857  -50.3686 C.3       19 UNK        -0.1800 
    107 C         -5.7294  -20.3979  -51.5985 C.2       19 UNK         0.5000 
    108 O         -5.0816  -19.7985  -50.7387 O.2       19 UNK        -0.5000 
    109 N         -6.2337  -19.7999  -52.6855 N.am      20 UNK        -0.5000 
    110 CA        -5.9827  -18.4207  -53.0997 C.3       20 UNK         0.1400 
    111 CB        -7.0456  -18.0204  -54.1382 C.3       20 UNK        -0.1800 
    112 C         -4.5419  -18.2438  -53.6287 C.2       20 UNK         0.5000 
    113 O         -4.3375  -18.0832  -54.8338 O.2       20 UNK        -0.5000 
    114 N         -3.5697  -18.3123  -52.7078 N.am      21 UNK        -0.5000 
    115 CA        -2.1275  -18.1177  -52.9044 C.3       21 UNK         0.1400 
    116 CB        -1.8189  -16.6239  -53.1309 C.3       21 UNK        -0.1800 
    117 C         -1.5165  -19.0319  -53.9883 C.2       21 UNK         0.5000 
    118 O         -0.6768  -18.5870  -54.7724 O.2       21 UNK        -0.5000 
    119 N         -1.9611  -20.2941  -54.0061 N.am      22 UNK        -0.5000 
    120 CA        -1.5659  -21.3505  -54.9545 C.3       22 UNK         0.1400 
    121 C         -2.1463  -21.1731  -56.3916 C.2       22 UNK         0.5000 
    122 N         -3.0662  -20.2460  -56.6369 N.am      22 UNK        -0.7600 
    123 O         -1.7746  -21.9074  -57.3033 O.2       22 UNK        -0.5000 
    124 C124       -0.0405  -21.6655  -54.9709 C.3       23 UNK        -0.0398 
    125 S125        0.6977  -21.8318  -53.3041 S.3       23 UNK        -0.2404 
    126 C126        1.9839  -20.5434  -53.3667 C.3       23 UNK        -0.0205 
    127 H127        4.6732  -11.4588  -48.6830 H         1 UNK         0.0600 
    128 H128        5.4941  -12.2556  -47.3375 H         1 UNK         0.0600 
    129 H129        4.5480  -10.7907  -47.0527 H         1 UNK         0.0600 
    130 H130        2.8198  -12.5181  -49.2986 H         1 UNK         0.3000 
    131 H131        1.4963  -14.5099  -47.6843 H         1 UNK         0.0600 
    132 H132        0.8692  -13.3441  -50.4377 H         1 UNK         0.0800 
    133 H133       -0.0913  -14.5867  -49.6885 H         1 UNK         0.0800 
    134 H134        0.1594  -16.8803  -50.4415 H         1 UNK         0.0800 
    135 H135        0.9343  -16.9430  -48.8755 H         1 UNK         0.0800 
    136 H136        0.9075  -18.2953  -52.2849 H         1 UNK         0.1150 
    137 H137        3.6632  -21.4603  -51.4193 H         1 UNK         0.1150 
    138 H138        2.9714  -18.3603  -48.5337 H         1 UNK         0.1150 
    139 H139        5.3209  -20.9253  -49.5336 H         1 UNK         0.0800 
    140 H140        4.8049  -19.9235  -48.2043 H         1 UNK         0.0800 
    141 H141        2.5277  -20.3129  -47.1031 H         1 UNK         0.0800 
    142 H142        3.2244  -21.3838  -45.9244 H         1 UNK         0.0800 
    143 H143        1.5276  -23.1513  -46.5809 H         1 UNK         0.0600 
    144 H144        1.0875  -20.8842  -44.9875 H         1 UNK         0.3000 
    145 H145       -2.1531  -21.6982  -43.7238 H         1 UNK         0.0600 
    146 H146       -0.8727  -21.3393  -41.6221 H         1 UNK         0.0600 
    147 H147        0.6458  -21.5986  -42.4780 H         1 UNK         0.0600 
    148 H148       -0.5119  -22.9106  -42.3206 H         1 UNK         0.0600 
    149 H149       -0.3610  -19.4658  -43.3732 H         1 UNK         0.3000 
    150 H150       -1.6601  -17.4892  -46.0377 H         1 UNK         0.0600 
    151 H151       -3.2921  -17.0942  -44.2077 H         1 UNK         0.0600 
    152 H152       -2.0410  -15.8637  -44.2299 H         1 UNK         0.0600 
    153 H153       -2.0019  -17.1424  -43.0145 H         1 UNK         0.0600 
    154 H154        0.3076  -17.1264  -43.9331 H         1 UNK         0.3000 
    155 H155        3.0585  -18.3579  -45.8583 H         1 UNK         0.0600 
    156 H156        2.8747  -16.1507  -46.8639 H         1 UNK         0.0600 
    157 H157        3.9243  -16.0229  -45.4662 H         1 UNK         0.0600 
    158 H158        2.2600  -15.4473  -45.3693 H         1 UNK         0.0600 
    159 H159        2.9528  -16.9673  -43.3751 H         1 UNK         0.3000 
    160 H160        2.1572  -19.7179  -41.3029 H         1 UNK         0.0600 
    161 H161        4.9381  -18.5050  -41.7453 H         1 UNK         0.0600 
    162 H162        4.5530  -20.2199  -41.8337 H         1 UNK         0.0600 
    163 H163        4.3953  -19.3690  -40.3062 H         1 UNK         0.0600 
    164 H164        3.1419  -17.2411  -40.5081 H         1 UNK         0.3000 
    165 H165        0.5606  -15.0807  -40.9059 H         1 UNK         0.0600 
    166 H166       -0.1350  -15.2261  -38.5028 H         1 UNK         0.0600 
    167 H167       -0.9448  -16.4204  -39.5015 H         1 UNK         0.0600 
    168 H168        0.3863  -16.9097  -38.4581 H         1 UNK         0.0600 
    169 H169        2.5331  -15.8330  -38.8241 H         1 UNK         0.3000 
    170 H170        3.6212  -12.7995  -41.3912 H         1 UNK         0.0600 
    171 H171        3.7875  -14.9112  -42.7557 H         1 UNK         0.0600 
    172 H172        2.0276  -14.9602  -42.8304 H         1 UNK         0.0600 
    173 H173        2.9006  -13.6084  -43.5260 H         1 UNK         0.0600 
    174 H174        0.8983  -12.9350  -41.9858 H         1 UNK         0.3000 
    175 H175       -0.5163  -11.1939  -39.3486 H         1 UNK         0.0600 
    176 H176        0.5895   -9.6142  -41.7350 H         1 UNK         0.0600 
    177 H177       -0.7889   -9.1468  -40.7379 H         1 UNK         0.0600 
    178 H178        0.8208   -9.2037  -40.0397 H         1 UNK         0.0600 
    179 H179       -1.1005  -11.3128  -42.1880 H         1 UNK         0.3000 
    180 H180       -2.3747  -14.4925  -42.3196 H         1 UNK         0.0600 
    181 H181       -4.6641  -13.6491  -42.7794 H         1 UNK         0.0600 
    182 H182       -4.3036  -12.1409  -41.9371 H         1 UNK         0.0600 
    183 H183       -4.3559  -13.6603  -41.0513 H         1 UNK         0.0600 
    184 H184       -2.9160  -12.2202  -43.9672 H         1 UNK         0.3000 
    185 H185       -1.8421  -12.2139  -46.0402 H         1 UNK         0.0600 
    186 H186        0.5152  -10.7456  -44.7017 H         1 UNK         0.0600 
    187 H187       -0.3322  -10.2019  -46.1475 H         1 UNK         0.0600 
    188 H188       -1.1722  -10.2502  -44.6078 H         1 UNK         0.0600 
    189 H189        0.7772  -13.4479  -45.8115 H         1 UNK         0.3000 
    190 H190       -0.1443  -20.0759  -47.4091 H         1 UNK         0.3000 
    191 H191       -0.8578  -20.7561  -50.0713 H         1 UNK         0.0600 
    192 H192       -1.0061  -18.4496  -49.1556 H         1 UNK         0.0600 
    193 H193       -2.2969  -18.9296  -48.0688 H         1 UNK         0.0600 
    194 H194       -2.5595  -18.9569  -49.8021 H         1 UNK         0.0600 
    195 H195       -2.7599  -21.0637  -47.0117 H         1 UNK         0.3000 
    196 H196       -5.0483  -22.2221  -48.0923 H         1 UNK         0.0600 
    197 H197       -4.9368  -21.2423  -45.8253 H         1 UNK         0.0600 
    198 H198       -3.8729  -22.5402  -45.2836 H         1 UNK         0.0600 
    199 H199       -5.5379  -22.8901  -45.7322 H         1 UNK         0.0600 
    200 H200       -2.0492  -23.8434  -47.1450 H         1 UNK         0.3000 
    201 H201       -2.8911  -26.5225  -47.2004 H         1 UNK         0.0600 
    202 H202       -0.7107  -25.7637  -46.2911 H         1 UNK         0.0600 
    203 H203       -0.1616  -25.3259  -47.9082 H         1 UNK         0.0600 
    204 H204       -0.4638  -27.0097  -47.5032 H         1 UNK         0.0600 
    205 H205       -2.6113  -24.3571  -49.9170 H         1 UNK         0.3000 
    206 H206       -2.3505  -26.4226  -51.9522 H         1 UNK         0.0600 
    207 H207       -3.1894  -23.4954  -52.1745 H         1 UNK         0.0600 
    208 H208       -1.5452  -24.1005  -52.3281 H         1 UNK         0.0600 
    209 H209       -2.7619  -24.5538  -53.5098 H         1 UNK         0.0600 
    210 H210       -4.9008  -25.5709  -49.8954 H         1 UNK         0.3000 
    211 H211       -6.9915  -26.1936  -49.6621 H         1 UNK         0.0600 
    212 H212       -6.0807  -28.4905  -51.4795 H         1 UNK         0.0600 
    213 H213       -7.5396  -28.5063  -50.4919 H         1 UNK         0.0600 
    214 H214       -5.9627  -28.4061  -49.7281 H         1 UNK         0.0600 
    215 H215       -7.1812  -27.5434  -52.9166 H         1 UNK         0.3000 
    216 H216       -9.5752  -26.1242  -53.6047 H         1 UNK         0.0600 
    217 H217       -9.2279  -27.2292  -55.8215 H         1 UNK         0.0600 
    218 H218       -9.0317  -28.3756  -54.5056 H         1 UNK         0.0600 
    219 H219       -7.6133  -27.7297  -55.3327 H         1 UNK         0.0600 
    220 H220       -6.1836  -25.3604  -53.9356 H         1 UNK         0.3000 
    221 H221       -6.7978  -22.9011  -55.5346 H         1 UNK         0.0600 
    222 H222       -4.2072  -24.5340  -55.4346 H         1 UNK         0.0600 
    223 H223       -5.3648  -24.5489  -56.7624 H         1 UNK         0.0600 
    224 H224       -4.4883  -23.0777  -56.3846 H         1 UNK         0.0600 
    225 H225       -7.1600  -23.1982  -52.6442 H         1 UNK         0.3000 
    226 H226       -5.0267  -22.3411  -51.1006 H         1 UNK         0.0600 
    227 H227       -6.9569  -23.2106  -50.0051 H         1 UNK         0.0600 
    228 H228       -6.8871  -21.5374  -49.5023 H         1 UNK         0.0600 
    229 H229       -8.0347  -22.0204  -50.7427 H         1 UNK         0.0600 
    230 H230       -6.7285  -20.3794  -53.3464 H         1 UNK         0.3000 
    231 H231       -6.1003  -17.7666  -52.2331 H         1 UNK         0.0600 
    232 H232       -6.8999  -16.9913  -54.4690 H         1 UNK         0.0600 
    233 H233       -8.0500  -18.0866  -53.7196 H         1 UNK         0.0600 
    234 H234       -7.0082  -18.6586  -55.0221 H         1 UNK         0.0600 
    235 H235       -3.8610  -18.5544  -51.7658 H         1 UNK         0.3000 
    236 H236       -1.6480  -18.4104  -51.9700 H         1 UNK         0.0600 
    237 H237       -2.2427  -16.2640  -54.0690 H         1 UNK         0.0600 
    238 H238       -2.2212  -16.0118  -52.3237 H         1 UNK         0.0600 
    239 H239       -0.7436  -16.4444  -53.1651 H         1 UNK         0.0600 
    240 H240       -2.7019  -20.5586  -53.3712 H         1 UNK         0.3000 
    241 H241       -2.0507  -22.2506  -54.5788 H         1 UNK         0.0600 
    242 H242       -3.4347  -20.1504  -57.5692 H         1 UNK         0.3800 
    243 H243       -3.3904  -19.6252  -55.9046 H         1 UNK         0.3800 
    244 H244        0.4928  -20.9074  -55.5453 H         1 UNK         0.0800 
    245 H245        0.1358  -22.6049  -55.4972 H         1 UNK         0.0800 
    246 H246        1.6918  -19.7442  -54.0487 H         1 UNK         0.0800 
    247 H247        2.9001  -20.9713  -53.7759 H         1 UNK         0.0800 
@<TRIPOS>BOND
     1    1    2 1    
     2    1  127 1    
     3    1  128 1    
     4    1  129 1    
     5    2    3 2    
     6    2    4 am   BACKBONE|DICT|INTERRES
     7    4    5 1    
     8    4  130 1    
     9    5    6 1    
    10    5   65 1    
    11    5  131 1    
    12    6    7 1    
    13    6  132 1    
    14    6  133 1    
    15    7    8 1    
    16    8    9 1    
    17    8  134 1    
    18    8  135 1    
    19    9   10 ar   
    20    9   14 ar   
    21   10   11 ar   
    22   10  136 1    
    23   11   12 ar   
    24   11  126 1    
    25   12   13 ar   
    26   12  137 1    
    27   13   14 ar   
    28   13   15 1    
    29   14  138 1    
    30   15   16 1    
    31   15  139 1    
    32   15  140 1    
    33   16   17 1    
    34   17   18 1    
    35   17  141 1    
    36   17  142 1    
    37   18   19 1    
    38   18   67 1    
    39   18  143 1    
    40   19   20 am   BACKBONE|DICT|INTERRES
    41   19  144 1    
    42   20   21 2    
    43   20   22 1    
    44   22   23 1    
    45   22   24 1    
    46   22  145 1    
    47   23  146 1    
    48   23  147 1    
    49   23  148 1    
    50   24   25 am   BACKBONE|DICT|INTERRES
    51   24  149 1    
    52   25   26 2    
    53   25   27 1    
    54   27   28 1    
    55   27   29 1    
    56   27  150 1    
    57   28  151 1    
    58   28  152 1    
    59   28  153 1    
    60   29   30 am   BACKBONE|DICT|INTERRES
    61   29  154 1    
    62   30   31 2    
    63   30   32 1    
    64   32   33 1    
    65   32   34 1    
    66   32  155 1    
    67   33  156 1    
    68   33  157 1    
    69   33  158 1    
    70   34   35 am   BACKBONE|DICT|INTERRES
    71   34  159 1    
    72   35   36 2    
    73   35   37 1    
    74   37   38 1    
    75   37   39 1    
    76   37  160 1    
    77   38  161 1    
    78   38  162 1    
    79   38  163 1    
    80   39   40 am   BACKBONE|DICT|INTERRES
    81   39  164 1    
    82   40   41 2    
    83   40   42 1    
    84   42   43 1    
    85   42   44 1    
    86   42  165 1    
    87   43  166 1    
    88   43  167 1    
    89   43  168 1    
    90   44   45 am   BACKBONE|DICT|INTERRES
    91   44  169 1    
    92   45   46 2    
    93   45   47 1    
    94   47   48 1    
    95   47   49 1    
    96   47  170 1    
    97   48  171 1    
    98   48  172 1    
    99   48  173 1    
   100   49   50 am   BACKBONE|DICT|INTERRES
   101   49  174 1    
   102   50   51 2    
   103   50   52 1    
   104   52   53 1    
   105   52   54 1    
   106   52  175 1    
   107   53  176 1    
   108   53  177 1    
   109   53  178 1    
   110   54   55 am   BACKBONE|DICT|INTERRES
   111   54  179 1    
   112   55   56 2    
   113   55   57 1    
   114   57   58 1    
   115   57   59 1    
   116   57  180 1    
   117   58  181 1    
   118   58  182 1    
   119   58  183 1    
   120   59   60 am   BACKBONE|DICT|INTERRES
   121   59  184 1    
   122   60   61 2    
   123   60   62 1    
   124   62   63 1    
   125   62   64 1    
   126   62  185 1    
   127   63  186 1    
   128   63  187 1    
   129   63  188 1    
   130   64   65 am   BACKBONE|DICT|INTERRES
   131   64  189 1    
   132   65   66 2    
   133   67   68 2    
   134   67   69 am   BACKBONE|DICT|INTERRES
   135   69   70 1    
   136   69  190 1    
   137   70   71 1    
   138   70   72 1    
   139   70  191 1    
   140   71  192 1    
   141   71  193 1    
   142   71  194 1    
   143   72   73 2    
   144   72   74 am   BACKBONE|DICT|INTERRES
   145   74   75 1    
   146   74  195 1    
   147   75   76 1    
   148   75   77 1    
   149   75  196 1    
   150   76  197 1    
   151   76  198 1    
   152   76  199 1    
   153   77   78 2    
   154   77   79 am   BACKBONE|DICT|INTERRES
   155   79   80 1    
   156   79  200 1    
   157   80   81 1    
   158   80   82 1    
   159   80  201 1    
   160   81  202 1    
   161   81  203 1    
   162   81  204 1    
   163   82   83 2    
   164   82   84 am   BACKBONE|DICT|INTERRES
   165   84   85 1    
   166   84  205 1    
   167   85   86 1    
   168   85   87 1    
   169   85  206 1    
   170   86  207 1    
   171   86  208 1    
   172   86  209 1    
   173   87   88 2    
   174   87   89 am   BACKBONE|DICT|INTERRES
   175   89   90 1    
   176   89  210 1    
   177   90   91 1    
   178   90   92 1    
   179   90  211 1    
   180   91  212 1    
   181   91  213 1    
   182   91  214 1    
   183   92   93 2    
   184   92   94 am   BACKBONE|DICT|INTERRES
   185   94   95 1    
   186   94  215 1    
   187   95   96 1    
   188   95   97 1    
   189   95  216 1    
   190   96  217 1    
   191   96  218 1    
   192   96  219 1    
   193   97   98 2    
   194   97   99 am   BACKBONE|DICT|INTERRES
   195   99  100 1    
   196   99  220 1    
   197  100  101 1    
   198  100  102 1    
   199  100  221 1    
   200  101  222 1    
   201  101  223 1    
   202  101  224 1    
   203  102  103 2    
   204  102  104 am   BACKBONE|DICT|INTERRES
   205  104  105 1    
   206  104  225 1    
   207  105  106 1    
   208  105  107 1    
   209  105  226 1    
   210  106  227 1    
   211  106  228 1    
   212  106  229 1    
   213  107  108 2    
   214  107  109 am   BACKBONE|DICT|INTERRES
   215  109  110 1    
   216  109  230 1    
   217  110  111 1    
   218  110  112 1    
   219  110  231 1    
   220  111  232 1    
   221  111  233 1    
   222  111  234 1    
   223  112  113 2    
   224  112  114 am   BACKBONE|DICT|INTERRES
   225  114  115 1    
   226  114  235 1    
   227  115  116 1    
   228  115  117 1    
   229  115  236 1    
   230  116  237 1    
   231  116  238 1    
   232  116  239 1    
   233  117  118 2    
   234  117  119 am   BACKBONE|DICT|INTERRES
   235  119  120 1    
   236  119  240 1    
   237  120  121 1    
   238  120  124 1    
   239  120  241 1    
   240  121  122 am   BACKBONE|DICT|INTERRES
   241  121  123 2    
   242  122  242 1    
   243  122  243 1    
   244  124  125 1    
   245  124  244 1    
   246  124  245 1    
   247  125  126 1    
   248  126  246 1    
   249  126  247 1    
@<TRIPOS>SUBSTRUCTURE
     1 UNK         1 GROUP             0       ****    0 ROOT    
