@<TRIPOS>MOLECULE
3R540
247   249    1
SMALL
USER_CHARGES


@<TRIPOS>ATOM
      1 CA          0.2887   -8.2618  -49.7144 C.3       0 UNK        -0.1800 
      2 C          -0.0067   -9.5105  -48.8962 C.2       0 UNK         0.5000 
      3 O          -0.6646   -9.4204  -47.8600 O.2       0 UNK        -0.5000 
      4 N           0.4969  -10.6680  -49.3450 N.am      1 UNK        -0.5000 
      5 CA          0.3225  -12.0251  -48.7962 C.3       1 UNK         0.1400 
      6 C6         -1.1571  -12.4878  -48.7057 C.3       23 UNK        -0.0398 
      7 S7         -2.0001  -12.5432  -50.3249 S.3       23 UNK        -0.2404 
      8 C8         -2.2959  -14.3306  -50.5338 C.3       23 UNK        -0.0205 
      9 C9         -1.1488  -15.0310  -51.2493 C.ar      23 UNK        -0.0193 
     10 C10        -1.3369  -15.5508  -52.5328 C.ar      23 UNK        -0.1150 
     11 C11        -0.3074  -16.2385  -53.1815 C.ar      23 UNK        -0.0193 
     12 C12         0.9282  -16.3897  -52.5438 C.ar      23 UNK        -0.1150 
     13 C13         1.1339  -15.8642  -51.2640 C.ar      23 UNK        -0.0193 
     14 C14         0.0897  -15.1922  -50.6233 C.ar      23 UNK        -0.1150 
     15 C15         2.4843  -16.0129  -50.5767 C.3       23 UNK        -0.0205 
     16 S16         2.5991  -17.5478  -49.6024 S.3       23 UNK        -0.2404 
     17 C17         1.5940  -17.1425  -48.1320 C.3       23 UNK        -0.0398 
     18 CA          0.1580  -17.7047  -48.2318 C.3       11 UNK         0.1400 
     19 N           0.1294  -19.1652  -48.3580 N.am      11 UNK        -0.5000 
     20 C          -0.9051  -19.8395  -48.8770 C.2       10 UNK         0.5000 
     21 O          -1.9356  -19.2962  -49.2676 O.2       10 UNK        -0.5000 
     22 CA         -0.8209  -21.3747  -48.9017 C.3       10 UNK         0.1400 
     23 CB         -0.2441  -21.8510  -50.2394 C.3       10 UNK        -0.1800 
     24 N          -0.0347  -21.9440  -47.8095 N.am      10 UNK        -0.5000 
     25 C          -0.2752  -21.7650  -46.5047 C.2       9 UNK         0.5000 
     26 O          -1.2144  -21.0944  -46.0702 O.2       9 UNK        -0.5000 
     27 CA          0.7134  -22.4059  -45.5148 C.3       9 UNK         0.1400 
     28 CB          1.7233  -23.3795  -46.1622 C.3       9 UNK        -0.1800 
     29 N           1.4209  -21.3968  -44.7280 N.am      9 UNK        -0.5000 
     30 C           2.1842  -20.3850  -45.1734 C.2       8 UNK         0.5000 
     31 O           2.3228  -20.1097  -46.3665 O.2       8 UNK        -0.5000 
     32 CA          2.9271  -19.5362  -44.1156 C.3       8 UNK         0.1400 
     33 CB          2.4172  -18.0863  -44.1131 C.3       8 UNK        -0.1800 
     34 N           2.8173  -20.0826  -42.7598 N.am      8 UNK        -0.5000 
     35 C           3.4855  -21.1588  -42.3128 C.2       7 UNK         0.5000 
     36 O           4.3596  -21.7312  -42.9641 O.2       7 UNK        -0.5000 
     37 CA          3.0943  -21.7208  -40.9279 C.3       7 UNK         0.1400 
     38 CB          4.1161  -21.2868  -39.8659 C.3       7 UNK        -0.1800 
     39 N           1.7568  -21.3261  -40.4803 N.am      7 UNK        -0.5000 
     40 C           0.6000  -21.6076  -41.0983 C.2       6 UNK         0.5000 
     41 O           0.5167  -22.3415  -42.0823 O.2       6 UNK        -0.5000 
     42 CA         -0.6653  -20.8973  -40.5712 C.3       6 UNK         0.1400 
     43 CB         -1.5185  -21.8648  -39.7380 C.3       6 UNK        -0.1800 
     44 N          -0.3890  -19.6916  -39.7778 N.am      6 UNK        -0.5000 
     45 C           0.2491  -18.6029  -40.2285 C.2       5 UNK         0.5000 
     46 O           0.6759  -18.4881  -41.3808 O.2       5 UNK        -0.5000 
     47 CA          0.5249  -17.4976  -39.2032 C.3       5 UNK         0.1400 
     48 CB          1.6619  -17.9176  -38.2505 C.3       5 UNK        -0.1800 
     49 N           0.8966  -16.2881  -39.9262 N.am      5 UNK        -0.5000 
     50 C           0.9246  -15.0492  -39.4272 C.2       4 UNK         0.5000 
     51 O           0.6507  -14.7748  -38.2578 O.2       4 UNK        -0.5000 
     52 CA          1.3224  -13.9197  -40.3961 C.3       4 UNK         0.1400 
     53 CB          2.8346  -13.6575  -40.3226 C.3       4 UNK        -0.1800 
     54 N           0.9510  -14.1545  -41.7946 N.am      4 UNK        -0.5000 
     55 C          -0.3057  -14.2352  -42.2559 C.2       3 UNK         0.5000 
     56 O          -1.2997  -14.2558  -41.5277 O.2       3 UNK        -0.5000 
     57 CA         -0.4645  -14.2471  -43.7940 C.3       3 UNK         0.1400 
     58 CB         -1.9159  -13.9795  -44.2437 C.3       3 UNK        -0.1800 
     59 N           0.4478  -13.3223  -44.4827 N.am      3 UNK        -0.5000 
     60 C           0.6008  -12.0062  -44.2622 C.2       2 UNK         0.5000 
     61 O           0.0014  -11.3737  -43.3922 O.2       2 UNK        -0.5000 
     62 CA          1.5702  -11.2564  -45.1935 C.3       2 UNK         0.1400 
     63 CB          3.0237  -11.7511  -45.0478 C.3       2 UNK        -0.1800 
     64 N           1.1111  -11.2586  -46.5857 N.am      2 UNK        -0.5000 
     65 C           1.0293  -12.2812  -47.4461 C.2       1 UNK         0.5000 
     66 O           1.4637  -13.4092  -47.2082 O.2       1 UNK        -0.5000 
     67 C          -0.7442  -17.1839  -47.0908 C.2       11 UNK         0.5000 
     68 O          -1.0983  -16.0056  -47.1017 O.2       11 UNK        -0.5000 
     69 N          -1.1410  -18.0676  -46.1634 N.am      12 UNK        -0.5000 
     70 CA         -2.1862  -17.8288  -45.1653 C.3       12 UNK         0.1400 
     71 CB         -1.6943  -18.3380  -43.7999 C.3       12 UNK        -0.1800 
     72 C          -3.5222  -18.4935  -45.5628 C.2       12 UNK         0.5000 
     73 O          -4.4677  -18.4588  -44.7748 O.2       12 UNK        -0.5000 
     74 N          -3.5763  -19.0954  -46.7625 N.am      13 UNK        -0.5000 
     75 CA         -4.6828  -19.8655  -47.3386 C.3       13 UNK         0.1400 
     76 CB         -5.8871  -18.9520  -47.6439 C.3       13 UNK        -0.1800 
     77 C          -5.0659  -21.1146  -46.5160 C.2       13 UNK         0.5000 
     78 O          -6.2227  -21.5409  -46.5575 O.2       13 UNK        -0.5000 
     79 N          -4.0933  -21.6972  -45.7967 N.am      14 UNK        -0.5000 
     80 CA         -4.2688  -22.8972  -44.9774 C.3       14 UNK         0.1400 
     81 CB         -2.9730  -23.1962  -44.2096 C.3       14 UNK        -0.1800 
     82 C          -4.6811  -24.0979  -45.8456 C.2       14 UNK         0.5000 
     83 O          -4.0238  -24.3727  -46.8519 O.2       14 UNK        -0.5000 
     84 N          -5.7992  -24.7394  -45.4773 N.am      15 UNK        -0.5000 
     85 CA         -6.4601  -25.8428  -46.1907 C.3       15 UNK         0.1400 
     86 CB         -5.5909  -27.1164  -46.1273 C.3       15 UNK        -0.1800 
     87 C          -6.8852  -25.4963  -47.6386 C.2       15 UNK         0.5000 
     88 O          -7.0802  -26.4047  -48.4475 O.2       15 UNK        -0.5000 
     89 N          -7.0015  -24.1923  -47.9431 N.am      16 UNK        -0.5000 
     90 CA         -7.2442  -23.6013  -49.2633 C.3       16 UNK         0.1400 
     91 CB         -8.6556  -23.9539  -49.7769 C.3       16 UNK        -0.1800 
     92 C          -6.1363  -23.9158  -50.2947 C.2       16 UNK         0.5000 
     93 O          -6.4027  -23.8975  -51.4979 O.2       16 UNK        -0.5000 
     94 N          -4.9039  -24.1706  -49.8203 N.am      17 UNK        -0.5000 
     95 CA         -3.7492  -24.5784  -50.6320 C.3       17 UNK         0.1400 
     96 CB         -2.5688  -24.9113  -49.7081 C.3       17 UNK        -0.1800 
     97 C          -3.3251  -23.5652  -51.7133 C.2       17 UNK         0.5000 
     98 O          -2.7025  -23.9623  -52.6994 O.2       17 UNK        -0.5000 
     99 N          -3.7167  -22.2931  -51.5440 N.am      18 UNK        -0.5000 
    100 CA        -3.5709  -21.2076  -52.5179 C.3       18 UNK         0.1400 
    101 CB        -4.2207  -19.9363  -51.9517 C.3       18 UNK        -0.1800 
    102 C         -4.1743  -21.5288  -53.8983 C.2       18 UNK         0.5000 
    103 O         -3.6184  -21.1058  -54.9103 O.2       18 UNK        -0.5000 
    104 N         -5.2656  -22.3099  -53.9226 N.am      19 UNK        -0.5000 
    105 CA        -5.9407  -22.7580  -55.1430 C.3       19 UNK         0.1400 
    106 CB        -7.2367  -23.4884  -54.7603 C.3       19 UNK        -0.1800 
    107 C         -5.0645  -23.6501  -56.0460 C.2       19 UNK         0.5000 
    108 O         -5.2885  -23.6821  -57.2567 O.2       19 UNK        -0.5000 
    109 N         -4.0840  -24.3405  -55.4493 N.am      20 UNK        -0.5000 
    110 CA        -3.0750  -25.1232  -56.1546 C.3       20 UNK         0.1400 
    111 CB        -2.8296  -26.4370  -55.3943 C.3       20 UNK        -0.1800 
    112 C         -1.7724  -24.3200  -56.2952 C.2       20 UNK         0.5000 
    113 O         -1.2444  -24.2059  -57.4023 O.2       20 UNK        -0.5000 
    114 N         -1.2763  -23.7812  -55.1720 N.am      21 UNK        -0.5000 
    115 CA         0.0379  -23.1471  -55.0525 C.3       21 UNK         0.1400 
    116 CB         0.3113  -22.8393  -53.5750 C.3       21 UNK        -0.1800 
    117 C          0.2177  -21.8757  -55.8997 C.2       21 UNK         0.5000 
    118 O          1.3143  -21.6499  -56.4138 O.2       21 UNK        -0.5000 
    119 N         -0.8471  -21.0768  -56.0362 N.am      22 UNK        -0.5000 
    120 CA        -0.8516  -19.8375  -56.8312 C.3       22 UNK         0.1400 
    121 C         -1.1560  -20.0659  -58.3425 C.2       22 UNK         0.5000 
    122 N         -1.3621  -21.2923  -58.8111 N.am      22 UNK        -0.7600 
    123 O         -1.1921  -19.1109  -59.1137 O.2       22 UNK        -0.5000 
    124 C124       -1.7772  -18.7522  -56.2207 C.3       23 UNK        -0.0398 
    125 S125       -1.4244  -18.4072  -54.4597 S.3       23 UNK        -0.2404 
    126 C126       -0.5438  -16.8198  -54.5666 C.3       23 UNK        -0.0205 
    127 H127        0.8880   -8.4868  -50.5970 H         1 UNK         0.0600 
    128 H128        0.8328   -7.5365  -49.1094 H         1 UNK         0.0600 
    129 H129       -0.6427   -7.8019  -50.0445 H         1 UNK         0.0600 
    130 H130        1.0521  -10.6387  -50.1889 H         1 UNK         0.3000 
    131 H131        0.8318  -12.6680  -49.5136 H         1 UNK         0.0600 
    132 H132       -1.7277  -11.8278  -48.0512 H         1 UNK         0.0800 
    133 H133       -1.2203  -13.4729  -48.2402 H         1 UNK         0.0800 
    134 H134       -3.2197  -14.4529  -51.1011 H         1 UNK         0.0800 
    135 H135       -2.4774  -14.8102  -49.5708 H         1 UNK         0.0800 
    136 H136       -2.2936  -15.4403  -53.0241 H         1 UNK         0.1150 
    137 H137        1.7280  -16.9210  -53.0404 H         1 UNK         0.1150 
    138 H138        0.2354  -14.8173  -49.6221 H         1 UNK         0.1150 
    139 H139        3.2755  -16.0190  -51.3278 H         1 UNK         0.0800 
    140 H140        2.6850  -15.1512  -49.9378 H         1 UNK         0.0800 
    141 H141        1.5832  -16.0603  -47.9930 H         1 UNK         0.0800 
    142 H142        2.0994  -17.5521  -47.2587 H         1 UNK         0.0800 
    143 H143       -0.2832  -17.3091  -49.1458 H         1 UNK         0.0600 
    144 H144        0.9368  -19.6679  -48.0066 H         1 UNK         0.3000 
    145 H145       -1.8405  -21.7534  -48.8088 H         1 UNK         0.0600 
    146 H146       -0.2925  -22.9356  -50.3341 H         1 UNK         0.0600 
    147 H147       -0.8093  -21.4251  -51.0668 H         1 UNK         0.0600 
    148 H148        0.7958  -21.5462  -50.3632 H         1 UNK         0.0600 
    149 H149        0.7769  -22.4832  -48.0733 H         1 UNK         0.3000 
    150 H150        0.1130  -22.9783  -44.8076 H         1 UNK         0.0600 
    151 H151        1.2128  -24.1798  -46.6998 H         1 UNK         0.0600 
    152 H152        2.3426  -23.8537  -45.4005 H         1 UNK         0.0600 
    153 H153        2.3940  -22.8777  -46.8607 H         1 UNK         0.0600 
    154 H154        1.3250  -21.5148  -43.7255 H         1 UNK         0.3000 
    155 H155        3.9828  -19.5202  -44.3939 H         1 UNK         0.0600 
    156 H156        1.3357  -18.0420  -43.9972 H         1 UNK         0.0600 
    157 H157        2.6685  -17.5827  -45.0454 H         1 UNK         0.0600 
    158 H158        2.8656  -17.5075  -43.3054 H         1 UNK         0.0600 
    159 H159        2.1133  -19.6544  -42.1666 H         1 UNK         0.3000 
    160 H160        3.1123  -22.8100  -41.0011 H         1 UNK         0.0600 
    161 H161        4.1244  -20.2039  -39.7351 H         1 UNK         0.0600 
    162 H162        5.1254  -21.5914  -40.1463 H         1 UNK         0.0600 
    163 H163        3.8987  -21.7411  -38.8990 H         1 UNK         0.0600 
    164 H164        1.7191  -20.7168  -39.6774 H         1 UNK         0.3000 
    165 H165       -1.2475  -20.5924  -41.4434 H         1 UNK         0.0600 
    166 H166       -2.4584  -21.4026  -39.4359 H         1 UNK         0.0600 
    167 H167       -1.7681  -22.7588  -40.3113 H         1 UNK         0.0600 
    168 H168       -0.9961  -22.1875  -38.8365 H         1 UNK         0.0600 
    169 H169       -0.6947  -19.7135  -38.8153 H         1 UNK         0.3000 
    170 H170       -0.3901  -17.3117  -38.6373 H         1 UNK         0.0600 
    171 H171        1.4105  -18.8313  -37.7110 H         1 UNK         0.0600 
    172 H172        2.5911  -18.0996  -38.7922 H         1 UNK         0.0600 
    173 H173        1.8593  -17.1510  -37.5013 H         1 UNK         0.0600 
    174 H174        1.0955  -16.4397  -40.9074 H         1 UNK         0.3000 
    175 H175        0.8058  -13.0153  -40.0677 H         1 UNK         0.0600 
    176 H176        3.4089  -14.5165  -40.6720 H         1 UNK         0.0600 
    177 H177        3.1162  -12.7952  -40.9275 H         1 UNK         0.0600 
    178 H178        3.1462  -13.4492  -39.2981 H         1 UNK         0.0600 
    179 H179        1.7031  -14.1377  -42.4675 H         1 UNK         0.3000 
    180 H180       -0.1958  -15.2521  -44.1231 H         1 UNK         0.0600 
    181 H181       -2.0100  -14.0461  -45.3276 H         1 UNK         0.0600 
    182 H182       -2.2562  -12.9894  -43.9389 H         1 UNK         0.0600 
    183 H183       -2.6038  -14.7078  -43.8130 H         1 UNK         0.0600 
    184 H184        0.9556  -13.7083  -45.2728 H         1 UNK         0.3000 
    185 H185        1.5571  -10.2098  -44.8848 H         1 UNK         0.0600 
    186 H186        3.1374  -12.8029  -45.3094 H         1 UNK         0.0600 
    187 H187        3.6984  -11.1753  -45.6812 H         1 UNK         0.0600 
    188 H188        3.3675  -11.6365  -44.0191 H         1 UNK         0.0600 
    189 H189        0.6432  -10.4057  -46.8805 H         1 UNK         0.3000 
    190 H190       -0.8267  -19.0288  -46.2376 H         1 UNK         0.3000 
    191 H191       -2.3888  -16.7613  -45.0736 H         1 UNK         0.0600 
    192 H192       -2.4705  -18.2595  -43.0379 H         1 UNK         0.0600 
    193 H193       -0.8525  -17.7443  -43.4488 H         1 UNK         0.0600 
    194 H194       -1.3796  -19.3814  -43.8436 H         1 UNK         0.0600 
    195 H195       -2.7572  -19.0379  -47.3546 H         1 UNK         0.3000 
    196 H196       -4.3173  -20.2465  -48.2928 H         1 UNK         0.0600 
    197 H197       -6.3535  -18.5785  -46.7320 H         1 UNK         0.0600 
    198 H198       -5.5866  -18.0932  -48.2443 H         1 UNK         0.0600 
    199 H199       -6.6527  -19.4867  -48.2073 H         1 UNK         0.0600 
    200 H200       -3.1502  -21.3244  -45.8525 H         1 UNK         0.3000 
    201 H201       -5.0559  -22.6862  -44.2506 H         1 UNK         0.0600 
    202 H202       -2.1772  -23.5125  -44.8831 H         1 UNK         0.0600 
    203 H203       -3.1258  -23.9997  -43.4884 H         1 UNK         0.0600 
    204 H204       -2.6222  -22.3233  -43.6579 H         1 UNK         0.0600 
    205 H205       -6.2844  -24.4135  -44.6525 H         1 UNK         0.3000 
    206 H206       -7.3844  -26.0462  -45.6483 H         1 UNK         0.0600 
    207 H207       -5.3054  -27.3486  -45.1013 H         1 UNK         0.0600 
    208 H208       -6.1311  -27.9812  -46.5144 H         1 UNK         0.0600 
    209 H209       -4.6778  -27.0126  -46.7144 H         1 UNK         0.0600 
    210 H210       -6.8130  -23.5188  -47.2087 H         1 UNK         0.3000 
    211 H211       -7.2124  -22.5210  -49.1160 H         1 UNK         0.0600 
    212 H212       -8.8974  -23.3876  -50.6772 H         1 UNK         0.0600 
    213 H213       -9.4165  -23.7171  -49.0333 H         1 UNK         0.0600 
    214 H214       -8.7453  -25.0117  -50.0249 H         1 UNK         0.0600 
    215 H215       -4.7622  -24.1803  -48.8155 H         1 UNK         0.3000 
    216 H216       -4.0317  -25.4929  -51.1571 H         1 UNK         0.0600 
    217 H217       -2.2931  -24.0627  -49.0829 H         1 UNK         0.0600 
    218 H218       -1.6871  -25.2014  -50.2812 H         1 UNK         0.0600 
    219 H219       -2.8125  -25.7432  -49.0468 H         1 UNK         0.0600 
    220 H220       -4.2384  -22.0764  -50.7091 H         1 UNK         0.3000 
    221 H221       -2.5058  -21.0194  -52.6582 H         1 UNK         0.0600 
    222 H222       -3.7837  -19.6561  -50.9954 H         1 UNK         0.0600 
    223 H223       -5.2937  -20.0638  -51.8027 H         1 UNK         0.0600 
    224 H224       -4.0800  -19.0929  -52.6291 H         1 UNK         0.0600 
    225 H225       -5.6386  -22.6623  -53.0477 H         1 UNK         0.3000 
    226 H226       -6.2058  -21.8696  -55.7197 H         1 UNK         0.0600 
    227 H227       -7.0327  -24.3889  -54.1797 H         1 UNK         0.0600 
    228 H228       -7.8911  -22.8491  -54.1674 H         1 UNK         0.0600 
    229 H229       -7.7933  -23.7894  -55.6488 H         1 UNK         0.0600 
    230 H230       -3.9473  -24.2210  -54.4535 H         1 UNK         0.3000 
    231 H231       -3.4223  -25.3796  -57.1577 H         1 UNK         0.0600 
    232 H232       -2.4963  -26.2610  -54.3708 H         1 UNK         0.0600 
    233 H233       -2.0664  -27.0380  -55.8903 H         1 UNK         0.0600 
    234 H234       -3.7379  -27.0381  -55.3493 H         1 UNK         0.0600 
    235 H235       -1.7888  -23.9031  -54.3018 H         1 UNK         0.3000 
    236 H236        0.7808  -23.8728  -55.3896 H         1 UNK         0.0600 
    237 H237        0.2451  -23.7374  -52.9606 H         1 UNK         0.0600 
    238 H238        1.3086  -22.4199  -53.4369 H         1 UNK         0.0600 
    239 H239       -0.4062  -22.1150  -53.1930 H         1 UNK         0.0600 
    240 H240       -1.7272  -21.3191  -55.5928 H         1 UNK         0.3000 
    241 H241        0.1569  -19.4204  -56.8082 H         1 UNK         0.0600 
    242 H242       -1.5514  -21.4211  -59.7925 H         1 UNK         0.3800 
    243 H243       -1.3097  -22.0979  -58.2019 H         1 UNK         0.3800 
    244 H244       -2.8210  -19.0570  -56.3029 H         1 UNK         0.0800 
    245 H245       -1.6976  -17.8226  -56.7865 H         1 UNK         0.0800 
    246 H246       -1.1265  -16.1144  -55.1610 H         1 UNK         0.0800 
    247 H247        0.4022  -16.9639  -55.0906 H         1 UNK         0.0800 
@<TRIPOS>BOND
     1    1    2 1    
     2    1  127 1    
     3    1  128 1    
     4    1  129 1    
     5    2    3 2    
     6    2    4 am   BACKBONE|DICT|INTERRES
     7    4    5 1    
     8    4  130 1    
     9    5    6 1    
    10    5   65 1    
    11    5  131 1    
    12    6    7 1    
    13    6  132 1    
    14    6  133 1    
    15    7    8 1    
    16    8    9 1    
    17    8  134 1    
    18    8  135 1    
    19    9   10 ar   
    20    9   14 ar   
    21   10   11 ar   
    22   10  136 1    
    23   11   12 ar   
    24   11  126 1    
    25   12   13 ar   
    26   12  137 1    
    27   13   14 ar   
    28   13   15 1    
    29   14  138 1    
    30   15   16 1    
    31   15  139 1    
    32   15  140 1    
    33   16   17 1    
    34   17   18 1    
    35   17  141 1    
    36   17  142 1    
    37   18   19 1    
    38   18   67 1    
    39   18  143 1    
    40   19   20 am   BACKBONE|DICT|INTERRES
    41   19  144 1    
    42   20   21 2    
    43   20   22 1    
    44   22   23 1    
    45   22   24 1    
    46   22  145 1    
    47   23  146 1    
    48   23  147 1    
    49   23  148 1    
    50   24   25 am   BACKBONE|DICT|INTERRES
    51   24  149 1    
    52   25   26 2    
    53   25   27 1    
    54   27   28 1    
    55   27   29 1    
    56   27  150 1    
    57   28  151 1    
    58   28  152 1    
    59   28  153 1    
    60   29   30 am   BACKBONE|DICT|INTERRES
    61   29  154 1    
    62   30   31 2    
    63   30   32 1    
    64   32   33 1    
    65   32   34 1    
    66   32  155 1    
    67   33  156 1    
    68   33  157 1    
    69   33  158 1    
    70   34   35 am   BACKBONE|DICT|INTERRES
    71   34  159 1    
    72   35   36 2    
    73   35   37 1    
    74   37   38 1    
    75   37   39 1    
    76   37  160 1    
    77   38  161 1    
    78   38  162 1    
    79   38  163 1    
    80   39   40 am   BACKBONE|DICT|INTERRES
    81   39  164 1    
    82   40   41 2    
    83   40   42 1    
    84   42   43 1    
    85   42   44 1    
    86   42  165 1    
    87   43  166 1    
    88   43  167 1    
    89   43  168 1    
    90   44   45 am   BACKBONE|DICT|INTERRES
    91   44  169 1    
    92   45   46 2    
    93   45   47 1    
    94   47   48 1    
    95   47   49 1    
    96   47  170 1    
    97   48  171 1    
    98   48  172 1    
    99   48  173 1    
   100   49   50 am   BACKBONE|DICT|INTERRES
   101   49  174 1    
   102   50   51 2    
   103   50   52 1    
   104   52   53 1    
   105   52   54 1    
   106   52  175 1    
   107   53  176 1    
   108   53  177 1    
   109   53  178 1    
   110   54   55 am   BACKBONE|DICT|INTERRES
   111   54  179 1    
   112   55   56 2    
   113   55   57 1    
   114   57   58 1    
   115   57   59 1    
   116   57  180 1    
   117   58  181 1    
   118   58  182 1    
   119   58  183 1    
   120   59   60 am   BACKBONE|DICT|INTERRES
   121   59  184 1    
   122   60   61 2    
   123   60   62 1    
   124   62   63 1    
   125   62   64 1    
   126   62  185 1    
   127   63  186 1    
   128   63  187 1    
   129   63  188 1    
   130   64   65 am   BACKBONE|DICT|INTERRES
   131   64  189 1    
   132   65   66 2    
   133   67   68 2    
   134   67   69 am   BACKBONE|DICT|INTERRES
   135   69   70 1    
   136   69  190 1    
   137   70   71 1    
   138   70   72 1    
   139   70  191 1    
   140   71  192 1    
   141   71  193 1    
   142   71  194 1    
   143   72   73 2    
   144   72   74 am   BACKBONE|DICT|INTERRES
   145   74   75 1    
   146   74  195 1    
   147   75   76 1    
   148   75   77 1    
   149   75  196 1    
   150   76  197 1    
   151   76  198 1    
   152   76  199 1    
   153   77   78 2    
   154   77   79 am   BACKBONE|DICT|INTERRES
   155   79   80 1    
   156   79  200 1    
   157   80   81 1    
   158   80   82 1    
   159   80  201 1    
   160   81  202 1    
   161   81  203 1    
   162   81  204 1    
   163   82   83 2    
   164   82   84 am   BACKBONE|DICT|INTERRES
   165   84   85 1    
   166   84  205 1    
   167   85   86 1    
   168   85   87 1    
   169   85  206 1    
   170   86  207 1    
   171   86  208 1    
   172   86  209 1    
   173   87   88 2    
   174   87   89 am   BACKBONE|DICT|INTERRES
   175   89   90 1    
   176   89  210 1    
   177   90   91 1    
   178   90   92 1    
   179   90  211 1    
   180   91  212 1    
   181   91  213 1    
   182   91  214 1    
   183   92   93 2    
   184   92   94 am   BACKBONE|DICT|INTERRES
   185   94   95 1    
   186   94  215 1    
   187   95   96 1    
   188   95   97 1    
   189   95  216 1    
   190   96  217 1    
   191   96  218 1    
   192   96  219 1    
   193   97   98 2    
   194   97   99 am   BACKBONE|DICT|INTERRES
   195   99  100 1    
   196   99  220 1    
   197  100  101 1    
   198  100  102 1    
   199  100  221 1    
   200  101  222 1    
   201  101  223 1    
   202  101  224 1    
   203  102  103 2    
   204  102  104 am   BACKBONE|DICT|INTERRES
   205  104  105 1    
   206  104  225 1    
   207  105  106 1    
   208  105  107 1    
   209  105  226 1    
   210  106  227 1    
   211  106  228 1    
   212  106  229 1    
   213  107  108 2    
   214  107  109 am   BACKBONE|DICT|INTERRES
   215  109  110 1    
   216  109  230 1    
   217  110  111 1    
   218  110  112 1    
   219  110  231 1    
   220  111  232 1    
   221  111  233 1    
   222  111  234 1    
   223  112  113 2    
   224  112  114 am   BACKBONE|DICT|INTERRES
   225  114  115 1    
   226  114  235 1    
   227  115  116 1    
   228  115  117 1    
   229  115  236 1    
   230  116  237 1    
   231  116  238 1    
   232  116  239 1    
   233  117  118 2    
   234  117  119 am   BACKBONE|DICT|INTERRES
   235  119  120 1    
   236  119  240 1    
   237  120  121 1    
   238  120  124 1    
   239  120  241 1    
   240  121  122 am   BACKBONE|DICT|INTERRES
   241  121  123 2    
   242  122  242 1    
   243  122  243 1    
   244  124  125 1    
   245  124  244 1    
   246  124  245 1    
   247  125  126 1    
   248  126  246 1    
   249  126  247 1    
@<TRIPOS>SUBSTRUCTURE
     1 UNK         1 GROUP             0       ****    0 ROOT    
