@<TRIPOS>MOLECULE
3R540
247   249    1
SMALL
USER_CHARGES


@<TRIPOS>ATOM
      1 CA          6.8173  -15.6616  -52.4864 C.3       0 UNK        -0.1800 
      2 C           6.6715  -16.8724  -51.5757 C.2       0 UNK         0.5000 
      3 O           7.6130  -17.6536  -51.4383 O.2       0 UNK        -0.5000 
      4 N           5.4959  -17.0295  -50.9542 N.am      1 UNK        -0.5000 
      5 CA          5.1677  -18.1400  -50.0479 C.3       1 UNK         0.1400 
      6 C6          3.6418  -18.2969  -49.8361 C.3       23 UNK        -0.0398 
      7 S7          2.7039  -18.5006  -51.3879 S.3       23 UNK        -0.2404 
      8 C8          1.9101  -16.8702  -51.5584 C.3       23 UNK        -0.0205 
      9 C9          0.7255  -16.6880  -50.6188 C.ar      23 UNK        -0.0193 
     10 C10        -0.5020  -17.2812  -50.9240 C.ar      23 UNK        -0.1150 
     11 C11        -1.6247  -17.0567  -50.1202 C.ar      23 UNK        -0.0193 
     12 C12        -1.5014  -16.2557  -48.9816 C.ar      23 UNK        -0.1150 
     13 C13        -0.2745  -15.6692  -48.6532 C.ar      23 UNK        -0.0193 
     14 C14         0.8339  -15.8856  -49.4784 C.ar      23 UNK        -0.1150 
     15 C15        -0.1585  -14.7628  -47.4339 C.3       23 UNK        -0.0205 
     16 S16         0.8140  -15.5037  -46.0833 S.3       23 UNK        -0.2404 
     17 C17        -0.2521  -16.8913  -45.5699 C.3       23 UNK        -0.0398 
     18 CA          0.5436  -18.1954  -45.3330 C.3       11 UNK         0.1400 
     19 N          -0.2302  -19.1607  -44.5515 N.am      11 UNK        -0.5000 
     20 C           0.2590  -20.2796  -43.9979 C.2       10 UNK         0.5000 
     21 O           1.4466  -20.5983  -44.0218 O.2       10 UNK        -0.5000 
     22 CA         -0.7611  -21.2212  -43.3354 C.3       10 UNK         0.1400 
     23 CB         -1.0074  -20.8208  -41.8737 C.3       10 UNK        -0.1800 
     24 N          -2.0322  -21.2428  -44.0596 N.am      10 UNK        -0.5000 
     25 C          -2.2119  -21.8355  -45.2483 C.2       9 UNK         0.5000 
     26 O          -1.3398  -22.4752  -45.8358 O.2       9 UNK        -0.5000 
     27 CA         -3.5853  -21.6401  -45.9137 C.3       9 UNK         0.1400 
     28 CB         -4.5926  -22.6829  -45.4097 C.3       9 UNK        -0.1800 
     29 N          -4.1287  -20.2959  -45.7127 N.am      9 UNK        -0.5000 
     30 C          -3.5958  -19.1837  -46.2374 C.2       8 UNK         0.5000 
     31 O          -2.5919  -19.1762  -46.9475 O.2       8 UNK        -0.5000 
     32 CA         -4.2789  -17.8531  -45.8818 C.3       8 UNK         0.1400 
     33 CB         -5.4611  -17.5946  -46.8253 C.3       8 UNK        -0.1800 
     34 N          -4.7397  -17.7809  -44.4930 N.am      8 UNK        -0.5000 
     35 C          -3.9459  -17.8792  -43.4196 C.2       7 UNK         0.5000 
     36 O          -2.7369  -18.1163  -43.4780 O.2       7 UNK        -0.5000 
     37 CA         -4.6169  -17.7155  -42.0485 C.3       7 UNK         0.1400 
     38 CB         -4.6545  -19.0547  -41.2964 C.3       7 UNK        -0.1800 
     39 N          -3.8747  -16.7374  -41.2598 N.am      7 UNK        -0.5000 
     40 C          -4.0572  -15.4121  -41.3313 C.2       6 UNK         0.5000 
     41 O          -4.9501  -14.8783  -41.9909 O.2       6 UNK        -0.5000 
     42 CA         -3.0698  -14.5329  -40.5394 C.3       6 UNK         0.1400 
     43 CB         -3.5917  -14.2828  -39.1161 C.3       6 UNK        -0.1800 
     44 N          -1.7249  -15.1099  -40.4655 N.am      6 UNK        -0.5000 
     45 C          -0.8841  -15.1940  -41.5046 C.2       5 UNK         0.5000 
     46 O          -1.1452  -14.7707  -42.6332 O.2       5 UNK        -0.5000 
     47 CA          0.4554  -15.9038  -41.2319 C.3       5 UNK         0.1400 
     48 CB          0.2769  -17.4263  -41.3131 C.3       5 UNK        -0.1800 
     49 N           1.4952  -15.5040  -42.1783 N.am      5 UNK        -0.5000 
     50 C           2.1060  -14.3122  -42.1863 C.2       4 UNK         0.5000 
     51 O           1.8715  -13.4233  -41.3646 O.2       4 UNK        -0.5000 
     52 CA          3.1646  -14.0926  -43.2905 C.3       4 UNK         0.1400 
     53 CB          4.1348  -12.9363  -42.9714 C.3       4 UNK        -0.1800 
     54 N           3.9140  -15.3068  -43.6379 N.am      4 UNK        -0.5000 
     55 C           4.6708  -16.0676  -42.8349 C.2       3 UNK         0.5000 
     56 O           4.8354  -15.8472  -41.6347 O.2       3 UNK        -0.5000 
     57 CA          5.3771  -17.2807  -43.4756 C.3       3 UNK         0.1400 
     58 CB          4.3950  -18.4454  -43.7070 C.3       3 UNK        -0.1800 
     59 N           6.1516  -16.9838  -44.6905 N.am      3 UNK        -0.5000 
     60 C           5.7186  -16.5687  -45.8903 C.2       2 UNK         0.5000 
     61 O           4.5403  -16.3081  -46.1417 O.2       2 UNK        -0.5000 
     62 CA          6.7764  -16.3714  -46.9985 C.3       2 UNK         0.1400 
     63 CB          8.1439  -17.0318  -46.7088 C.3       2 UNK        -0.1800 
     64 N           6.2541  -16.7821  -48.3050 N.am      2 UNK        -0.5000 
     65 C           5.8693  -18.0144  -48.6767 C.2       1 UNK         0.5000 
     66 O           6.0364  -19.0256  -47.9934 O.2       1 UNK        -0.5000 
     67 C           1.0663  -18.8250  -46.6422 C.2       11 UNK         0.5000 
     68 O           2.2509  -18.6973  -46.9452 O.2       11 UNK        -0.5000 
     69 N           0.1913  -19.5524  -47.3529 N.am      12 UNK        -0.5000 
     70 CA          0.5312  -20.3434  -48.5365 C.3       12 UNK         0.1400 
     71 CB         -0.7582  -20.8890  -49.1659 C.3       12 UNK        -0.1800 
     72 C           1.4839  -21.5140  -48.2359 C.2       12 UNK         0.5000 
     73 O           2.2493  -21.9130  -49.1136 O.2       12 UNK        -0.5000 
     74 N           1.3741  -22.0735  -47.0223 N.am      13 UNK        -0.5000 
     75 CA          2.0807  -23.2258  -46.4496 C.3       13 UNK         0.1400 
     76 CB          3.6060  -23.0142  -46.4434 C.3       13 UNK        -0.1800 
     77 C           1.6916  -24.5693  -47.0959 C.2       13 UNK         0.5000 
     78 O           1.4327  -25.5365  -46.3797 O.2       13 UNK        -0.5000 
     79 N           1.6176  -24.5973  -48.4314 N.am      14 UNK        -0.5000 
     80 CA          1.1297  -25.7174  -49.2357 C.3       14 UNK         0.1400 
     81 CB          1.6800  -25.5682  -50.6628 C.3       14 UNK        -0.1800 
     82 C          -0.4094  -25.8090  -49.2667 C.2       14 UNK         0.5000 
     83 O          -0.9387  -26.8303  -49.7037 O.2       14 UNK        -0.5000 
     84 N          -1.0972  -24.7333  -48.8500 N.am      15 UNK        -0.5000 
     85 CA         -2.5521  -24.5310  -48.7541 C.3       15 UNK         0.1400 
     86 CB         -3.1859  -25.5316  -47.7714 C.3       15 UNK        -0.1800 
     87 C          -3.3226  -24.5073  -50.0920 C.2       15 UNK         0.5000 
     88 O          -4.3828  -23.8844  -50.1575 O.2       15 UNK        -0.5000 
     89 N          -2.7836  -25.1459  -51.1377 N.am      16 UNK        -0.5000 
     90 CA         -3.3739  -25.2666  -52.4722 C.3       16 UNK         0.1400 
     91 CB         -2.4559  -26.1273  -53.3525 C.3       16 UNK        -0.1800 
     92 C          -3.6654  -23.9166  -53.1516 C.2       16 UNK         0.5000 
     93 O          -4.7051  -23.7787  -53.7934 O.2       16 UNK        -0.5000 
     94 N          -2.7714  -22.9343  -52.9654 N.am      17 UNK        -0.5000 
     95 CA         -2.9370  -21.5671  -53.4664 C.3       17 UNK         0.1400 
     96 CB         -1.6350  -20.7788  -53.2545 C.3       17 UNK        -0.1800 
     97 C          -4.1192  -20.8382  -52.8038 C.2       17 UNK         0.5000 
     98 O          -4.8675  -20.1342  -53.4848 O.2       17 UNK        -0.5000 
     99 N          -4.2834  -21.0486  -51.4899 N.am      18 UNK        -0.5000 
    100 CA        -5.3707  -20.4760  -50.7008 C.3       18 UNK         0.1400 
    101 CB        -5.0898  -20.6629  -49.2040 C.3       18 UNK        -0.1800 
    102 C         -6.7295  -21.0742  -51.0900 C.2       18 UNK         0.5000 
    103 O         -7.6963  -20.3292  -51.2525 O.2       18 UNK        -0.5000 
    104 N         -6.7566  -22.3994  -51.2860 N.am      19 UNK        -0.5000 
    105 CA        -7.9127  -23.1384  -51.7907 C.3       19 UNK         0.1400 
    106 CB        -7.6204  -24.6448  -51.7181 C.3       19 UNK        -0.1800 
    107 C         -8.3084  -22.7230  -53.2216 C.2       19 UNK         0.5000 
    108 O         -9.5004  -22.6628  -53.5262 O.2       19 UNK        -0.5000 
    109 N         -7.3072  -22.4336  -54.0644 N.am      20 UNK        -0.5000 
    110 CA        -7.4872  -21.9775  -55.4395 C.3       20 UNK         0.1400 
    111 CB        -6.1675  -22.1194  -56.2135 C.3       20 UNK        -0.1800 
    112 C         -8.0232  -20.5386  -55.5432 C.2       20 UNK         0.5000 
    113 O         -8.8888  -20.2947  -56.3862 O.2       20 UNK        -0.5000 
    114 N         -7.5078  -19.6114  -54.7205 N.am      21 UNK        -0.5000 
    115 CA        -7.8491  -18.1915  -54.8192 C.3       21 UNK         0.1400 
    116 CB        -7.0134  -17.5234  -55.9294 C.3       21 UNK        -0.1800 
    117 C         -7.7208  -17.4259  -53.4937 C.2       21 UNK         0.5000 
    118 O         -8.7182  -16.8842  -53.0158 O.2       21 UNK        -0.5000 
    119 N         -6.4941  -17.3162  -52.9686 N.am      22 UNK        -0.5000 
    120 CA        -6.1146  -16.3325  -51.9323 C.3       22 UNK         0.1400 
    121 C         -6.6102  -16.5943  -50.4789 C.2       22 UNK         0.5000 
    122 N         -7.3250  -17.6702  -50.1834 N.am      22 UNK        -0.7600 
    123 O         -6.3639  -15.7784  -49.5955 O.2       22 UNK        -0.5000 
    124 C124       -4.6070  -15.9491  -52.0009 C.3       23 UNK        -0.0398 
    125 S125       -3.4767  -17.3661  -52.1846 S.3       23 UNK        -0.2404 
    126 C126       -2.9630  -17.6938  -50.4701 C.3       23 UNK        -0.0205 
    127 H127        7.6294  -15.0244  -52.1362 H         1 UNK         0.0600 
    128 H128        7.0479  -15.9822  -53.5023 H         1 UNK         0.0600 
    129 H129        5.9055  -15.0646  -52.5175 H         1 UNK         0.0600 
    130 H130        4.7552  -16.3656  -51.1225 H         1 UNK         0.3000 
    131 H131        5.5324  -19.0614  -50.5075 H         1 UNK         0.0600 
    132 H132        3.2392  -17.4579  -49.2665 H         1 UNK         0.0800 
    133 H133        3.4504  -19.1859  -49.2334 H         1 UNK         0.0800 
    134 H134        1.5641  -16.7615  -52.5873 H         1 UNK         0.0800 
    135 H135        2.6467  -16.0807  -51.4067 H         1 UNK         0.0800 
    136 H136       -0.5891  -17.9025  -51.8043 H         1 UNK         0.1150 
    137 H137       -2.3637  -16.0842  -48.3529 H         1 UNK         0.1150 
    138 H138        1.7768  -15.4165  -49.2351 H         1 UNK         0.1150 
    139 H139        0.3171  -13.8277  -47.7327 H         1 UNK         0.0800 
    140 H140       -1.1454  -14.4923  -47.0553 H         1 UNK         0.0800 
    141 H141       -0.7460  -16.5848  -44.6470 H         1 UNK         0.0800 
    142 H142       -1.0504  -17.0517  -46.2935 H         1 UNK         0.0800 
    143 H143        1.4126  -17.9403  -44.7247 H         1 UNK         0.0600 
    144 H144       -1.2133  -18.9470  -44.4156 H         1 UNK         0.3000 
    145 H145       -0.3410  -22.2295  -43.3450 H         1 UNK         0.0600 
    146 H146       -1.6920  -21.5134  -41.3841 H         1 UNK         0.0600 
    147 H147       -0.0760  -20.8267  -41.3060 H         1 UNK         0.0600 
    148 H148       -1.4298  -19.8198  -41.7967 H         1 UNK         0.0600 
    149 H149       -2.7867  -20.6977  -43.6699 H         1 UNK         0.3000 
    150 H150       -3.4517  -21.7885  -46.9858 H         1 UNK         0.0600 
    151 H151       -4.2076  -23.6946  -45.5418 H         1 UNK         0.0600 
    152 H152       -5.5318  -22.6195  -45.9596 H         1 UNK         0.0600 
    153 H153       -4.8129  -22.5521  -44.3496 H         1 UNK         0.0600 
    154 H154       -4.9541  -20.2137  -45.1378 H         1 UNK         0.3000 
    155 H155       -3.5449  -17.0584  -46.0295 H         1 UNK         0.0600 
    156 H156       -5.8757  -16.5974  -46.6768 H         1 UNK         0.0600 
    157 H157       -6.2634  -18.3185  -46.6782 H         1 UNK         0.0600 
    158 H158       -5.1489  -17.6607  -47.8675 H         1 UNK         0.0600 
    159 H159       -5.7216  -17.5874  -44.3575 H         1 UNK         0.3000 
    160 H160       -5.6452  -17.3736  -42.1848 H         1 UNK         0.0600 
    161 H161       -3.6541  -19.4356  -41.0921 H         1 UNK         0.0600 
    162 H162       -5.1846  -19.8135  -41.8734 H         1 UNK         0.0600 
    163 H163       -5.1718  -18.9529  -40.3423 H         1 UNK         0.0600 
    164 H164       -3.0855  -17.0862  -40.7375 H         1 UNK         0.3000 
    165 H165       -3.0016  -13.5698  -41.0499 H         1 UNK         0.0600 
    166 H166       -3.6658  -15.2089  -38.5445 H         1 UNK         0.0600 
    167 H167       -2.9385  -13.6018  -38.5702 H         1 UNK         0.0600 
    168 H168       -4.5842  -13.8308  -39.1384 H         1 UNK         0.0600 
    169 H169       -1.4394  -15.4751  -39.5682 H         1 UNK         0.3000 
    170 H170        0.7920  -15.6443  -40.2259 H         1 UNK         0.0600 
    171 H171       -0.4087  -17.7831  -40.5439 H         1 UNK         0.0600 
    172 H172       -0.1341  -17.7215  -42.2770 H         1 UNK         0.0600 
    173 H173        1.2229  -17.9499  -41.1735 H         1 UNK         0.0600 
    174 H174        1.7269  -16.1612  -42.9064 H         1 UNK         0.3000 
    175 H175        2.6088  -13.8136  -44.1864 H         1 UNK         0.0600 
    176 H176        4.8543  -12.7924  -43.7774 H         1 UNK         0.0600 
    177 H177        3.5970  -11.9957  -42.8475 H         1 UNK         0.0600 
    178 H178        4.6925  -13.1183  -42.0522 H         1 UNK         0.0600 
    179 H179        3.8792  -15.5858  -44.6177 H         1 UNK         0.3000 
    180 H180        6.1093  -17.6252  -42.7435 H         1 UNK         0.0600 
    181 H181        4.9251  -19.3549  -43.9896 H         1 UNK         0.0600 
    182 H182        3.8253  -18.6687  -42.8040 H         1 UNK         0.0600 
    183 H183        3.6797  -18.2255  -44.4979 H         1 UNK         0.0600 
    184 H184        7.1467  -17.1301  -44.5951 H         1 UNK         0.3000 
    185 H185        6.9415  -15.2953  -47.0661 H         1 UNK         0.0600 
    186 H186        8.8240  -16.9036  -47.5511 H         1 UNK         0.0600 
    187 H187        8.6261  -16.5796  -45.8415 H         1 UNK         0.0600 
    188 H188        8.0528  -18.1017  -46.5188 H         1 UNK         0.0600 
    189 H189        6.0522  -16.0274  -48.9445 H         1 UNK         0.3000 
    190 H190       -0.7883  -19.5478  -47.0777 H         1 UNK         0.3000 
    191 H191        1.0156  -19.6837  -49.2568 H         1 UNK         0.0600 
    192 H192       -0.5433  -21.4982  -50.0445 H         1 UNK         0.0600 
    193 H193       -1.4027  -20.0752  -49.4821 H         1 UNK         0.0600 
    194 H194       -1.3211  -21.5027  -48.4634 H         1 UNK         0.0600 
    195 H195        0.6441  -21.7049  -46.4254 H         1 UNK         0.3000 
    196 H196        1.7548  -23.2735  -45.4092 H         1 UNK         0.0600 
    197 H197        4.1066  -23.8212  -45.9073 H         1 UNK         0.0600 
    198 H198        3.8693  -22.0799  -45.9467 H         1 UNK         0.0600 
    199 H199        4.0218  -22.9870  -47.4508 H         1 UNK         0.0600 
    200 H200        1.8805  -23.7492  -48.9278 H         1 UNK         0.3000 
    201 H201        1.5094  -26.6501  -48.8135 H         1 UNK         0.0600 
    202 H202        2.7702  -25.5570  -50.6650 H         1 UNK         0.0600 
    203 H203        1.3347  -24.6465  -51.1333 H         1 UNK         0.0600 
    204 H204        1.3640  -26.3991  -51.2952 H         1 UNK         0.0600 
    205 H205       -0.5424  -23.9585  -48.5175 H         1 UNK         0.3000 
    206 H206       -2.6762  -23.5374  -48.3253 H         1 UNK         0.0600 
    207 H207       -2.7008  -25.4842  -46.7963 H         1 UNK         0.0600 
    208 H208       -4.2435  -25.3117  -47.6196 H         1 UNK         0.0600 
    209 H209       -3.1162  -26.5579  -48.1327 H         1 UNK         0.0600 
    210 H210       -1.9528  -25.6976  -50.9548 H         1 UNK         0.3000 
    211 H211       -4.3265  -25.7881  -52.3604 H         1 UNK         0.0600 
    212 H212       -1.4690  -25.6769  -53.4664 H         1 UNK         0.0600 
    213 H213       -2.8774  -26.2544  -54.3506 H         1 UNK         0.0600 
    214 H214       -2.3227  -27.1225  -52.9276 H         1 UNK         0.0600 
    215 H215       -1.9405  -23.1333  -52.4288 H         1 UNK         0.3000 
    216 H216       -3.1350  -21.6197  -54.5389 H         1 UNK         0.0600 
    217 H217       -1.7236  -19.7684  -53.6564 H         1 UNK         0.0600 
    218 H218       -0.7957  -21.2563  -53.7601 H         1 UNK         0.0600 
    219 H219       -1.3836  -20.6857  -52.1979 H         1 UNK         0.0600 
    220 H220       -3.6765  -21.7045  -51.0219 H         1 UNK         0.3000 
    221 H221       -5.3972  -19.4068  -50.9103 H         1 UNK         0.0600 
    222 H222       -5.1236  -21.7107  -48.9070 H         1 UNK         0.0600 
    223 H223       -4.1090  -20.2723  -48.9389 H         1 UNK         0.0600 
    224 H224       -5.8282  -20.1317  -48.6030 H         1 UNK         0.0600 
    225 H225       -5.9157  -22.9344  -51.0931 H         1 UNK         0.3000 
    226 H226       -8.7588  -22.9220  -51.1353 H         1 UNK         0.0600 
    227 H227       -8.4827  -25.2258  -52.0473 H         1 UNK         0.0600 
    228 H228       -6.7767  -24.9223  -52.3503 H         1 UNK         0.0600 
    229 H229       -7.3889  -24.9532  -50.6983 H         1 UNK         0.0600 
    230 H230       -6.3522  -22.5840  -53.7583 H         1 UNK         0.3000 
    231 H231       -8.2188  -22.6346  -55.9147 H         1 UNK         0.0600 
    232 H232       -6.2848  -21.7955  -57.2484 H         1 UNK         0.0600 
    233 H233       -5.8329  -23.1565  -56.2351 H         1 UNK         0.0600 
    234 H234       -5.3726  -21.5195  -55.7710 H         1 UNK         0.0600 
    235 H235       -6.7777  -19.8708  -54.0635 H         1 UNK         0.3000 
    236 H236       -8.9003  -18.1049  -55.1036 H         1 UNK         0.0600 
    237 H237       -5.9437  -17.6591  -55.7656 H         1 UNK         0.0600 
    238 H238       -7.2541  -17.9367  -56.9089 H         1 UNK         0.0600 
    239 H239       -7.2070  -16.4509  -55.9766 H         1 UNK         0.0600 
    240 H240       -5.7286  -17.8352  -53.3790 H         1 UNK         0.3000 
    241 H241       -6.6459  -15.4162  -52.1979 H         1 UNK         0.0600 
    242 H242       -7.6606  -17.7852  -49.2418 H         1 UNK         0.3800 
    243 H243       -7.5637  -18.3627  -50.8838 H         1 UNK         0.3800 
    244 H244       -4.2977  -15.3358  -51.1526 H         1 UNK         0.0800 
    245 H245       -4.4502  -15.3172  -52.8759 H         1 UNK         0.0800 
    246 H246       -3.7444  -17.3751  -49.7804 H         1 UNK         0.0800 
    247 H247       -2.8798  -18.7705  -50.3535 H         1 UNK         0.0800 
@<TRIPOS>BOND
     1    1    2 1    
     2    1  127 1    
     3    1  128 1    
     4    1  129 1    
     5    2    3 2    
     6    2    4 am   BACKBONE|DICT|INTERRES
     7    4    5 1    
     8    4  130 1    
     9    5    6 1    
    10    5   65 1    
    11    5  131 1    
    12    6    7 1    
    13    6  132 1    
    14    6  133 1    
    15    7    8 1    
    16    8    9 1    
    17    8  134 1    
    18    8  135 1    
    19    9   10 ar   
    20    9   14 ar   
    21   10   11 ar   
    22   10  136 1    
    23   11   12 ar   
    24   11  126 1    
    25   12   13 ar   
    26   12  137 1    
    27   13   14 ar   
    28   13   15 1    
    29   14  138 1    
    30   15   16 1    
    31   15  139 1    
    32   15  140 1    
    33   16   17 1    
    34   17   18 1    
    35   17  141 1    
    36   17  142 1    
    37   18   19 1    
    38   18   67 1    
    39   18  143 1    
    40   19   20 am   BACKBONE|DICT|INTERRES
    41   19  144 1    
    42   20   21 2    
    43   20   22 1    
    44   22   23 1    
    45   22   24 1    
    46   22  145 1    
    47   23  146 1    
    48   23  147 1    
    49   23  148 1    
    50   24   25 am   BACKBONE|DICT|INTERRES
    51   24  149 1    
    52   25   26 2    
    53   25   27 1    
    54   27   28 1    
    55   27   29 1    
    56   27  150 1    
    57   28  151 1    
    58   28  152 1    
    59   28  153 1    
    60   29   30 am   BACKBONE|DICT|INTERRES
    61   29  154 1    
    62   30   31 2    
    63   30   32 1    
    64   32   33 1    
    65   32   34 1    
    66   32  155 1    
    67   33  156 1    
    68   33  157 1    
    69   33  158 1    
    70   34   35 am   BACKBONE|DICT|INTERRES
    71   34  159 1    
    72   35   36 2    
    73   35   37 1    
    74   37   38 1    
    75   37   39 1    
    76   37  160 1    
    77   38  161 1    
    78   38  162 1    
    79   38  163 1    
    80   39   40 am   BACKBONE|DICT|INTERRES
    81   39  164 1    
    82   40   41 2    
    83   40   42 1    
    84   42   43 1    
    85   42   44 1    
    86   42  165 1    
    87   43  166 1    
    88   43  167 1    
    89   43  168 1    
    90   44   45 am   BACKBONE|DICT|INTERRES
    91   44  169 1    
    92   45   46 2    
    93   45   47 1    
    94   47   48 1    
    95   47   49 1    
    96   47  170 1    
    97   48  171 1    
    98   48  172 1    
    99   48  173 1    
   100   49   50 am   BACKBONE|DICT|INTERRES
   101   49  174 1    
   102   50   51 2    
   103   50   52 1    
   104   52   53 1    
   105   52   54 1    
   106   52  175 1    
   107   53  176 1    
   108   53  177 1    
   109   53  178 1    
   110   54   55 am   BACKBONE|DICT|INTERRES
   111   54  179 1    
   112   55   56 2    
   113   55   57 1    
   114   57   58 1    
   115   57   59 1    
   116   57  180 1    
   117   58  181 1    
   118   58  182 1    
   119   58  183 1    
   120   59   60 am   BACKBONE|DICT|INTERRES
   121   59  184 1    
   122   60   61 2    
   123   60   62 1    
   124   62   63 1    
   125   62   64 1    
   126   62  185 1    
   127   63  186 1    
   128   63  187 1    
   129   63  188 1    
   130   64   65 am   BACKBONE|DICT|INTERRES
   131   64  189 1    
   132   65   66 2    
   133   67   68 2    
   134   67   69 am   BACKBONE|DICT|INTERRES
   135   69   70 1    
   136   69  190 1    
   137   70   71 1    
   138   70   72 1    
   139   70  191 1    
   140   71  192 1    
   141   71  193 1    
   142   71  194 1    
   143   72   73 2    
   144   72   74 am   BACKBONE|DICT|INTERRES
   145   74   75 1    
   146   74  195 1    
   147   75   76 1    
   148   75   77 1    
   149   75  196 1    
   150   76  197 1    
   151   76  198 1    
   152   76  199 1    
   153   77   78 2    
   154   77   79 am   BACKBONE|DICT|INTERRES
   155   79   80 1    
   156   79  200 1    
   157   80   81 1    
   158   80   82 1    
   159   80  201 1    
   160   81  202 1    
   161   81  203 1    
   162   81  204 1    
   163   82   83 2    
   164   82   84 am   BACKBONE|DICT|INTERRES
   165   84   85 1    
   166   84  205 1    
   167   85   86 1    
   168   85   87 1    
   169   85  206 1    
   170   86  207 1    
   171   86  208 1    
   172   86  209 1    
   173   87   88 2    
   174   87   89 am   BACKBONE|DICT|INTERRES
   175   89   90 1    
   176   89  210 1    
   177   90   91 1    
   178   90   92 1    
   179   90  211 1    
   180   91  212 1    
   181   91  213 1    
   182   91  214 1    
   183   92   93 2    
   184   92   94 am   BACKBONE|DICT|INTERRES
   185   94   95 1    
   186   94  215 1    
   187   95   96 1    
   188   95   97 1    
   189   95  216 1    
   190   96  217 1    
   191   96  218 1    
   192   96  219 1    
   193   97   98 2    
   194   97   99 am   BACKBONE|DICT|INTERRES
   195   99  100 1    
   196   99  220 1    
   197  100  101 1    
   198  100  102 1    
   199  100  221 1    
   200  101  222 1    
   201  101  223 1    
   202  101  224 1    
   203  102  103 2    
   204  102  104 am   BACKBONE|DICT|INTERRES
   205  104  105 1    
   206  104  225 1    
   207  105  106 1    
   208  105  107 1    
   209  105  226 1    
   210  106  227 1    
   211  106  228 1    
   212  106  229 1    
   213  107  108 2    
   214  107  109 am   BACKBONE|DICT|INTERRES
   215  109  110 1    
   216  109  230 1    
   217  110  111 1    
   218  110  112 1    
   219  110  231 1    
   220  111  232 1    
   221  111  233 1    
   222  111  234 1    
   223  112  113 2    
   224  112  114 am   BACKBONE|DICT|INTERRES
   225  114  115 1    
   226  114  235 1    
   227  115  116 1    
   228  115  117 1    
   229  115  236 1    
   230  116  237 1    
   231  116  238 1    
   232  116  239 1    
   233  117  118 2    
   234  117  119 am   BACKBONE|DICT|INTERRES
   235  119  120 1    
   236  119  240 1    
   237  120  121 1    
   238  120  124 1    
   239  120  241 1    
   240  121  122 am   BACKBONE|DICT|INTERRES
   241  121  123 2    
   242  122  242 1    
   243  122  243 1    
   244  124  125 1    
   245  124  244 1    
   246  124  245 1    
   247  125  126 1    
   248  126  246 1    
   249  126  247 1    
@<TRIPOS>SUBSTRUCTURE
     1 UNK         1 GROUP             0       ****    0 ROOT    
