@<TRIPOS>MOLECULE
3R540
247   249    1
SMALL
USER_CHARGES


@<TRIPOS>ATOM
      1 CA         -0.3066  -10.9203  -46.3935 C.3       0 UNK        -0.1800 
      2 C          -0.9412  -12.2951  -46.5407 C.2       0 UNK         0.5000 
      3 O          -2.1488  -12.4314  -46.3409 O.2       0 UNK        -0.5000 
      4 N          -0.1312  -13.3074  -46.8807 N.am      1 UNK        -0.5000 
      5 CA         -0.4991  -14.7108  -47.1218 C.3       1 UNK         0.1400 
      6 C6         -1.4586  -14.9203  -48.3279 C.3       23 UNK        -0.0398 
      7 S7         -0.8416  -14.1580  -49.8692 S.3       23 UNK        -0.2404 
      8 C8         -1.1521  -15.4733  -51.0991 C.3       23 UNK        -0.0205 
      9 C9         -0.1856  -16.6603  -51.0899 C.ar      23 UNK        -0.0193 
     10 C10        -0.4300  -17.7120  -51.9762 C.ar      23 UNK        -0.1150 
     11 C11         0.4119  -18.8269  -52.0373 C.ar      23 UNK        -0.0193 
     12 C12         1.5152  -18.8900  -51.1755 C.ar      23 UNK        -0.1150 
     13 C13         1.7729  -17.8514  -50.2764 C.ar      23 UNK        -0.0193 
     14 C14         0.9327  -16.7355  -50.2518 C.ar      23 UNK        -0.1150 
     15 C15         2.9586  -17.9252  -49.3237 C.3       23 UNK        -0.0205 
     16 S16         2.7191  -19.1365  -47.9810 S.3       23 UNK        -0.2404 
     17 C17         1.1369  -18.6175  -47.2252 C.3       23 UNK        -0.0398 
     18 CA          0.1942  -19.8250  -47.0449 C.3       11 UNK         0.1400 
     19 N           0.7028  -20.8051  -46.0740 N.am      11 UNK        -0.5000 
     20 C           0.2139  -22.0484  -45.9498 C.2       10 UNK         0.5000 
     21 O          -0.7040  -22.4738  -46.6534 O.2       10 UNK        -0.5000 
     22 CA          0.7642  -22.9332  -44.8144 C.3       10 UNK         0.1400 
     23 CB          0.7908  -24.4313  -45.1827 C.3       10 UNK        -0.1800 
     24 N           2.0466  -22.4827  -44.2673 N.am      10 UNK        -0.5000 
     25 C           3.2601  -22.5364  -44.8394 C.2       9 UNK         0.5000 
     26 O           3.4647  -22.9842  -45.9678 O.2       9 UNK        -0.5000 
     27 CA          4.4487  -22.0020  -44.0094 C.3       9 UNK         0.1400 
     28 CB          5.3661  -21.0969  -44.8513 C.3       9 UNK        -0.1800 
     29 N           3.9986  -21.2573  -42.8309 N.am      9 UNK        -0.5000 
     30 C           3.8404  -21.7632  -41.5996 C.2       8 UNK         0.5000 
     31 O           4.1456  -22.9159  -41.2936 O.2       8 UNK        -0.5000 
     32 CA          3.2062  -20.8435  -40.5344 C.3       8 UNK         0.1400 
     33 CB          4.2858  -20.2865  -39.5944 C.3       8 UNK        -0.1800 
     34 N           2.4445  -19.7287  -41.1056 N.am      8 UNK        -0.5000 
     35 C           1.2664  -19.8515  -41.7381 C.2       7 UNK         0.5000 
     36 O           0.6786  -20.9237  -41.8803 O.2       7 UNK        -0.5000 
     37 CA          0.6831  -18.5813  -42.3924 C.3       7 UNK         0.1400 
     38 CB         -0.2243  -17.8338  -41.4062 C.3       7 UNK        -0.1800 
     39 N           1.7061  -17.6648  -42.8976 N.am      7 UNK        -0.5000 
     40 C           2.6586  -17.9932  -43.7837 C.2       6 UNK         0.5000 
     41 O           2.6986  -19.0902  -44.3412 O.2       6 UNK        -0.5000 
     42 CA          3.7833  -16.9706  -44.0538 C.3       6 UNK         0.1400 
     43 CB          3.5458  -16.2475  -45.3876 C.3       6 UNK        -0.1800 
     44 N           3.9415  -15.9626  -43.0048 N.am      6 UNK        -0.5000 
     45 C           4.1715  -16.1866  -41.7024 C.2       5 UNK         0.5000 
     46 O           4.3837  -17.3024  -41.2275 O.2       5 UNK        -0.5000 
     47 CA          4.0733  -14.9637  -40.7658 C.3       5 UNK         0.1400 
     48 CB          5.4753  -14.4636  -40.3875 C.3       5 UNK        -0.1800 
     49 N           3.2991  -13.8454  -41.3236 N.am      5 UNK        -0.5000 
     50 C           2.0106  -13.8993  -41.6907 C.2       4 UNK         0.5000 
     51 O           1.3079  -14.9080  -41.5824 O.2       4 UNK        -0.5000 
     52 CA          1.4426  -12.6380  -42.3528 C.3       4 UNK         0.1400 
     53 CB          2.0241  -12.4515  -43.7672 C.3       4 UNK        -0.1800 
     54 N          -0.0068  -12.7587  -42.4385 N.am      4 UNK        -0.5000 
     55 C          -0.8717  -11.7429  -42.5090 C.2       3 UNK         0.5000 
     56 O          -0.5256  -10.5603  -42.5018 O.2       3 UNK        -0.5000 
     57 CA         -2.3631  -12.1137  -42.6309 C.3       3 UNK         0.1400 
     58 CB         -3.2193  -10.9434  -43.1484 C.3       3 UNK        -0.1800 
     59 N          -2.5511  -13.2550  -43.5268 N.am      3 UNK        -0.5000 
     60 C          -2.7069  -14.5298  -43.1462 C.2       2 UNK         0.5000 
     61 O          -2.6770  -14.8992  -41.9731 O.2       2 UNK        -0.5000 
     62 CA         -2.9316  -15.5670  -44.2610 C.3       2 UNK         0.1400 
     63 CB         -4.4379  -15.7591  -44.5030 C.3       2 UNK        -0.1800 
     64 N          -2.2991  -15.1675  -45.5153 N.am      2 UNK        -0.5000 
     65 C          -1.0156  -15.3816  -45.8311 C.2       1 UNK         0.5000 
     66 O          -0.2416  -16.0470  -45.1438 O.2       1 UNK        -0.5000 
     67 C          -1.2450  -19.3678  -46.7232 C.2       11 UNK         0.5000 
     68 O          -1.9540  -18.9398  -47.6323 O.2       11 UNK        -0.5000 
     69 N          -1.6744  -19.5172  -45.4607 N.am      12 UNK        -0.5000 
     70 CA         -3.0579  -19.3221  -45.0291 C.3       12 UNK         0.1400 
     71 CB         -3.1285  -19.3549  -43.4943 C.3       12 UNK        -0.1800 
     72 C          -4.0043  -20.3738  -45.6324 C.2       12 UNK         0.5000 
     73 O          -5.0672  -20.0208  -46.1436 O.2       12 UNK        -0.5000 
     74 N          -3.5761  -21.6438  -45.5954 N.am      13 UNK        -0.5000 
     75 CA         -4.2885  -22.7714  -46.1932 C.3       13 UNK         0.1400 
     76 CB         -3.6753  -24.0930  -45.7066 C.3       13 UNK        -0.1800 
     77 C          -4.2899  -22.6935  -47.7278 C.2       13 UNK         0.5000 
     78 O          -5.3175  -22.9730  -48.3431 O.2       13 UNK        -0.5000 
     79 N          -3.1610  -22.2660  -48.3131 N.am      14 UNK        -0.5000 
     80 CA         -3.0260  -22.0132  -49.7473 C.3       14 UNK         0.1400 
     81 CB         -1.5661  -21.6932  -50.0952 C.3       14 UNK        -0.1800 
     82 C          -3.9656  -20.8946  -50.2310 C.2       14 UNK         0.5000 
     83 O          -4.6529  -21.0815  -51.2331 O.2       14 UNK        -0.5000 
     84 N          -4.0261  -19.7782  -49.4901 N.am      15 UNK        -0.5000 
     85 CA         -4.9422  -18.6658  -49.7485 C.3       15 UNK         0.1400 
     86 CB         -4.6326  -17.5005  -48.7968 C.3       15 UNK        -0.1800 
     87 C          -6.4223  -19.0797  -49.6534 C.2       15 UNK         0.5000 
     88 O          -7.2037  -18.7310  -50.5390 O.2       15 UNK        -0.5000 
     89 N          -6.7694  -19.8618  -48.6203 N.am      16 UNK        -0.5000 
     90 CA         -8.1066  -20.4288  -48.4181 C.3       16 UNK         0.1400 
     91 CB         -8.1699  -21.1097  -47.0428 C.3       16 UNK        -0.1800 
     92 C          -8.5322  -21.4078  -49.5320 C.2       16 UNK         0.5000 
     93 O          -9.7081  -21.4414  -49.8954 O.2       16 UNK        -0.5000 
     94 N          -7.5655  -22.1580  -50.0765 N.am      17 UNK        -0.5000 
     95 CA         -7.7354  -23.0782  -51.2030 C.3       17 UNK         0.1400 
     96 CB         -6.6087  -24.1242  -51.1555 C.3       17 UNK        -0.1800 
     97 C          -7.7683  -22.3817  -52.5812 C.2       17 UNK         0.5000 
     98 O          -7.9421  -23.0711  -53.5869 O.2       17 UNK        -0.5000 
     99 N          -7.5854  -21.0517  -52.6158 N.am      18 UNK        -0.5000 
    100 CA        -7.4740  -20.2004  -53.8070 C.3       18 UNK         0.1400 
    101 CB        -8.7878  -20.1896  -54.6163 C.3       18 UNK        -0.1800 
    102 C         -6.2315  -20.5396  -54.6585 C.2       18 UNK         0.5000 
    103 O         -6.2900  -20.5264  -55.8901 O.2       18 UNK        -0.5000 
    104 N         -5.1257  -20.8371  -53.9644 N.am      19 UNK        -0.5000 
    105 CA        -3.7973  -21.2191  -54.4375 C.3       19 UNK         0.1400 
    106 CB        -3.1571  -20.1221  -55.3091 C.3       19 UNK        -0.1800 
    107 C         -3.7542  -22.6011  -55.1096 C.2       19 UNK         0.5000 
    108 O         -3.0546  -23.4857  -54.6142 O.2       19 UNK        -0.5000 
    109 N         -4.4789  -22.7631  -56.2244 N.am      20 UNK        -0.5000 
    110 CA        -4.4971  -23.9435  -57.0943 C.3       20 UNK         0.1400 
    111 CB        -5.2430  -25.1075  -56.4038 C.3       20 UNK        -0.1800 
    112 C         -3.0704  -24.2967  -57.5718 C.2       20 UNK         0.5000 
    113 O         -2.4769  -23.5119  -58.3140 O.2       20 UNK        -0.5000 
    114 N         -2.5186  -25.4224  -57.0963 N.am      21 UNK        -0.5000 
    115 CA        -1.1483  -25.8791  -57.3555 C.3       21 UNK         0.1400 
    116 CB        -0.9710  -27.2813  -56.7532 C.3       21 UNK        -0.1800 
    117 C         -0.0497  -24.9255  -56.8353 C.2       21 UNK         0.5000 
    118 O          1.0644  -24.9476  -57.3599 O.2       21 UNK        -0.5000 
    119 N         -0.3822  -24.0951  -55.8380 N.am      22 UNK        -0.5000 
    120 CA         0.4495  -22.9843  -55.3466 C.3       22 UNK         0.1400 
    121 C          0.5267  -21.7783  -56.3377 C.2       22 UNK         0.5000 
    122 N         -0.3252  -21.6827  -57.3540 N.am      22 UNK        -0.7600 
    123 O          1.3960  -20.9223  -56.2061 O.2       22 UNK        -0.5000 
    124 C124       -0.0291  -22.5721  -53.9291 C.3       23 UNK        -0.0398 
    125 S125        1.0561  -21.4537  -52.9772 S.3       23 UNK        -0.2404 
    126 C126        0.0658  -19.9167  -53.0518 C.3       23 UNK        -0.0205 
    127 H127       -0.7571  -10.2240  -47.1006 H         1 UNK         0.0600 
    128 H128       -0.4696  -10.5363  -45.3868 H         1 UNK         0.0600 
    129 H129        0.7673  -10.9461  -46.5791 H         1 UNK         0.0600 
    130 H130        0.8496  -13.1064  -47.0137 H         1 UNK         0.3000 
    131 H131        0.4362  -15.2164  -47.3668 H         1 UNK         0.0600 
    132 H132       -1.6053  -15.9889  -48.4937 H         1 UNK         0.0800 
    133 H133       -2.4465  -14.5012  -48.1333 H         1 UNK         0.0800 
    134 H134       -1.1134  -15.0154  -52.0885 H         1 UNK         0.0800 
    135 H135       -2.1724  -15.8385  -50.9716 H         1 UNK         0.0800 
    136 H136       -1.2865  -17.6589  -52.6343 H         1 UNK         0.1150 
    137 H137        2.1793  -19.7415  -51.1884 H         1 UNK         0.1150 
    138 H138        1.1580  -15.9345  -49.5651 H         1 UNK         0.1150 
    139 H139        3.8535  -18.1960  -49.8856 H         1 UNK         0.0800 
    140 H140        3.1621  -16.9479  -48.8832 H         1 UNK         0.0800 
    141 H141        0.6628  -17.8603  -47.8466 H         1 UNK         0.0800 
    142 H142        1.3243  -18.1248  -46.2742 H         1 UNK         0.0800 
    143 H143        0.1388  -20.3326  -48.0091 H         1 UNK         0.0600 
    144 H144        1.4708  -20.5034  -45.4848 H         1 UNK         0.3000 
    145 H145        0.0519  -22.8226  -43.9957 H         1 UNK         0.0600 
    146 H146        1.1844  -25.0331  -44.3636 H         1 UNK         0.0600 
    147 H147       -0.2131  -24.7985  -45.3986 H         1 UNK         0.0600 
    148 H148        1.4004  -24.6231  -46.0658 H         1 UNK         0.0600 
    149 H149        1.9881  -22.0709  -43.3448 H         1 UNK         0.3000 
    150 H150        5.0341  -22.8681  -43.6948 H         1 UNK         0.0600 
    151 H151        5.8180  -21.6551  -45.6720 H         1 UNK         0.0600 
    152 H152        6.1801  -20.6908  -44.2508 H         1 UNK         0.0600 
    153 H153        4.8225  -20.2602  -45.2903 H         1 UNK         0.0600 
    154 H154        3.6693  -20.3175  -43.0181 H         1 UNK         0.3000 
    155 H155        2.5212  -21.4528  -39.9412 H         1 UNK         0.0600 
    156 H156        5.0247  -19.6952  -40.1363 H         1 UNK         0.0600 
    157 H157        4.8191  -21.0940  -39.0911 H         1 UNK         0.0600 
    158 H158        3.8500  -19.6535  -38.8213 H         1 UNK         0.0600 
    159 H159        2.8929  -18.8194  -41.0750 H         1 UNK         0.3000 
    160 H160        0.0791  -18.8955  -43.2443 H         1 UNK         0.0600 
    161 H161       -0.7155  -16.9888  -41.8892 H         1 UNK         0.0600 
    162 H162        0.3390  -17.4492  -40.5551 H         1 UNK         0.0600 
    163 H163       -1.0059  -18.4869  -41.0162 H         1 UNK         0.0600 
    164 H164        1.7072  -16.7320  -42.4990 H         1 UNK         0.3000 
    165 H165        4.7203  -17.5267  -44.1209 H         1 UNK         0.0600 
    166 H166        4.3361  -15.5259  -45.5950 H         1 UNK         0.0600 
    167 H167        3.5360  -16.9544  -46.2157 H         1 UNK         0.0600 
    168 H168        2.5930  -15.7161  -45.3942 H         1 UNK         0.0600 
    169 H169        3.7796  -15.0074  -43.2845 H         1 UNK         0.3000 
    170 H170        3.5687  -15.2947  -39.8558 H         1 UNK         0.0600 
    171 H171        6.0694  -15.2639  -39.9438 H         1 UNK         0.0600 
    172 H172        6.0194  -14.0949  -41.2579 H         1 UNK         0.0600 
    173 H173        5.4232  -13.6570  -39.6559 H         1 UNK         0.0600 
    174 H174        3.8042  -12.9802  -41.4530 H         1 UNK         0.3000 
    175 H175        1.7036  -11.7815  -41.7276 H         1 UNK         0.0600 
    176 H176        1.6567  -11.5334  -44.2244 H         1 UNK         0.0600 
    177 H177        3.1122  -12.3824  -43.7467 H         1 UNK         0.0600 
    178 H178        1.7573  -13.2823  -44.4219 H         1 UNK         0.0600 
    179 H179       -0.3516  -13.7096  -42.3800 H         1 UNK         0.3000 
    180 H180       -2.7132  -12.3631  -41.6273 H         1 UNK         0.0600 
    181 H181       -2.8943  -10.6137  -44.1361 H         1 UNK         0.0600 
    182 H182       -3.1617  -10.0854  -42.4775 H         1 UNK         0.0600 
    183 H183       -4.2697  -11.2262  -43.2197 H         1 UNK         0.0600 
    184 H184       -2.5346  -13.0400  -44.5192 H         1 UNK         0.3000 
    185 H185       -2.5016  -16.5124  -43.9315 H         1 UNK         0.0600 
    186 H186       -4.9306  -14.8143  -44.7368 H         1 UNK         0.0600 
    187 H187       -4.6323  -16.4412  -45.3300 H         1 UNK         0.0600 
    188 H188       -4.9234  -16.1718  -43.6178 H         1 UNK         0.0600 
    189 H189       -2.8259  -14.5310  -46.0993 H         1 UNK         0.3000 
    190 H190       -1.0279  -19.8817  -44.7790 H         1 UNK         0.3000 
    191 H191       -3.3824  -18.3424  -45.3783 H         1 UNK         0.0600 
    192 H192       -2.8207  -20.3215  -43.0935 H         1 UNK         0.0600 
    193 H193       -4.1454  -19.1647  -43.1484 H         1 UNK         0.0600 
    194 H194       -2.4894  -18.5962  -43.0475 H         1 UNK         0.0600 
    195 H195       -2.6683  -21.8430  -45.2043 H         1 UNK         0.3000 
    196 H196       -5.3261  -22.7348  -45.8548 H         1 UNK         0.0600 
    197 H197       -4.2278  -24.9453  -46.1039 H         1 UNK         0.0600 
    198 H198       -3.7046  -24.1655  -44.6194 H         1 UNK         0.0600 
    199 H199       -2.6379  -24.2015  -46.0230 H         1 UNK         0.0600 
    200 H200       -2.3390  -22.1214  -47.7354 H         1 UNK         0.3000 
    201 H201       -3.3017  -22.9334  -50.2667 H         1 UNK         0.0600 
    202 H202       -0.8779  -22.4081  -49.6437 H         1 UNK         0.0600 
    203 H203       -1.2785  -20.6930  -49.7717 H         1 UNK         0.0600 
    204 H204       -1.4184  -21.7400  -51.1731 H         1 UNK         0.0600 
    205 H205       -3.3935  -19.6680  -48.7029 H         1 UNK         0.3000 
    206 H206       -4.7622  -18.3224  -50.7694 H         1 UNK         0.0600 
    207 H207       -3.6195  -17.1325  -48.9515 H         1 UNK         0.0600 
    208 H208       -5.3113  -16.6638  -48.9658 H         1 UNK         0.0600 
    209 H209       -4.7251  -17.7953  -47.7512 H         1 UNK         0.0600 
    210 H210       -6.0732  -20.0749  -47.9126 H         1 UNK         0.3000 
    211 H211       -8.8190  -19.6013  -48.4191 H         1 UNK         0.0600 
    212 H212       -7.4668  -21.9395  -46.9721 H         1 UNK         0.0600 
    213 H213       -9.1671  -21.5066  -46.8488 H         1 UNK         0.0600 
    214 H214       -7.9382  -20.4059  -46.2431 H         1 UNK         0.0600 
    215 H215       -6.6357  -22.1146  -49.6724 H         1 UNK         0.3000 
    216 H216       -8.6863  -23.6013  -51.0845 H         1 UNK         0.0600 
    217 H217       -6.7242  -24.8665  -51.9462 H         1 UNK         0.0600 
    218 H218       -6.6089  -24.6610  -50.2068 H         1 UNK         0.0600 
    219 H219       -5.6282  -23.6636  -51.2794 H         1 UNK         0.0600 
    220 H220       -7.4390  -20.5756  -51.7339 H         1 UNK         0.3000 
    221 H221       -7.3140  -19.1873  -53.4355 H         1 UNK         0.0600 
    222 H222       -8.9844  -21.1518  -55.0896 H         1 UNK         0.0600 
    223 H223       -9.6396  -19.9467  -53.9812 H         1 UNK         0.0600 
    224 H224       -8.7500  -19.4407  -55.4081 H         1 UNK         0.0600 
    225 H225       -5.2062  -20.8629  -52.9488 H         1 UNK         0.3000 
    226 H226       -3.1926  -21.2982  -53.5335 H         1 UNK         0.0600 
    227 H227       -3.6928  -19.9732  -56.2467 H         1 UNK         0.0600 
    228 H228       -2.1283  -20.3775  -55.5612 H         1 UNK         0.0600 
    229 H229       -3.1323  -19.1680  -54.7827 H         1 UNK         0.0600 
    230 H230       -5.0525  -21.9781  -56.5172 H         1 UNK         0.3000 
    231 H231       -5.0619  -23.6683  -57.9860 H         1 UNK         0.0600 
    232 H232       -6.2655  -24.8184  -56.1596 H         1 UNK         0.0600 
    233 H233       -4.7637  -25.4184  -55.4750 H         1 UNK         0.0600 
    234 H234       -5.3041  -25.9786  -57.0574 H         1 UNK         0.0600 
    235 H235       -3.0649  -25.9852  -56.4604 H         1 UNK         0.3000 
    236 H236       -1.0248  -25.9537  -58.4378 H         1 UNK         0.0600 
    237 H237        0.0288  -27.6695  -56.9525 H         1 UNK         0.0600 
    238 H238       -1.1108  -27.2741  -55.6714 H         1 UNK         0.0600 
    239 H239       -1.6829  -27.9880  -57.1803 H         1 UNK         0.0600 
    240 H240       -1.3274  -24.1346  -55.4702 H         1 UNK         0.3000 
    241 H241        1.4687  -23.3623  -55.2485 H         1 UNK         0.0600 
    242 H242       -0.2387  -20.9042  -57.9875 H         1 UNK         0.3800 
    243 H243       -1.0247  -22.3935  -57.5381 H         1 UNK         0.3800 
    244 H244       -1.0191  -22.1309  -53.9929 H         1 UNK         0.0800 
    245 H245       -0.1525  -23.4675  -53.3180 H         1 UNK         0.0800 
    246 H246        0.1547  -19.4994  -54.0559 H         1 UNK         0.0800 
    247 H247       -0.9867  -20.1644  -52.9131 H         1 UNK         0.0800 
@<TRIPOS>BOND
     1    1    2 1    
     2    1  127 1    
     3    1  128 1    
     4    1  129 1    
     5    2    3 2    
     6    2    4 am   BACKBONE|DICT|INTERRES
     7    4    5 1    
     8    4  130 1    
     9    5    6 1    
    10    5   65 1    
    11    5  131 1    
    12    6    7 1    
    13    6  132 1    
    14    6  133 1    
    15    7    8 1    
    16    8    9 1    
    17    8  134 1    
    18    8  135 1    
    19    9   10 ar   
    20    9   14 ar   
    21   10   11 ar   
    22   10  136 1    
    23   11   12 ar   
    24   11  126 1    
    25   12   13 ar   
    26   12  137 1    
    27   13   14 ar   
    28   13   15 1    
    29   14  138 1    
    30   15   16 1    
    31   15  139 1    
    32   15  140 1    
    33   16   17 1    
    34   17   18 1    
    35   17  141 1    
    36   17  142 1    
    37   18   19 1    
    38   18   67 1    
    39   18  143 1    
    40   19   20 am   BACKBONE|DICT|INTERRES
    41   19  144 1    
    42   20   21 2    
    43   20   22 1    
    44   22   23 1    
    45   22   24 1    
    46   22  145 1    
    47   23  146 1    
    48   23  147 1    
    49   23  148 1    
    50   24   25 am   BACKBONE|DICT|INTERRES
    51   24  149 1    
    52   25   26 2    
    53   25   27 1    
    54   27   28 1    
    55   27   29 1    
    56   27  150 1    
    57   28  151 1    
    58   28  152 1    
    59   28  153 1    
    60   29   30 am   BACKBONE|DICT|INTERRES
    61   29  154 1    
    62   30   31 2    
    63   30   32 1    
    64   32   33 1    
    65   32   34 1    
    66   32  155 1    
    67   33  156 1    
    68   33  157 1    
    69   33  158 1    
    70   34   35 am   BACKBONE|DICT|INTERRES
    71   34  159 1    
    72   35   36 2    
    73   35   37 1    
    74   37   38 1    
    75   37   39 1    
    76   37  160 1    
    77   38  161 1    
    78   38  162 1    
    79   38  163 1    
    80   39   40 am   BACKBONE|DICT|INTERRES
    81   39  164 1    
    82   40   41 2    
    83   40   42 1    
    84   42   43 1    
    85   42   44 1    
    86   42  165 1    
    87   43  166 1    
    88   43  167 1    
    89   43  168 1    
    90   44   45 am   BACKBONE|DICT|INTERRES
    91   44  169 1    
    92   45   46 2    
    93   45   47 1    
    94   47   48 1    
    95   47   49 1    
    96   47  170 1    
    97   48  171 1    
    98   48  172 1    
    99   48  173 1    
   100   49   50 am   BACKBONE|DICT|INTERRES
   101   49  174 1    
   102   50   51 2    
   103   50   52 1    
   104   52   53 1    
   105   52   54 1    
   106   52  175 1    
   107   53  176 1    
   108   53  177 1    
   109   53  178 1    
   110   54   55 am   BACKBONE|DICT|INTERRES
   111   54  179 1    
   112   55   56 2    
   113   55   57 1    
   114   57   58 1    
   115   57   59 1    
   116   57  180 1    
   117   58  181 1    
   118   58  182 1    
   119   58  183 1    
   120   59   60 am   BACKBONE|DICT|INTERRES
   121   59  184 1    
   122   60   61 2    
   123   60   62 1    
   124   62   63 1    
   125   62   64 1    
   126   62  185 1    
   127   63  186 1    
   128   63  187 1    
   129   63  188 1    
   130   64   65 am   BACKBONE|DICT|INTERRES
   131   64  189 1    
   132   65   66 2    
   133   67   68 2    
   134   67   69 am   BACKBONE|DICT|INTERRES
   135   69   70 1    
   136   69  190 1    
   137   70   71 1    
   138   70   72 1    
   139   70  191 1    
   140   71  192 1    
   141   71  193 1    
   142   71  194 1    
   143   72   73 2    
   144   72   74 am   BACKBONE|DICT|INTERRES
   145   74   75 1    
   146   74  195 1    
   147   75   76 1    
   148   75   77 1    
   149   75  196 1    
   150   76  197 1    
   151   76  198 1    
   152   76  199 1    
   153   77   78 2    
   154   77   79 am   BACKBONE|DICT|INTERRES
   155   79   80 1    
   156   79  200 1    
   157   80   81 1    
   158   80   82 1    
   159   80  201 1    
   160   81  202 1    
   161   81  203 1    
   162   81  204 1    
   163   82   83 2    
   164   82   84 am   BACKBONE|DICT|INTERRES
   165   84   85 1    
   166   84  205 1    
   167   85   86 1    
   168   85   87 1    
   169   85  206 1    
   170   86  207 1    
   171   86  208 1    
   172   86  209 1    
   173   87   88 2    
   174   87   89 am   BACKBONE|DICT|INTERRES
   175   89   90 1    
   176   89  210 1    
   177   90   91 1    
   178   90   92 1    
   179   90  211 1    
   180   91  212 1    
   181   91  213 1    
   182   91  214 1    
   183   92   93 2    
   184   92   94 am   BACKBONE|DICT|INTERRES
   185   94   95 1    
   186   94  215 1    
   187   95   96 1    
   188   95   97 1    
   189   95  216 1    
   190   96  217 1    
   191   96  218 1    
   192   96  219 1    
   193   97   98 2    
   194   97   99 am   BACKBONE|DICT|INTERRES
   195   99  100 1    
   196   99  220 1    
   197  100  101 1    
   198  100  102 1    
   199  100  221 1    
   200  101  222 1    
   201  101  223 1    
   202  101  224 1    
   203  102  103 2    
   204  102  104 am   BACKBONE|DICT|INTERRES
   205  104  105 1    
   206  104  225 1    
   207  105  106 1    
   208  105  107 1    
   209  105  226 1    
   210  106  227 1    
   211  106  228 1    
   212  106  229 1    
   213  107  108 2    
   214  107  109 am   BACKBONE|DICT|INTERRES
   215  109  110 1    
   216  109  230 1    
   217  110  111 1    
   218  110  112 1    
   219  110  231 1    
   220  111  232 1    
   221  111  233 1    
   222  111  234 1    
   223  112  113 2    
   224  112  114 am   BACKBONE|DICT|INTERRES
   225  114  115 1    
   226  114  235 1    
   227  115  116 1    
   228  115  117 1    
   229  115  236 1    
   230  116  237 1    
   231  116  238 1    
   232  116  239 1    
   233  117  118 2    
   234  117  119 am   BACKBONE|DICT|INTERRES
   235  119  120 1    
   236  119  240 1    
   237  120  121 1    
   238  120  124 1    
   239  120  241 1    
   240  121  122 am   BACKBONE|DICT|INTERRES
   241  121  123 2    
   242  122  242 1    
   243  122  243 1    
   244  124  125 1    
   245  124  244 1    
   246  124  245 1    
   247  125  126 1    
   248  126  246 1    
   249  126  247 1    
@<TRIPOS>SUBSTRUCTURE
     1 UNK         1 GROUP             0       ****    0 ROOT    
