@<TRIPOS>MOLECULE
3R540
247   249    1
SMALL
USER_CHARGES


@<TRIPOS>ATOM
      1 CA          3.4782  -15.9673  -52.0323 C.3       0 UNK        -0.1800 
      2 C           3.5031  -15.3310  -50.6499 C.2       0 UNK         0.5000 
      3 O           4.5786  -15.0238  -50.1348 O.2       0 UNK        -0.5000 
      4 N           2.3246  -15.1378  -50.0482 N.am      1 UNK        -0.5000 
      5 CA          2.1313  -14.4846  -48.7527 C.3       1 UNK         0.1400 
      6 C6          0.7207  -14.7380  -48.1458 C.3       23 UNK        -0.0398 
      7 S7         -0.6655  -14.6972  -49.3402 S.3       23 UNK        -0.2404 
      8 C8         -1.2311  -16.4314  -49.3271 C.3       23 UNK        -0.0205 
      9 C9         -0.1812  -17.3867  -49.8787 C.ar      23 UNK        -0.0193 
     10 C10        -0.0620  -17.5919  -51.2568 C.ar      23 UNK        -0.1150 
     11 C11         0.9158  -18.4545  -51.7649 C.ar      23 UNK        -0.0193 
     12 C12         1.7944  -19.0916  -50.8836 C.ar      23 UNK        -0.1150 
     13 C13         1.6877  -18.8909  -49.5053 C.ar      23 UNK        -0.0193 
     14 C14         0.6838  -18.0568  -49.0092 C.ar      23 UNK        -0.1150 
     15 C15         2.6647  -19.5604  -48.5487 C.3       23 UNK        -0.0205 
     16 S16         2.3876  -21.3526  -48.4171 S.3       23 UNK        -0.2404 
     17 C17         0.6308  -21.4186  -47.9339 C.3       23 UNK        -0.0398 
     18 CA          0.3610  -22.4954  -46.8572 C.3       11 UNK         0.1400 
     19 N           0.9454  -22.1097  -45.5708 N.am      11 UNK        -0.5000 
     20 C           1.6298  -22.9125  -44.7495 C.2       10 UNK         0.5000 
     21 O           1.8172  -24.1109  -44.9603 O.2       10 UNK        -0.5000 
     22 CA          2.1588  -22.2710  -43.4533 C.3       10 UNK         0.1400 
     23 CB          3.4209  -21.4407  -43.7328 C.3       10 UNK        -0.1800 
     24 N           1.1552  -21.4337  -42.7924 N.am      10 UNK        -0.5000 
     25 C           0.0266  -21.9018  -42.2396 C.2       9 UNK         0.5000 
     26 O          -0.2620  -23.0976  -42.1916 O.2       9 UNK        -0.5000 
     27 CA         -0.9500  -20.8657  -41.6530 C.3       9 UNK         0.1400 
     28 CB         -0.5478  -20.4894  -40.2191 C.3       9 UNK        -0.1800 
     29 N          -1.0402  -19.6555  -42.4691 N.am      9 UNK        -0.5000 
     30 C          -1.6204  -19.5975  -43.6765 C.2       8 UNK         0.5000 
     31 O          -2.2122  -20.5407  -44.1975 O.2       8 UNK        -0.5000 
     32 CA         -1.4871  -18.2726  -44.4503 C.3       8 UNK         0.1400 
     33 CB         -2.5806  -17.2769  -44.0371 C.3       8 UNK        -0.1800 
     34 N          -0.1714  -17.6551  -44.2811 N.am      8 UNK        -0.5000 
     35 C           0.9708  -18.1797  -44.7462 C.2       7 UNK         0.5000 
     36 O           1.0259  -19.2174  -45.4026 O.2       7 UNK        -0.5000 
     37 CA          2.2708  -17.4431  -44.3822 C.3       7 UNK         0.1400 
     38 CB          2.5874  -16.3571  -45.4195 C.3       7 UNK        -0.1800 
     39 N           2.2128  -16.8457  -43.0481 N.am      7 UNK        -0.5000 
     40 C           2.1979  -17.5560  -41.9106 C.2       6 UNK         0.5000 
     41 O           2.2447  -18.7857  -41.8734 O.2       6 UNK        -0.5000 
     42 CA          2.0464  -16.7575  -40.6044 C.3       6 UNK         0.1400 
     43 CB          3.3650  -16.0608  -40.2353 C.3       6 UNK        -0.1800 
     44 N           0.9790  -15.7604  -40.6916 N.am      6 UNK        -0.5000 
     45 C          -0.3250  -16.0497  -40.8143 C.2       5 UNK         0.5000 
     46 O          -0.7739  -17.1946  -40.8327 O.2       5 UNK        -0.5000 
     47 CA         -1.2632  -14.8642  -41.0644 C.3       5 UNK         0.1400 
     48 CB         -1.2925  -13.8792  -39.8837 C.3       5 UNK        -0.1800 
     49 N          -0.7942  -14.2005  -42.2714 N.am      5 UNK        -0.5000 
     50 C          -1.5341  -13.6744  -43.2463 C.2       4 UNK         0.5000 
     51 O          -2.7591  -13.5615  -43.1885 O.2       4 UNK        -0.5000 
     52 CA         -0.7555  -13.2301  -44.5075 C.3       4 UNK         0.1400 
     53 CB         -1.6338  -12.4630  -45.5113 C.3       4 UNK        -0.1800 
     54 N           0.4486  -12.4345  -44.2344 N.am      4 UNK        -0.5000 
     55 C           1.5951  -12.8531  -43.6814 C.2       3 UNK         0.5000 
     56 O           1.7697  -14.0006  -43.2615 O.2       3 UNK        -0.5000 
     57 CA          2.7485  -11.8318  -43.6521 C.3       3 UNK         0.1400 
     58 CB          3.9064  -12.2861  -42.7452 C.3       3 UNK        -0.1800 
     59 N           3.2565  -11.6392  -45.0097 N.am      3 UNK        -0.5000 
     60 C           2.6917  -10.8551  -45.9405 C.2       2 UNK         0.5000 
     61 O           1.7581  -10.0852  -45.7119 O.2       2 UNK        -0.5000 
     62 CA          3.1748  -11.0638  -47.3811 C.3       2 UNK         0.1400 
     63 CB          4.6440  -10.6503  -47.5699 C.3       2 UNK        -0.1800 
     64 N           2.9986  -12.4795  -47.6925 N.am      2 UNK        -0.5000 
     65 C           2.4511  -12.9763  -48.8052 C.2       1 UNK         0.5000 
     66 O           2.1620  -12.3049  -49.7987 O.2       1 UNK        -0.5000 
     67 C          -1.1433  -22.8129  -46.7105 C.2       11 UNK         0.5000 
     68 O          -1.9265  -22.5125  -47.6135 O.2       11 UNK        -0.5000 
     69 N          -1.5320  -23.4270  -45.5840 N.am      12 UNK        -0.5000 
     70 CA         -2.9127  -23.8130  -45.2782 C.3       12 UNK         0.1400 
     71 CB         -3.0377  -24.0832  -43.7717 C.3       12 UNK        -0.1800 
     72 C          -3.4142  -25.0273  -46.0865 C.2       12 UNK         0.5000 
     73 O          -4.6251  -25.2381  -46.1605 O.2       12 UNK        -0.5000 
     74 N          -2.4916  -25.7920  -46.6810 N.am      13 UNK        -0.5000 
     75 CA         -2.7646  -26.9097  -47.5809 C.3       13 UNK         0.1400 
     76 CB         -2.0295  -28.1539  -47.0587 C.3       13 UNK        -0.1800 
     77 C          -2.2748  -26.5547  -48.9930 C.2       13 UNK         0.5000 
     78 O          -1.3472  -25.7520  -49.1311 O.2       13 UNK        -0.5000 
     79 N          -2.9008  -27.1696  -50.0072 N.am      14 UNK        -0.5000 
     80 CA         -2.6533  -27.0600  -51.4543 C.3       14 UNK         0.1400 
     81 CB         -1.2414  -27.5547  -51.8241 C.3       14 UNK        -0.1800 
     82 C          -2.9314  -25.6615  -52.0377 C.2       14 UNK         0.5000 
     83 O          -3.7853  -25.5210  -52.9125 O.2       14 UNK        -0.5000 
     84 N          -2.2183  -24.6524  -51.5314 N.am      15 UNK        -0.5000 
     85 CA         -2.4242  -23.2357  -51.8179 C.3       15 UNK         0.1400 
     86 CB         -1.1651  -22.4703  -51.3997 C.3       15 UNK        -0.1800 
     87 C          -3.6601  -22.6771  -51.0949 C.2       15 UNK         0.5000 
     88 O          -4.3498  -21.8184  -51.6500 O.2       15 UNK        -0.5000 
     89 N          -3.9032  -23.1842  -49.8762 N.am      16 UNK        -0.5000 
     90 CA         -5.0077  -22.8674  -48.9648 C.3       16 UNK         0.1400 
     91 CB         -6.3193  -23.4912  -49.4772 C.3       16 UNK        -0.1800 
     92 C          -5.1320  -21.3604  -48.6741 C.2       16 UNK         0.5000 
     93 O          -6.2293  -20.8081  -48.7345 O.2       16 UNK        -0.5000 
     94 N          -3.9860  -20.7094  -48.4303 N.am      17 UNK        -0.5000 
     95 CA         -3.8243  -19.2625  -48.2400 C.3       17 UNK         0.1400 
     96 CB         -4.3995  -18.8365  -46.8749 C.3       17 UNK        -0.1800 
     97 C          -4.3885  -18.4274  -49.4150 C.2       17 UNK         0.5000 
     98 O          -4.9475  -17.3522  -49.1977 O.2       17 UNK        -0.5000 
     99 N          -4.2329  -18.9609  -50.6356 N.am      18 UNK        -0.5000 
    100 CA        -4.7215  -18.4470  -51.9185 C.3       18 UNK         0.1400 
    101 CB        -4.2347  -17.0101  -52.2025 C.3       18 UNK        -0.1800 
    102 C         -6.2299  -18.6469  -52.1629 C.2       18 UNK         0.5000 
    103 O         -6.7703  -18.0499  -53.0951 O.2       18 UNK        -0.5000 
    104 N         -6.8814  -19.5222  -51.3831 N.am      19 UNK        -0.5000 
    105 CA        -8.2373  -19.9994  -51.6692 C.3       19 UNK         0.1400 
    106 CB        -8.9238  -20.4324  -50.3649 C.3       19 UNK        -0.1800 
    107 C         -8.2498  -21.1535  -52.6934 C.2       19 UNK         0.5000 
    108 O         -9.3035  -21.4165  -53.2752 O.2       19 UNK        -0.5000 
    109 N         -7.1046  -21.8230  -52.8915 N.am      20 UNK        -0.5000 
    110 CA        -6.9300  -22.9391  -53.8173 C.3       20 UNK         0.1400 
    111 CB        -6.7092  -24.2373  -53.0220 C.3       20 UNK        -0.1800 
    112 C         -5.8221  -22.5952  -54.8286 C.2       20 UNK         0.5000 
    113 O         -5.9995  -21.6357  -55.5805 O.2       20 UNK        -0.5000 
    114 N         -4.7224  -23.3658  -54.8720 N.am      21 UNK        -0.5000 
    115 CA        -3.7114  -23.3215  -55.9408 C.3       21 UNK         0.1400 
    116 CB        -2.6857  -24.4470  -55.7342 C.3       21 UNK        -0.1800 
    117 C         -2.9928  -21.9704  -56.1409 C.2       21 UNK         0.5000 
    118 O         -2.5527  -21.6921  -57.2573 O.2       21 UNK        -0.5000 
    119 N         -2.9019  -21.1548  -55.0832 N.am      22 UNK        -0.5000 
    120 CA        -2.3888  -19.7742  -55.1473 C.3       22 UNK         0.1400 
    121 C         -3.4744  -18.7164  -55.5111 C.2       22 UNK         0.5000 
    122 N         -4.7399  -19.0731  -55.6919 N.am      22 UNK        -0.7600 
    123 O         -3.1578  -17.5382  -55.6460 O.2       22 UNK        -0.5000 
    124 C124       -1.6170  -19.3917  -53.8559 C.3       23 UNK        -0.0398 
    125 S125        0.0599  -20.1064  -53.8238 S.3       23 UNK        -0.2404 
    126 C126        1.0503  -18.6828  -53.2641 C.3       23 UNK        -0.0205 
    127 H127        3.8569  -16.9881  -51.9824 H         1 UNK         0.0600 
    128 H128        4.1062  -15.4010  -52.7201 H         1 UNK         0.0600 
    129 H129        2.4690  -15.9955  -52.4435 H         1 UNK         0.0600 
    130 H130        1.4711  -15.4036  -50.5194 H         1 UNK         0.3000 
    131 H131        2.8563  -14.9373  -48.0730 H         1 UNK         0.0600 
    132 H132        0.7168  -15.6999  -47.6400 H         1 UNK         0.0800 
    133 H133        0.5001  -14.0218  -47.3526 H         1 UNK         0.0800 
    134 H134       -1.5137  -16.7141  -48.3118 H         1 UNK         0.0800 
    135 H135       -2.1396  -16.5017  -49.9251 H         1 UNK         0.0800 
    136 H136       -0.7258  -17.0721  -51.9321 H         1 UNK         0.1150 
    137 H137        2.5624  -19.7472  -51.2693 H         1 UNK         0.1150 
    138 H138        0.5908  -17.9179  -47.9419 H         1 UNK         0.1150 
    139 H139        3.6837  -19.3845  -48.8955 H         1 UNK         0.0800 
    140 H140        2.6021  -19.1171  -47.5546 H         1 UNK         0.0800 
    141 H141        0.0726  -21.6044  -48.8473 H         1 UNK         0.0800 
    142 H142        0.2934  -20.4459  -47.5772 H         1 UNK         0.0800 
    143 H143        0.8183  -23.4243  -47.2043 H         1 UNK         0.0600 
    144 H144        0.8592  -21.1256  -45.3302 H         1 UNK         0.3000 
    145 H145        2.4292  -23.0762  -42.7671 H         1 UNK         0.0600 
    146 H146        3.8268  -21.0170  -42.8141 H         1 UNK         0.0600 
    147 H147        4.2013  -22.0575  -44.1801 H         1 UNK         0.0600 
    148 H148        3.2198  -20.6194  -44.4206 H         1 UNK         0.0600 
    149 H149        1.3551  -20.4416  -42.7292 H         1 UNK         0.3000 
    150 H150       -1.9398  -21.3255  -41.6158 H         1 UNK         0.0600 
    151 H151       -0.4855  -21.3747  -39.5852 H         1 UNK         0.0600 
    152 H152       -1.2793  -19.8179  -39.7693 H         1 UNK         0.0600 
    153 H153        0.4228  -19.9934  -40.1887 H         1 UNK         0.0600 
    154 H154       -0.6368  -18.8134  -42.0738 H         1 UNK         0.3000 
    155 H155       -1.6173  -18.4977  -45.5112 H         1 UNK         0.0600 
    156 H156       -2.4831  -16.9790  -42.9938 H         1 UNK         0.0600 
    157 H157       -3.5725  -17.7141  -44.1560 H         1 UNK         0.0600 
    158 H158       -2.5476  -16.3763  -44.6503 H         1 UNK         0.0600 
    159 H159       -0.1220  -16.8229  -43.7151 H         1 UNK         0.3000 
    160 H160        3.0837  -18.1717  -44.3956 H         1 UNK         0.0600 
    161 H161        1.8060  -15.5985  -45.4574 H         1 UNK         0.0600 
    162 H162        2.6834  -16.7895  -46.4160 H         1 UNK         0.0600 
    163 H163        3.5280  -15.8563  -45.1899 H         1 UNK         0.0600 
    164 H164        2.1612  -15.8313  -43.0047 H         1 UNK         0.3000 
    165 H165        1.7941  -17.4611  -39.8081 H         1 UNK         0.0600 
    166 H166        3.6513  -15.3155  -40.9788 H         1 UNK         0.0600 
    167 H167        4.1800  -16.7819  -40.1615 H         1 UNK         0.0600 
    168 H168        3.2881  -15.5589  -39.2706 H         1 UNK         0.0600 
    169 H169        1.2713  -14.7944  -40.6950 H         1 UNK         0.3000 
    170 H170       -2.2699  -15.2574  -41.2211 H         1 UNK         0.0600 
    171 H171       -1.5947  -14.3821  -38.9643 H         1 UNK         0.0600 
    172 H172       -0.3186  -13.4220  -39.7068 H         1 UNK         0.0600 
    173 H173       -2.0070  -13.0761  -40.0652 H         1 UNK         0.0600 
    174 H174        0.2072  -14.2451  -42.4470 H         1 UNK         0.3000 
    175 H175       -0.4333  -14.1503  -44.9988 H         1 UNK         0.0600 
    176 H176       -2.0069  -11.5308  -45.0857 H         1 UNK         0.0600 
    177 H177       -1.0791  -12.2190  -46.4177 H         1 UNK         0.0600 
    178 H178       -2.4970  -13.0571  -45.8144 H         1 UNK         0.0600 
    179 H179        0.4210  -11.4762  -44.5606 H         1 UNK         0.3000 
    180 H180        2.3610  -10.8883  -43.2619 H         1 UNK         0.0600 
    181 H181        4.3518  -13.2202  -43.0905 H         1 UNK         0.0600 
    182 H182        3.5616  -12.4457  -41.7228 H         1 UNK         0.0600 
    183 H183        4.6944  -11.5339  -42.7079 H         1 UNK         0.0600 
    184 H184        4.0380  -12.2219  -45.2700 H         1 UNK         0.3000 
    185 H185        2.5498  -10.4500  -48.0336 H         1 UNK         0.0600 
    186 H186        4.7918   -9.6040  -47.2997 H         1 UNK         0.0600 
    187 H187        5.3210  -11.2484  -46.9593 H         1 UNK         0.0600 
    188 H188        4.9488  -10.7637  -48.6104 H         1 UNK         0.0600 
    189 H189        3.1771  -13.1125  -46.9272 H         1 UNK         0.3000 
    190 H190       -0.8389  -23.6206  -44.8747 H         1 UNK         0.3000 
    191 H191       -3.5630  -22.9704  -45.5235 H         1 UNK         0.0600 
    192 H192       -2.8224  -23.1835  -43.1958 H         1 UNK         0.0600 
    193 H193       -4.0489  -24.3967  -43.5091 H         1 UNK         0.0600 
    194 H194       -2.3532  -24.8663  -43.4438 H         1 UNK         0.0600 
    195 H195       -1.5254  -25.5032  -46.6262 H         1 UNK         0.3000 
    196 H196       -3.8347  -27.1232  -47.6238 H         1 UNK         0.0600 
    197 H197       -2.2141  -29.0172  -47.6992 H         1 UNK         0.0600 
    198 H198       -2.3661  -28.4163  -46.0555 H         1 UNK         0.0600 
    199 H199       -0.9504  -27.9983  -47.0193 H         1 UNK         0.0600 
    200 H200       -3.6600  -27.7928  -49.7684 H         1 UNK         0.3000 
    201 H201       -3.3652  -27.7380  -51.9280 H         1 UNK         0.0600 
    202 H202       -1.0871  -28.5820  -51.4940 H         1 UNK         0.0600 
    203 H203       -0.4581  -26.9407  -51.3791 H         1 UNK         0.0600 
    204 H204       -1.0943  -27.5355  -52.9047 H         1 UNK         0.0600 
    205 H205       -1.5796  -24.8817  -50.7740 H         1 UNK         0.3000 
    206 H206       -2.5747  -23.0981  -52.8883 H         1 UNK         0.0600 
    207 H207       -0.3384  -22.6762  -52.0796 H         1 UNK         0.0600 
    208 H208       -1.3247  -21.3916  -51.3915 H         1 UNK         0.0600 
    209 H209       -0.8513  -22.7687  -50.4017 H         1 UNK         0.0600 
    210 H210       -3.2174  -23.8269  -49.5062 H         1 UNK         0.3000 
    211 H211       -4.7684  -23.3366  -48.0128 H         1 UNK         0.0600 
    212 H212       -6.6655  -23.0042  -50.3871 H         1 UNK         0.0600 
    213 H213       -7.1124  -23.3956  -48.7348 H         1 UNK         0.0600 
    214 H214       -6.1972  -24.5537  -49.6875 H         1 UNK         0.0600 
    215 H215       -3.1418  -21.2722  -48.3450 H         1 UNK         0.3000 
    216 H216       -2.7495  -19.0764  -48.2197 H         1 UNK         0.0600 
    217 H217       -4.1544  -17.7971  -46.6546 H         1 UNK         0.0600 
    218 H218       -3.9926  -19.4471  -46.0692 H         1 UNK         0.0600 
    219 H219       -5.4855  -18.9302  -46.8476 H         1 UNK         0.0600 
    220 H220       -3.8307  -19.8882  -50.6841 H         1 UNK         0.3000 
    221 H221       -4.2611  -19.0881  -52.6665 H         1 UNK         0.0600 
    222 H222       -4.6988  -16.2803  -51.5396 H         1 UNK         0.0600 
    223 H223       -3.1543  -16.9305  -52.0927 H         1 UNK         0.0600 
    224 H224       -4.4733  -16.7113  -53.2236 H         1 UNK         0.0600 
    225 H225       -6.4064  -19.9504  -50.5956 H         1 UNK         0.3000 
    226 H226       -8.8232  -19.1791  -52.0892 H         1 UNK         0.0600 
    227 H227       -8.8668  -19.6510  -49.6068 H         1 UNK         0.0600 
    228 H228       -9.9798  -20.6444  -50.5358 H         1 UNK         0.0600 
    229 H229       -8.4769  -21.3364  -49.9521 H         1 UNK         0.0600 
    230 H230       -6.2701  -21.5351  -52.3922 H         1 UNK         0.3000 
    231 H231       -7.8312  -23.0803  -54.4168 H         1 UNK         0.0600 
    232 H232       -5.8641  -24.1551  -52.3422 H         1 UNK         0.0600 
    233 H233       -6.5337  -25.0877  -53.6820 H         1 UNK         0.0600 
    234 H234       -7.5869  -24.4755  -52.4213 H         1 UNK         0.0600 
    235 H235       -4.6257  -24.1237  -54.2029 H         1 UNK         0.3000 
    236 H236       -4.2401  -23.5301  -56.8732 H         1 UNK         0.0600 
    237 H237       -3.1725  -25.4204  -55.6718 H         1 UNK         0.0600 
    238 H238       -1.9829  -24.4912  -56.5671 H         1 UNK         0.0600 
    239 H239       -2.1015  -24.3035  -54.8258 H         1 UNK         0.0600 
    240 H240       -3.3266  -21.4430  -54.2149 H         1 UNK         0.3000 
    241 H241       -1.6760  -19.7085  -55.9717 H         1 UNK         0.0600 
    242 H242       -5.4167  -18.3624  -55.9185 H         1 UNK         0.3800 
    243 H243       -5.0454  -20.0412  -55.6344 H         1 UNK         0.3800 
    244 H244       -1.5274  -18.3089  -53.7651 H         1 UNK         0.0800 
    245 H245       -2.1453  -19.7249  -52.9641 H         1 UNK         0.0800 
    246 H246        0.7692  -17.7854  -53.8172 H         1 UNK         0.0800 
    247 H247        2.0963  -18.8694  -53.5118 H         1 UNK         0.0800 
@<TRIPOS>BOND
     1    1    2 1    
     2    1  127 1    
     3    1  128 1    
     4    1  129 1    
     5    2    3 2    
     6    2    4 am   BACKBONE|DICT|INTERRES
     7    4    5 1    
     8    4  130 1    
     9    5    6 1    
    10    5   65 1    
    11    5  131 1    
    12    6    7 1    
    13    6  132 1    
    14    6  133 1    
    15    7    8 1    
    16    8    9 1    
    17    8  134 1    
    18    8  135 1    
    19    9   10 ar   
    20    9   14 ar   
    21   10   11 ar   
    22   10  136 1    
    23   11   12 ar   
    24   11  126 1    
    25   12   13 ar   
    26   12  137 1    
    27   13   14 ar   
    28   13   15 1    
    29   14  138 1    
    30   15   16 1    
    31   15  139 1    
    32   15  140 1    
    33   16   17 1    
    34   17   18 1    
    35   17  141 1    
    36   17  142 1    
    37   18   19 1    
    38   18   67 1    
    39   18  143 1    
    40   19   20 am   BACKBONE|DICT|INTERRES
    41   19  144 1    
    42   20   21 2    
    43   20   22 1    
    44   22   23 1    
    45   22   24 1    
    46   22  145 1    
    47   23  146 1    
    48   23  147 1    
    49   23  148 1    
    50   24   25 am   BACKBONE|DICT|INTERRES
    51   24  149 1    
    52   25   26 2    
    53   25   27 1    
    54   27   28 1    
    55   27   29 1    
    56   27  150 1    
    57   28  151 1    
    58   28  152 1    
    59   28  153 1    
    60   29   30 am   BACKBONE|DICT|INTERRES
    61   29  154 1    
    62   30   31 2    
    63   30   32 1    
    64   32   33 1    
    65   32   34 1    
    66   32  155 1    
    67   33  156 1    
    68   33  157 1    
    69   33  158 1    
    70   34   35 am   BACKBONE|DICT|INTERRES
    71   34  159 1    
    72   35   36 2    
    73   35   37 1    
    74   37   38 1    
    75   37   39 1    
    76   37  160 1    
    77   38  161 1    
    78   38  162 1    
    79   38  163 1    
    80   39   40 am   BACKBONE|DICT|INTERRES
    81   39  164 1    
    82   40   41 2    
    83   40   42 1    
    84   42   43 1    
    85   42   44 1    
    86   42  165 1    
    87   43  166 1    
    88   43  167 1    
    89   43  168 1    
    90   44   45 am   BACKBONE|DICT|INTERRES
    91   44  169 1    
    92   45   46 2    
    93   45   47 1    
    94   47   48 1    
    95   47   49 1    
    96   47  170 1    
    97   48  171 1    
    98   48  172 1    
    99   48  173 1    
   100   49   50 am   BACKBONE|DICT|INTERRES
   101   49  174 1    
   102   50   51 2    
   103   50   52 1    
   104   52   53 1    
   105   52   54 1    
   106   52  175 1    
   107   53  176 1    
   108   53  177 1    
   109   53  178 1    
   110   54   55 am   BACKBONE|DICT|INTERRES
   111   54  179 1    
   112   55   56 2    
   113   55   57 1    
   114   57   58 1    
   115   57   59 1    
   116   57  180 1    
   117   58  181 1    
   118   58  182 1    
   119   58  183 1    
   120   59   60 am   BACKBONE|DICT|INTERRES
   121   59  184 1    
   122   60   61 2    
   123   60   62 1    
   124   62   63 1    
   125   62   64 1    
   126   62  185 1    
   127   63  186 1    
   128   63  187 1    
   129   63  188 1    
   130   64   65 am   BACKBONE|DICT|INTERRES
   131   64  189 1    
   132   65   66 2    
   133   67   68 2    
   134   67   69 am   BACKBONE|DICT|INTERRES
   135   69   70 1    
   136   69  190 1    
   137   70   71 1    
   138   70   72 1    
   139   70  191 1    
   140   71  192 1    
   141   71  193 1    
   142   71  194 1    
   143   72   73 2    
   144   72   74 am   BACKBONE|DICT|INTERRES
   145   74   75 1    
   146   74  195 1    
   147   75   76 1    
   148   75   77 1    
   149   75  196 1    
   150   76  197 1    
   151   76  198 1    
   152   76  199 1    
   153   77   78 2    
   154   77   79 am   BACKBONE|DICT|INTERRES
   155   79   80 1    
   156   79  200 1    
   157   80   81 1    
   158   80   82 1    
   159   80  201 1    
   160   81  202 1    
   161   81  203 1    
   162   81  204 1    
   163   82   83 2    
   164   82   84 am   BACKBONE|DICT|INTERRES
   165   84   85 1    
   166   84  205 1    
   167   85   86 1    
   168   85   87 1    
   169   85  206 1    
   170   86  207 1    
   171   86  208 1    
   172   86  209 1    
   173   87   88 2    
   174   87   89 am   BACKBONE|DICT|INTERRES
   175   89   90 1    
   176   89  210 1    
   177   90   91 1    
   178   90   92 1    
   179   90  211 1    
   180   91  212 1    
   181   91  213 1    
   182   91  214 1    
   183   92   93 2    
   184   92   94 am   BACKBONE|DICT|INTERRES
   185   94   95 1    
   186   94  215 1    
   187   95   96 1    
   188   95   97 1    
   189   95  216 1    
   190   96  217 1    
   191   96  218 1    
   192   96  219 1    
   193   97   98 2    
   194   97   99 am   BACKBONE|DICT|INTERRES
   195   99  100 1    
   196   99  220 1    
   197  100  101 1    
   198  100  102 1    
   199  100  221 1    
   200  101  222 1    
   201  101  223 1    
   202  101  224 1    
   203  102  103 2    
   204  102  104 am   BACKBONE|DICT|INTERRES
   205  104  105 1    
   206  104  225 1    
   207  105  106 1    
   208  105  107 1    
   209  105  226 1    
   210  106  227 1    
   211  106  228 1    
   212  106  229 1    
   213  107  108 2    
   214  107  109 am   BACKBONE|DICT|INTERRES
   215  109  110 1    
   216  109  230 1    
   217  110  111 1    
   218  110  112 1    
   219  110  231 1    
   220  111  232 1    
   221  111  233 1    
   222  111  234 1    
   223  112  113 2    
   224  112  114 am   BACKBONE|DICT|INTERRES
   225  114  115 1    
   226  114  235 1    
   227  115  116 1    
   228  115  117 1    
   229  115  236 1    
   230  116  237 1    
   231  116  238 1    
   232  116  239 1    
   233  117  118 2    
   234  117  119 am   BACKBONE|DICT|INTERRES
   235  119  120 1    
   236  119  240 1    
   237  120  121 1    
   238  120  124 1    
   239  120  241 1    
   240  121  122 am   BACKBONE|DICT|INTERRES
   241  121  123 2    
   242  122  242 1    
   243  122  243 1    
   244  124  125 1    
   245  124  244 1    
   246  124  245 1    
   247  125  126 1    
   248  126  246 1    
   249  126  247 1    
@<TRIPOS>SUBSTRUCTURE
     1 UNK         1 GROUP             0       ****    0 ROOT    
