@<TRIPOS>MOLECULE
3R540
247   249    1
SMALL
USER_CHARGES


@<TRIPOS>ATOM
      1 CA          0.1713  -10.4909  -46.7805 C.3       0 UNK        -0.1800 
      2 C           0.9020  -11.8222  -46.8738 C.2       0 UNK         0.5000 
      3 O           0.4946  -12.7841  -46.2274 O.2       0 UNK        -0.5000 
      4 N           1.9901  -11.8701  -47.6559 N.am      1 UNK        -0.5000 
      5 CA          2.8584  -13.0360  -47.9078 C.3       1 UNK         0.1400 
      6 C6          2.1214  -14.2461  -48.5471 C.3       23 UNK        -0.0398 
      7 S7          1.4725  -13.8474  -50.2061 S.3       23 UNK        -0.2404 
      8 C8          2.7974  -14.4995  -51.2736 C.3       23 UNK        -0.0205 
      9 C9          2.5244  -15.9301  -51.7169 C.ar      23 UNK        -0.0193 
     10 C10         1.9752  -16.1769  -52.9785 C.ar      23 UNK        -0.1150 
     11 C11         1.7523  -17.4866  -53.4121 C.ar      23 UNK        -0.0193 
     12 C12         2.0529  -18.5554  -52.5626 C.ar      23 UNK        -0.1150 
     13 C13         2.5907  -18.3226  -51.2940 C.ar      23 UNK        -0.0193 
     14 C14         2.8425  -17.0091  -50.8861 C.ar      23 UNK        -0.1150 
     15 C15         2.9228  -19.4885  -50.3727 C.3       23 UNK        -0.0205 
     16 S16         1.9619  -19.4406  -48.8257 S.3       23 UNK        -0.2404 
     17 C17         0.2761  -19.8460  -49.4032 C.3       23 UNK        -0.0398 
     18 CA         -0.1960  -21.2365  -48.9141 C.3       11 UNK         0.1400 
     19 N          -0.1270  -21.3640  -47.4543 N.am      11 UNK        -0.5000 
     20 C          -0.1863  -22.5236  -46.7836 C.2       10 UNK         0.5000 
     21 O          -0.3115  -23.6194  -47.3287 O.2       10 UNK        -0.5000 
     22 CA         -0.1547  -22.4422  -45.2439 C.3       10 UNK         0.1400 
     23 CB          1.2933  -22.4851  -44.7360 C.3       10 UNK        -0.1800 
     24 N          -0.8183  -21.2482  -44.7159 N.am      10 UNK        -0.5000 
     25 C          -2.1053  -20.9314  -44.9289 C.2       9 UNK         0.5000 
     26 O          -2.8898  -21.6685  -45.5245 O.2       9 UNK        -0.5000 
     27 CA         -2.5960  -19.5472  -44.4586 C.3       9 UNK         0.1400 
     28 CB         -3.4175  -19.6823  -43.1684 C.3       9 UNK        -0.1800 
     29 N          -1.5245  -18.5738  -44.2402 N.am      9 UNK        -0.5000 
     30 C          -0.6410  -18.1493  -45.1565 C.2       8 UNK         0.5000 
     31 O          -0.6689  -18.4914  -46.3391 O.2       8 UNK        -0.5000 
     32 CA          0.4982  -17.2431  -44.6478 C.3       8 UNK         0.1400 
     33 CB          0.2185  -15.7780  -45.0026 C.3       8 UNK        -0.1800 
     34 N           0.7336  -17.3624  -43.2023 N.am      8 UNK        -0.5000 
     35 C           1.2113  -18.4657  -42.6026 C.2       7 UNK         0.5000 
     36 O           1.4893  -19.4927  -43.2235 O.2       7 UNK        -0.5000 
     37 CA          1.3378  -18.4604  -41.0624 C.3       7 UNK         0.1400 
     38 CB          2.5913  -19.2160  -40.5732 C.3       7 UNK        -0.1800 
     39 N           1.2418  -17.1313  -40.4465 N.am      7 UNK        -0.5000 
     40 C           2.1056  -16.1139  -40.5652 C.2       6 UNK         0.5000 
     41 O           3.1511  -16.1606  -41.2142 O.2       6 UNK        -0.5000 
     42 CA          1.7058  -14.8075  -39.8548 C.3       6 UNK         0.1400 
     43 CB          2.8044  -14.3504  -38.8832 C.3       6 UNK        -0.1800 
     44 N           1.4130  -13.7326  -40.8047 N.am      6 UNK        -0.5000 
     45 C           0.4437  -13.7665  -41.7340 C.2       5 UNK         0.5000 
     46 O          -0.3016  -14.7364  -41.8896 O.2       5 UNK        -0.5000 
     47 CA          0.2856  -12.5289  -42.6487 C.3       5 UNK         0.1400 
     48 CB         -1.1610  -12.3330  -43.1470 C.3       5 UNK        -0.1800 
     49 N           0.8110  -11.2881  -42.0690 N.am      5 UNK        -0.5000 
     50 C           0.4069  -10.6689  -40.9473 C.2       4 UNK         0.5000 
     51 O          -0.5571  -11.0362  -40.2739 O.2       4 UNK        -0.5000 
     52 CA          1.2389   -9.4440  -40.4941 C.3       4 UNK         0.1400 
     53 CB          1.2025   -9.2381  -38.9651 C.3       4 UNK        -0.1800 
     54 N           2.6278   -9.4621  -40.9775 N.am      4 UNK        -0.5000 
     55 C           3.5452  -10.4127  -40.7477 C.2       3 UNK         0.5000 
     56 O           3.3522  -11.4042  -40.0428 O.2       3 UNK        -0.5000 
     57 CA          4.8710  -10.2844  -41.5196 C.3       3 UNK         0.1400 
     58 CB          6.0745  -10.3142  -40.5644 C.3       3 UNK        -0.1800 
     59 N           5.0074  -11.3624  -42.5026 N.am      3 UNK        -0.5000 
     60 C           4.1605  -11.5888  -43.5149 C.2       2 UNK         0.5000 
     61 O           3.1899  -10.8675  -43.7723 O.2       2 UNK        -0.5000 
     62 CA          4.4197  -12.8400  -44.3648 C.3       2 UNK         0.1400 
     63 CB          4.0012  -14.1131  -43.6060 C.3       2 UNK        -0.1800 
     64 N           3.6528  -12.6985  -45.5955 N.am      2 UNK        -0.5000 
     65 C           3.7248  -13.4549  -46.6942 C.2       1 UNK         0.5000 
     66 O           4.4794  -14.4233  -46.7954 O.2       1 UNK        -0.5000 
     67 C          -1.6087  -21.5502  -49.4517 C.2       11 UNK         0.5000 
     68 O          -1.7307  -22.0293  -50.5802 O.2       11 UNK        -0.5000 
     69 N          -2.6409  -21.2954  -48.6326 N.am      12 UNK        -0.5000 
     70 CA         -4.0281  -21.6661  -48.9041 C.3       12 UNK         0.1400 
     71 CB         -4.9830  -20.7595  -48.1129 C.3       12 UNK        -0.1800 
     72 C          -4.2701  -23.1485  -48.5829 C.2       12 UNK         0.5000 
     73 O          -4.8384  -23.8657  -49.4061 O.2       12 UNK        -0.5000 
     74 N          -3.7989  -23.5972  -47.4097 N.am      13 UNK        -0.5000 
     75 CA         -3.9109  -24.9750  -46.9191 C.3       13 UNK         0.1400 
     76 CB         -3.3363  -25.0611  -45.4989 C.3       13 UNK        -0.1800 
     77 C          -3.2411  -26.0158  -47.8362 C.2       13 UNK         0.5000 
     78 O          -3.7428  -27.1342  -47.9488 O.2       13 UNK        -0.5000 
     79 N          -2.1699  -25.6112  -48.5322 N.am      14 UNK        -0.5000 
     80 CA         -1.5012  -26.3760  -49.5883 C.3       14 UNK         0.1400 
     81 CB         -0.2380  -25.6164  -50.0198 C.3       14 UNK        -0.1800 
     82 C          -2.3967  -26.6885  -50.8093 C.2       14 UNK         0.5000 
     83 O          -2.1082  -27.6396  -51.5359 O.2       14 UNK        -0.5000 
     84 N          -3.4731  -25.9129  -50.9954 N.am      15 UNK        -0.5000 
     85 CA         -4.5277  -26.1242  -51.9875 C.3       15 UNK         0.1400 
     86 CB         -4.6144  -24.8776  -52.8817 C.3       15 UNK        -0.1800 
     87 C          -5.8733  -26.4361  -51.2975 C.2       15 UNK         0.5000 
     88 O          -6.9328  -26.1410  -51.8542 O.2       15 UNK        -0.5000 
     89 N          -5.8132  -26.9957  -50.0773 N.am      16 UNK        -0.5000 
     90 CA         -6.9298  -27.4165  -49.2195 C.3       16 UNK         0.1400 
     91 CB         -7.6663  -28.6132  -49.8565 C.3       16 UNK        -0.1800 
     92 C          -7.8981  -26.2791  -48.8242 C.2       16 UNK         0.5000 
     93 O          -9.0429  -26.5542  -48.4623 O.2       16 UNK        -0.5000 
     94 N          -7.4336  -25.0243  -48.9263 N.am      17 UNK        -0.5000 
     95 CA         -8.1785  -23.7712  -48.7639 C.3       17 UNK         0.1400 
     96 CB         -8.6838  -23.6074  -47.3163 C.3       17 UNK        -0.1800 
     97 C          -9.2894  -23.5536  -49.8170 C.2       17 UNK         0.5000 
     98 O         -10.1088  -22.6484  -49.6525 O.2       17 UNK        -0.5000 
     99 N          -9.2884  -24.3521  -50.8954 N.am      18 UNK        -0.5000 
    100 CA       -10.1835  -24.1999  -52.0452 C.3       18 UNK         0.1400 
    101 CB       -10.3157  -25.5557  -52.7555 C.3       18 UNK        -0.1800 
    102 C         -9.6769  -23.1224  -53.0232 C.2       18 UNK         0.5000 
    103 O        -10.4670  -22.5635  -53.7849 O.2       18 UNK        -0.5000 
    104 N         -8.3709  -22.8484  -52.9672 N.am      19 UNK        -0.5000 
    105 CA        -7.6500  -21.8165  -53.6970 C.3       19 UNK         0.1400 
    106 CB        -7.3872  -22.2753  -55.1483 C.3       19 UNK        -0.1800 
    107 C         -6.3742  -21.5146  -52.8901 C.2       19 UNK         0.5000 
    108 O         -6.4115  -21.5692  -51.6579 O.2       19 UNK        -0.5000 
    109 N         -5.2632  -21.2493  -53.5807 N.am      20 UNK        -0.5000 
    110 CA        -3.9237  -21.1738  -53.0131 C.3       20 UNK         0.1400 
    111 CB        -3.5497  -19.7108  -52.7266 C.3       20 UNK        -0.1800 
    112 C         -2.9477  -21.8249  -53.9959 C.2       20 UNK         0.5000 
    113 O         -3.2336  -21.8830  -55.1964 O.2       20 UNK        -0.5000 
    114 N         -1.8154  -22.3061  -53.4728 N.am      21 UNK        -0.5000 
    115 CA        -0.7446  -22.9728  -54.2168 C.3       21 UNK         0.1400 
    116 CB         0.0977  -23.7972  -53.2291 C.3       21 UNK        -0.1800 
    117 C          0.0977  -21.9820  -55.0502 C.2       21 UNK         0.5000 
    118 O          1.3030  -21.8470  -54.8308 O.2       21 UNK        -0.5000 
    119 N         -0.5727  -21.2942  -55.9789 N.am      22 UNK        -0.5000 
    120 CA        -0.0270  -20.2434  -56.8513 C.3       22 UNK         0.1400 
    121 C         -0.1295  -20.5884  -58.3653 C.2       22 UNK         0.5000 
    122 N         -0.5792  -21.7768  -58.7511 N.am      22 UNK        -0.7600 
    123 O          0.2235  -19.7711  -59.2113 O.2       22 UNK        -0.5000 
    124 C124       -0.6590  -18.8575  -56.5412 C.3       23 UNK        -0.0398 
    125 S125       -0.4852  -18.3523  -54.7950 S.3       23 UNK        -0.2404 
    126 C126        1.2308  -17.7544  -54.8133 C.3       23 UNK        -0.0205 
    127 H127       -0.8674  -10.6115  -47.0878 H         1 UNK         0.0600 
    128 H128        0.1841  -10.1302  -45.7517 H         1 UNK         0.0600 
    129 H129        0.6284   -9.7308  -47.4144 H         1 UNK         0.0600 
    130 H130        2.2645  -11.0309  -48.1476 H         1 UNK         0.3000 
    131 H131        3.5878  -12.6874  -48.6406 H         1 UNK         0.0600 
    132 H132        2.7835  -15.1067  -48.6287 H         1 UNK         0.0800 
    133 H133        1.2939  -14.5775  -47.9204 H         1 UNK         0.0800 
    134 H134        2.8839  -13.8517  -52.1473 H         1 UNK         0.0800 
    135 H135        3.7607  -14.4402  -50.7647 H         1 UNK         0.0800 
    136 H136        1.7400  -15.3483  -53.6319 H         1 UNK         0.1150 
    137 H137        1.8741  -19.5680  -52.8985 H         1 UNK         0.1150 
    138 H138        3.2814  -16.8355  -49.9151 H         1 UNK         0.1150 
    139 H139        2.7563  -20.4451  -50.8707 H         1 UNK         0.0800 
    140 H140        3.9850  -19.4508  -50.1276 H         1 UNK         0.0800 
    141 H141        0.2427  -19.7944  -50.4929 H         1 UNK         0.0800 
    142 H142       -0.3958  -19.0645  -49.0439 H         1 UNK         0.0800 
    143 H143        0.4762  -21.9838  -49.3419 H         1 UNK         0.0600 
    144 H144       -0.0507  -20.4955  -46.9375 H         1 UNK         0.3000 
    145 H145       -0.6786  -23.3138  -44.8498 H         1 UNK         0.0600 
    146 H146        1.3300  -22.4898  -43.6464 H         1 UNK         0.0600 
    147 H147        1.8030  -23.3848  -45.0831 H         1 UNK         0.0600 
    148 H148        1.8671  -21.6258  -45.0860 H         1 UNK         0.0600 
    149 H149       -0.2280  -20.5884  -44.2246 H         1 UNK         0.3000 
    150 H150       -3.2461  -19.1526  -45.2420 H         1 UNK         0.0600 
    151 H151       -4.2454  -20.3799  -43.3032 H         1 UNK         0.0600 
    152 H152       -3.8471  -18.7254  -42.8713 H         1 UNK         0.0600 
    153 H153       -2.8093  -20.0504  -42.3412 H         1 UNK         0.0600 
    154 H154       -1.4182  -18.2294  -43.2977 H         1 UNK         0.3000 
    155 H155        1.4108  -17.5480  -45.1644 H         1 UNK         0.0600 
    156 H156        1.0491  -15.1343  -44.7136 H         1 UNK         0.0600 
    157 H157       -0.6825  -15.4097  -44.5120 H         1 UNK         0.0600 
    158 H158        0.0752  -15.6572  -46.0768 H         1 UNK         0.0600 
    159 H159        0.4923  -16.5579  -42.6338 H         1 UNK         0.3000 
    160 H160        0.4699  -19.0129  -40.7000 H         1 UNK         0.0600 
    161 H161        2.5674  -20.2595  -40.8893 H         1 UNK         0.0600 
    162 H162        2.6565  -19.2107  -39.4852 H         1 UNK         0.0600 
    163 H163        3.5093  -18.7799  -40.9676 H         1 UNK         0.0600 
    164 H164        0.3956  -16.9681  -39.9181 H         1 UNK         0.3000 
    165 H165        0.8000  -14.9847  -39.2714 H         1 UNK         0.0600 
    166 H166        3.7291  -14.1058  -39.4079 H         1 UNK         0.0600 
    167 H167        2.4938  -13.4675  -38.3241 H         1 UNK         0.0600 
    168 H168        3.0346  -15.1312  -38.1574 H         1 UNK         0.0600 
    169 H169        1.9914  -12.9038  -40.7268 H         1 UNK         0.3000 
    170 H170        0.9035  -12.7294  -43.5243 H         1 UNK         0.0600 
    171 H171       -1.4948  -13.1942  -43.7264 H         1 UNK         0.0600 
    172 H172       -1.8617  -12.2025  -42.3222 H         1 UNK         0.0600 
    173 H173       -1.2379  -11.4620  -43.7977 H         1 UNK         0.0600 
    174 H174        1.6201  -10.9076  -42.5512 H         1 UNK         0.3000 
    175 H175        0.7670   -8.5752  -40.9549 H         1 UNK         0.0600 
    176 H176        1.7907   -8.3692  -38.6700 H         1 UNK         0.0600 
    177 H177        0.1831   -9.0708  -38.6155 H         1 UNK         0.0600 
    178 H178        1.5925  -10.1048  -38.4304 H         1 UNK         0.0600 
    179 H179        2.8696   -8.7148  -41.6139 H         1 UNK         0.3000 
    180 H180        4.8840   -9.3328  -42.0552 H         1 UNK         0.0600 
    181 H181        6.1394  -11.2605  -40.0255 H         1 UNK         0.0600 
    182 H182        6.0019   -9.5185  -39.8220 H         1 UNK         0.0600 
    183 H183        7.0107  -10.1703  -41.1040 H         1 UNK         0.0600 
    184 H184        5.7600  -12.0157  -42.3414 H         1 UNK         0.3000 
    185 H185        5.4826  -12.8831  -44.6099 H         1 UNK         0.0600 
    186 H186        4.2407  -15.0152  -44.1684 H         1 UNK         0.0600 
    187 H187        4.5170  -14.1903  -42.6483 H         1 UNK         0.0600 
    188 H188        2.9316  -14.1268  -43.4021 H         1 UNK         0.0600 
    189 H189        3.0240  -11.9042  -45.5879 H         1 UNK         0.3000 
    190 H190       -2.4431  -20.9419  -47.7072 H         1 UNK         0.3000 
    191 H191       -4.2381  -21.5100  -49.9603 H         1 UNK         0.0600 
    192 H192       -4.8125  -19.7092  -48.3494 H         1 UNK         0.0600 
    193 H193       -6.0209  -20.9820  -48.3631 H         1 UNK         0.0600 
    194 H194       -4.8740  -20.8823  -47.0357 H         1 UNK         0.0600 
    195 H195       -3.3748  -22.9276  -46.7712 H         1 UNK         0.3000 
    196 H196       -4.9748  -25.2159  -46.8716 H         1 UNK         0.0600 
    197 H197       -3.4927  -26.0538  -45.0750 H         1 UNK         0.0600 
    198 H198       -3.8139  -24.3426  -44.8324 H         1 UNK         0.0600 
    199 H199       -2.2642  -24.8680  -45.4914 H         1 UNK         0.0600 
    200 H200       -1.7714  -24.7042  -48.3144 H         1 UNK         0.3000 
    201 H201       -1.1951  -27.3333  -49.1620 H         1 UNK         0.0600 
    202 H202        0.4735  -25.5402  -49.1975 H         1 UNK         0.0600 
    203 H203       -0.4743  -24.6040  -50.3483 H         1 UNK         0.0600 
    204 H204        0.2701  -26.1243  -50.8405 H         1 UNK         0.0600 
    205 H205       -3.6539  -25.1612  -50.3374 H         1 UNK         0.3000 
    206 H206       -4.2955  -26.9823  -52.6206 H         1 UNK         0.0600 
    207 H207       -3.6643  -24.6905  -53.3814 H         1 UNK         0.0600 
    208 H208       -5.3715  -24.9923  -53.6582 H         1 UNK         0.0600 
    209 H209       -4.8692  -23.9952  -52.2960 H         1 UNK         0.0600 
    210 H210       -4.8961  -27.1514  -49.6737 H         1 UNK         0.3000 
    211 H211       -6.4810  -27.7631  -48.2877 H         1 UNK         0.0600 
    212 H212       -8.2001  -28.3233  -50.7622 H         1 UNK         0.0600 
    213 H213       -8.3977  -29.0378  -49.1679 H         1 UNK         0.0600 
    214 H214       -6.9706  -29.4106  -50.1176 H         1 UNK         0.0600 
    215 H215       -6.4735  -24.8974  -49.2342 H         1 UNK         0.3000 
    216 H216       -7.4543  -22.9762  -48.9450 H         1 UNK         0.0600 
    217 H217       -7.8744  -23.7463  -46.5995 H         1 UNK         0.0600 
    218 H218       -9.4724  -24.3210  -47.0773 H         1 UNK         0.0600 
    219 H219       -9.0897  -22.6083  -47.1544 H         1 UNK         0.0600 
    220 H220       -8.5709  -25.0643  -50.9758 H         1 UNK         0.3000 
    221 H221      -11.1730  -23.8992  -51.6947 H         1 UNK         0.0600 
    222 H222       -9.3587  -25.8991  -53.1502 H         1 UNK         0.0600 
    223 H223      -10.6923  -26.3213  -52.0769 H         1 UNK         0.0600 
    224 H224      -11.0117  -25.4910  -53.5928 H         1 UNK         0.0600 
    225 H225       -7.8192  -23.3189  -52.2620 H         1 UNK         0.3000 
    226 H226       -8.2501  -20.9048  -53.7102 H         1 UNK         0.0600 
    227 H227       -8.3167  -22.5334  -55.6556 H         1 UNK         0.0600 
    228 H228       -6.9174  -21.4866  -55.7369 H         1 UNK         0.0600 
    229 H229       -6.7390  -23.1522  -55.1816 H         1 UNK         0.0600 
    230 H230       -5.2810  -21.2869  -54.5923 H         1 UNK         0.3000 
    231 H231       -3.8834  -21.7537  -52.0926 H         1 UNK         0.0600 
    232 H232       -2.5456  -19.6393  -52.3062 H         1 UNK         0.0600 
    233 H233       -4.2357  -19.2641  -52.0068 H         1 UNK         0.0600 
    234 H234       -3.5708  -19.1059  -53.6339 H         1 UNK         0.0600 
    235 H235       -1.6688  -22.2052  -52.4708 H         1 UNK         0.3000 
    236 H236       -1.1983  -23.6734  -54.9209 H         1 UNK         0.0600 
    237 H237        0.9184  -24.3053  -53.7367 H         1 UNK         0.0600 
    238 H238        0.5273  -23.1725  -52.4447 H         1 UNK         0.0600 
    239 H239       -0.5115  -24.5660  -52.7548 H         1 UNK         0.0600 
    240 H240       -1.5754  -21.4480  -56.0393 H         1 UNK         0.3000 
    241 H241        1.0458  -20.1618  -56.6744 H         1 UNK         0.0600 
    242 H242       -0.8515  -22.4690  -58.0715 H         1 UNK         0.3800 
    243 H243       -0.6342  -21.9915  -59.7347 H         1 UNK         0.3800 
    244 H244       -0.2197  -18.0803  -57.1691 H         1 UNK         0.0800 
    245 H245       -1.7239  -18.8716  -56.7790 H         1 UNK         0.0800 
    246 H246        1.2914  -16.8554  -55.4287 H         1 UNK         0.0800 
    247 H247        1.8762  -18.4956  -55.2854 H         1 UNK         0.0800 
@<TRIPOS>BOND
     1    1    2 1    
     2    1  127 1    
     3    1  128 1    
     4    1  129 1    
     5    2    3 2    
     6    2    4 am   BACKBONE|DICT|INTERRES
     7    4    5 1    
     8    4  130 1    
     9    5    6 1    
    10    5   65 1    
    11    5  131 1    
    12    6    7 1    
    13    6  132 1    
    14    6  133 1    
    15    7    8 1    
    16    8    9 1    
    17    8  134 1    
    18    8  135 1    
    19    9   10 ar   
    20    9   14 ar   
    21   10   11 ar   
    22   10  136 1    
    23   11   12 ar   
    24   11  126 1    
    25   12   13 ar   
    26   12  137 1    
    27   13   14 ar   
    28   13   15 1    
    29   14  138 1    
    30   15   16 1    
    31   15  139 1    
    32   15  140 1    
    33   16   17 1    
    34   17   18 1    
    35   17  141 1    
    36   17  142 1    
    37   18   19 1    
    38   18   67 1    
    39   18  143 1    
    40   19   20 am   BACKBONE|DICT|INTERRES
    41   19  144 1    
    42   20   21 2    
    43   20   22 1    
    44   22   23 1    
    45   22   24 1    
    46   22  145 1    
    47   23  146 1    
    48   23  147 1    
    49   23  148 1    
    50   24   25 am   BACKBONE|DICT|INTERRES
    51   24  149 1    
    52   25   26 2    
    53   25   27 1    
    54   27   28 1    
    55   27   29 1    
    56   27  150 1    
    57   28  151 1    
    58   28  152 1    
    59   28  153 1    
    60   29   30 am   BACKBONE|DICT|INTERRES
    61   29  154 1    
    62   30   31 2    
    63   30   32 1    
    64   32   33 1    
    65   32   34 1    
    66   32  155 1    
    67   33  156 1    
    68   33  157 1    
    69   33  158 1    
    70   34   35 am   BACKBONE|DICT|INTERRES
    71   34  159 1    
    72   35   36 2    
    73   35   37 1    
    74   37   38 1    
    75   37   39 1    
    76   37  160 1    
    77   38  161 1    
    78   38  162 1    
    79   38  163 1    
    80   39   40 am   BACKBONE|DICT|INTERRES
    81   39  164 1    
    82   40   41 2    
    83   40   42 1    
    84   42   43 1    
    85   42   44 1    
    86   42  165 1    
    87   43  166 1    
    88   43  167 1    
    89   43  168 1    
    90   44   45 am   BACKBONE|DICT|INTERRES
    91   44  169 1    
    92   45   46 2    
    93   45   47 1    
    94   47   48 1    
    95   47   49 1    
    96   47  170 1    
    97   48  171 1    
    98   48  172 1    
    99   48  173 1    
   100   49   50 am   BACKBONE|DICT|INTERRES
   101   49  174 1    
   102   50   51 2    
   103   50   52 1    
   104   52   53 1    
   105   52   54 1    
   106   52  175 1    
   107   53  176 1    
   108   53  177 1    
   109   53  178 1    
   110   54   55 am   BACKBONE|DICT|INTERRES
   111   54  179 1    
   112   55   56 2    
   113   55   57 1    
   114   57   58 1    
   115   57   59 1    
   116   57  180 1    
   117   58  181 1    
   118   58  182 1    
   119   58  183 1    
   120   59   60 am   BACKBONE|DICT|INTERRES
   121   59  184 1    
   122   60   61 2    
   123   60   62 1    
   124   62   63 1    
   125   62   64 1    
   126   62  185 1    
   127   63  186 1    
   128   63  187 1    
   129   63  188 1    
   130   64   65 am   BACKBONE|DICT|INTERRES
   131   64  189 1    
   132   65   66 2    
   133   67   68 2    
   134   67   69 am   BACKBONE|DICT|INTERRES
   135   69   70 1    
   136   69  190 1    
   137   70   71 1    
   138   70   72 1    
   139   70  191 1    
   140   71  192 1    
   141   71  193 1    
   142   71  194 1    
   143   72   73 2    
   144   72   74 am   BACKBONE|DICT|INTERRES
   145   74   75 1    
   146   74  195 1    
   147   75   76 1    
   148   75   77 1    
   149   75  196 1    
   150   76  197 1    
   151   76  198 1    
   152   76  199 1    
   153   77   78 2    
   154   77   79 am   BACKBONE|DICT|INTERRES
   155   79   80 1    
   156   79  200 1    
   157   80   81 1    
   158   80   82 1    
   159   80  201 1    
   160   81  202 1    
   161   81  203 1    
   162   81  204 1    
   163   82   83 2    
   164   82   84 am   BACKBONE|DICT|INTERRES
   165   84   85 1    
   166   84  205 1    
   167   85   86 1    
   168   85   87 1    
   169   85  206 1    
   170   86  207 1    
   171   86  208 1    
   172   86  209 1    
   173   87   88 2    
   174   87   89 am   BACKBONE|DICT|INTERRES
   175   89   90 1    
   176   89  210 1    
   177   90   91 1    
   178   90   92 1    
   179   90  211 1    
   180   91  212 1    
   181   91  213 1    
   182   91  214 1    
   183   92   93 2    
   184   92   94 am   BACKBONE|DICT|INTERRES
   185   94   95 1    
   186   94  215 1    
   187   95   96 1    
   188   95   97 1    
   189   95  216 1    
   190   96  217 1    
   191   96  218 1    
   192   96  219 1    
   193   97   98 2    
   194   97   99 am   BACKBONE|DICT|INTERRES
   195   99  100 1    
   196   99  220 1    
   197  100  101 1    
   198  100  102 1    
   199  100  221 1    
   200  101  222 1    
   201  101  223 1    
   202  101  224 1    
   203  102  103 2    
   204  102  104 am   BACKBONE|DICT|INTERRES
   205  104  105 1    
   206  104  225 1    
   207  105  106 1    
   208  105  107 1    
   209  105  226 1    
   210  106  227 1    
   211  106  228 1    
   212  106  229 1    
   213  107  108 2    
   214  107  109 am   BACKBONE|DICT|INTERRES
   215  109  110 1    
   216  109  230 1    
   217  110  111 1    
   218  110  112 1    
   219  110  231 1    
   220  111  232 1    
   221  111  233 1    
   222  111  234 1    
   223  112  113 2    
   224  112  114 am   BACKBONE|DICT|INTERRES
   225  114  115 1    
   226  114  235 1    
   227  115  116 1    
   228  115  117 1    
   229  115  236 1    
   230  116  237 1    
   231  116  238 1    
   232  116  239 1    
   233  117  118 2    
   234  117  119 am   BACKBONE|DICT|INTERRES
   235  119  120 1    
   236  119  240 1    
   237  120  121 1    
   238  120  124 1    
   239  120  241 1    
   240  121  122 am   BACKBONE|DICT|INTERRES
   241  121  123 2    
   242  122  242 1    
   243  122  243 1    
   244  124  125 1    
   245  124  244 1    
   246  124  245 1    
   247  125  126 1    
   248  126  246 1    
   249  126  247 1    
@<TRIPOS>SUBSTRUCTURE
     1 UNK         1 GROUP             0       ****    0 ROOT    
