@<TRIPOS>MOLECULE
3R540
247   249    1
SMALL
USER_CHARGES


@<TRIPOS>ATOM
      1 CA          2.9629  -10.0116  -51.0078 C.3       0 UNK        -0.1800 
      2 C           2.6659  -10.9172  -49.8211 C.2       0 UNK         0.5000 
      3 O           1.7626  -10.6222  -49.0406 O.2       0 UNK        -0.5000 
      4 N           3.4349  -12.0056  -49.6781 N.am      1 UNK        -0.5000 
      5 CA          3.3165  -13.0509  -48.6471 C.3       1 UNK         0.1400 
      6 C6          1.9411  -13.7780  -48.6494 C.3       23 UNK        -0.0398 
      7 S7          1.6507  -14.7502  -50.1613 S.3       23 UNK        -0.2404 
      8 C8          0.3360  -15.8853  -49.6024 C.3       23 UNK        -0.0205 
      9 C9          0.3274  -17.1502  -50.4455 C.ar      23 UNK        -0.0193 
     10 C10        -0.3099  -17.1675  -51.6896 C.ar      23 UNK        -0.1150 
     11 C11        -0.2501  -18.3051  -52.4992 C.ar      23 UNK        -0.0193 
     12 C12         0.4270  -19.4389  -52.0414 C.ar      23 UNK        -0.1150 
     13 C13         1.0443  -19.4491  -50.7869 C.ar      23 UNK        -0.0193 
     14 C14         0.9956  -18.2938  -49.9977 C.ar      23 UNK        -0.1150 
     15 C15         1.8260  -20.6843  -50.3430 C.3       23 UNK        -0.0205 
     16 S16         1.6739  -21.0714  -48.5663 S.3       23 UNK        -0.2404 
     17 C17        -0.0209  -21.7341  -48.4617 C.3       23 UNK        -0.0398 
     18 CA         -0.1294  -22.8109  -47.3551 C.3       11 UNK         0.1400 
     19 N          -0.0147  -22.2515  -46.0024 N.am      11 UNK        -0.5000 
     20 C           0.0958  -22.9845  -44.8847 C.2       10 UNK         0.5000 
     21 O           0.1213  -24.2149  -44.8754 O.2       10 UNK        -0.5000 
     22 CA          0.1387  -22.2263  -43.5460 C.3       10 UNK         0.1400 
     23 CB          1.5165  -21.5883  -43.3134 C.3       10 UNK        -0.1800 
     24 N          -0.9074  -21.2101  -43.4391 N.am      10 UNK        -0.5000 
     25 C          -2.2221  -21.4727  -43.4424 C.2       9 UNK         0.5000 
     26 O          -2.6936  -22.6078  -43.4964 O.2       9 UNK        -0.5000 
     27 CA         -3.1758  -20.2646  -43.4405 C.3       9 UNK         0.1400 
     28 CB         -3.3407  -19.6967  -42.0233 C.3       9 UNK        -0.1800 
     29 N          -2.7533  -19.2065  -44.3596 N.am      9 UNK        -0.5000 
     30 C          -2.6097  -19.3757  -45.6827 C.2       8 UNK         0.5000 
     31 O          -2.8472  -20.4324  -46.2658 O.2       8 UNK        -0.5000 
     32 CA         -2.0518  -18.1881  -46.4840 C.3       8 UNK         0.1400 
     33 CB         -3.1406  -17.1317  -46.7277 C.3       8 UNK        -0.1800 
     34 N          -0.8936  -17.5747  -45.8372 N.am      8 UNK        -0.5000 
     35 C           0.2600  -18.2121  -45.5905 C.2       7 UNK         0.5000 
     36 O           0.4801  -19.3766  -45.9193 O.2       7 UNK        -0.5000 
     37 CA          1.3250  -17.4397  -44.7936 C.3       7 UNK         0.1400 
     38 CB          2.0260  -16.4023  -45.6776 C.3       7 UNK        -0.1800 
     39 N           0.7680  -16.7745  -43.6175 N.am      7 UNK        -0.5000 
     40 C           0.1939  -17.4051  -42.5842 C.2       6 UNK         0.5000 
     41 O           0.1096  -18.6290  -42.4860 O.2       6 UNK        -0.5000 
     42 CA         -0.4296  -16.5123  -41.4998 C.3       6 UNK         0.1400 
     43 CB          0.6423  -15.9971  -40.5271 C.3       6 UNK        -0.1800 
     44 N          -1.1537  -15.3811  -42.0783 N.am      6 UNK        -0.5000 
     45 C          -2.3100  -15.4868  -42.7473 C.2       5 UNK         0.5000 
     46 O          -2.8994  -16.5512  -42.9351 O.2       5 UNK        -0.5000 
     47 CA         -2.8831  -14.1854  -43.3369 C.3       5 UNK         0.1400 
     48 CB         -3.6114  -13.3714  -42.2569 C.3       5 UNK        -0.1800 
     49 N          -1.8587  -13.3520  -43.9688 N.am      5 UNK        -0.5000 
     50 C          -1.1799  -13.7071  -45.0676 C.2       4 UNK         0.5000 
     51 O          -1.3442  -14.7702  -45.6616 O.2       4 UNK        -0.5000 
     52 CA         -0.1097  -12.7323  -45.5772 C.3       4 UNK         0.1400 
     53 CB         -0.7361  -11.6579  -46.4766 C.3       4 UNK        -0.1800 
     54 N           0.6963  -12.0886  -44.5413 N.am      4 UNK        -0.5000 
     55 C           1.4014  -12.7127  -43.5888 C.2       3 UNK         0.5000 
     56 O           1.2981  -13.9130  -43.3277 O.2       3 UNK        -0.5000 
     57 CA          2.4504  -11.8438  -42.8658 C.3       3 UNK         0.1400 
     58 CB          3.0098  -12.5249  -41.6043 C.3       3 UNK        -0.1800 
     59 N           3.5570  -11.5536  -43.7793 N.am      3 UNK        -0.5000 
     60 C           3.5212  -10.6708  -44.7872 C.2       2 UNK         0.5000 
     61 O           2.6009   -9.8673  -44.9523 O.2       2 UNK        -0.5000 
     62 CA          4.6678  -10.7225  -45.8192 C.3       2 UNK         0.1400 
     63 CB          5.9602  -11.3828  -45.2886 C.3       2 UNK        -0.1800 
     64 N           4.2356  -11.3605  -47.0704 N.am      2 UNK        -0.5000 
     65 C           3.7256  -12.5946  -47.2233 C.2       1 UNK         0.5000 
     66 O           3.6066  -13.3923  -46.2934 O.2       1 UNK        -0.5000 
     67 C          -1.4049  -23.6573  -47.5308 C.2       11 UNK         0.5000 
     68 O          -1.3305  -24.7284  -48.1350 O.2       11 UNK        -0.5000 
     69 N          -2.5316  -23.1919  -46.9740 N.am      12 UNK        -0.5000 
     70 CA         -3.8030  -23.9127  -46.9586 C.3       12 UNK         0.1400 
     71 CB         -4.9205  -22.9822  -46.4641 C.3       12 UNK        -0.1800 
     72 C          -3.7440  -25.1949  -46.1087 C.2       12 UNK         0.5000 
     73 O          -4.2004  -26.2417  -46.5681 O.2       12 UNK        -0.5000 
     74 N          -3.1623  -25.1027  -44.9031 N.am      13 UNK        -0.5000 
     75 CA         -2.9938  -26.2212  -43.9706 C.3       13 UNK         0.1400 
     76 CB         -2.5076  -25.6951  -42.6118 C.3       13 UNK        -0.1800 
     77 C          -2.0432  -27.3101  -44.4986 C.2       13 UNK         0.5000 
     78 O          -2.3239  -28.4972  -44.3284 O.2       13 UNK        -0.5000 
     79 N          -0.9525  -26.8894  -45.1527 N.am      14 UNK        -0.5000 
     80 CA          0.0105  -27.7701  -45.8164 C.3       14 UNK         0.1400 
     81 CB          1.2993  -26.9773  -46.0870 C.3       14 UNK        -0.1800 
     82 C          -0.5194  -28.3743  -47.1319 C.2       14 UNK         0.5000 
     83 O           0.0639  -29.3421  -47.6218 O.2       14 UNK        -0.5000 
     84 N          -1.5821  -27.7742  -47.6911 N.am      15 UNK        -0.5000 
     85 CA         -2.1584  -28.0264  -49.0160 C.3       15 UNK         0.1400 
     86 CB         -2.7846  -29.4340  -49.0927 C.3       15 UNK        -0.1800 
     87 C          -1.1472  -27.7412  -50.1475 C.2       15 UNK         0.5000 
     88 O          -1.1098  -28.4549  -51.1516 O.2       15 UNK        -0.5000 
     89 N          -0.3309  -26.6987  -49.9462 N.am      16 UNK        -0.5000 
     90 CA          0.7147  -26.2542  -50.8654 C.3       16 UNK         0.1400 
     91 CB          1.7373  -25.4168  -50.0809 C.3       16 UNK        -0.1800 
     92 C           0.1489  -25.4411  -52.0417 C.2       16 UNK         0.5000 
     93 O           0.7597  -25.4129  -53.1107 O.2       16 UNK        -0.5000 
     94 N          -1.0017  -24.7970  -51.8223 N.am      17 UNK        -0.5000 
     95 CA         -1.7224  -23.9672  -52.7766 C.3       17 UNK         0.1400 
     96 CB         -1.0101  -22.6097  -52.9280 C.3       17 UNK        -0.1800 
     97 C          -3.1566  -23.7727  -52.2664 C.2       17 UNK         0.5000 
     98 O          -3.4650  -24.1477  -51.1313 O.2       17 UNK        -0.5000 
     99 N          -3.9964  -23.1466  -53.1011 N.am      18 UNK        -0.5000 
    100 CA        -5.3548  -22.7209  -52.7483 C.3       18 UNK         0.1400 
    101 CB        -6.0956  -22.3123  -54.0296 C.3       18 UNK        -0.1800 
    102 C         -5.3827  -21.5660  -51.7254 C.2       18 UNK         0.5000 
    103 O         -6.4000  -21.3739  -51.0586 O.2       18 UNK        -0.5000 
    104 N         -4.2708  -20.8209  -51.6360 N.am      19 UNK        -0.5000 
    105 CA        -3.9407  -19.7278  -50.7155 C.3       19 UNK         0.1400 
    106 CB        -3.9853  -20.2082  -49.2574 C.3       19 UNK        -0.1800 
    107 C         -4.7715  -18.4457  -50.9084 C.2       19 UNK         0.5000 
    108 O         -4.1968  -17.3633  -51.0184 O.2       19 UNK        -0.5000 
    109 N         -6.1004  -18.5833  -50.9392 N.am      20 UNK        -0.5000 
    110 CA        -7.0453  -17.4822  -51.1093 C.3       20 UNK         0.1400 
    111 CB        -8.3676  -17.8469  -50.4169 C.3       20 UNK        -0.1800 
    112 C         -7.2882  -17.1485  -52.5907 C.2       20 UNK         0.5000 
    113 O         -7.4433  -15.9745  -52.9286 O.2       20 UNK        -0.5000 
    114 N         -7.3440  -18.1832  -53.4413 N.am      21 UNK        -0.5000 
    115 CA        -7.6752  -18.0537  -54.8624 C.3       21 UNK         0.1400 
    116 CB        -8.3331  -19.3554  -55.3453 C.3       21 UNK        -0.1800 
    117 C         -6.4598  -17.7111  -55.7422 C.2       21 UNK         0.5000 
    118 O         -6.6388  -17.1137  -56.8048 O.2       21 UNK        -0.5000 
    119 N         -5.2581  -18.1110  -55.3087 N.am      22 UNK        -0.5000 
    120 CA        -3.9922  -17.8482  -56.0084 C.3       22 UNK         0.1400 
    121 C         -3.4642  -16.3969  -55.8120 C.2       22 UNK         0.5000 
    122 N         -2.5246  -15.9596  -56.6404 N.am      22 UNK        -0.7600 
    123 O         -3.8794  -15.6656  -54.9158 O.2       22 UNK        -0.5000 
    124 C124       -2.9253  -18.9283  -55.6876 C.3       23 UNK        -0.0398 
    125 S125       -2.5000  -19.0804  -53.9189 S.3       23 UNK        -0.2404 
    126 C126       -0.8625  -18.2931  -53.8914 C.3       23 UNK        -0.0205 
    127 H127        3.2164   -9.0097  -50.6614 H         1 UNK         0.0600 
    128 H128        2.0863   -9.9392  -51.6515 H         1 UNK         0.0600 
    129 H129        3.7940  -10.3853  -51.6063 H         1 UNK         0.0600 
    130 H130        4.1659  -12.1689  -50.3568 H         1 UNK         0.3000 
    131 H131        4.0693  -13.7951  -48.9116 H         1 UNK         0.0600 
    132 H132        1.8891  -14.4772  -47.8182 H         1 UNK         0.0800 
    133 H133        1.1164  -13.0787  -48.5134 H         1 UNK         0.0800 
    134 H134        0.4767  -16.1468  -48.5524 H         1 UNK         0.0800 
    135 H135       -0.6305  -15.3830  -49.6658 H         1 UNK         0.0800 
    136 H136       -0.8203  -16.2821  -52.0423 H         1 UNK         0.1150 
    137 H137        0.4954  -20.3063  -52.6809 H         1 UNK         0.1150 
    138 H138        1.4996  -18.2743  -49.0416 H         1 UNK         0.1150 
    139 H139        1.5306  -21.5601  -50.9233 H         1 UNK         0.0800 
    140 H140        2.8797  -20.5129  -50.5656 H         1 UNK         0.0800 
    141 H141       -0.2862  -22.1523  -49.4346 H         1 UNK         0.0800 
    142 H142       -0.7151  -20.9121  -48.2778 H         1 UNK         0.0800 
    143 H143        0.7075  -23.5016  -47.4792 H         1 UNK         0.0600 
    144 H144        0.0120  -21.2368  -45.9326 H         1 UNK         0.3000 
    145 H145       -0.0299  -22.9551  -42.7506 H         1 UNK         0.0600 
    146 H146        1.5735  -21.1241  -42.3288 H         1 UNK         0.0600 
    147 H147        2.3072  -22.3377  -43.3668 H         1 UNK         0.0600 
    148 H148        1.7397  -20.8223  -44.0558 H         1 UNK         0.0600 
    149 H149       -0.5993  -20.2455  -43.3572 H         1 UNK         0.3000 
    150 H150       -4.1526  -20.6182  -43.7767 H         1 UNK         0.0600 
    151 H151       -4.0921  -18.9074  -42.0008 H         1 UNK         0.0600 
    152 H152       -2.4076  -19.2810  -41.6434 H         1 UNK         0.0600 
    153 H153       -3.6631  -20.4719  -41.3271 H         1 UNK         0.0600 
    154 H154       -2.5613  -18.2978  -43.9510 H         1 UNK         0.3000 
    155 H155       -1.7212  -18.5667  -47.4534 H         1 UNK         0.0600 
    156 H156       -4.0337  -17.5740  -47.1698 H         1 UNK         0.0600 
    157 H157       -3.4433  -16.6458  -45.7995 H         1 UNK         0.0600 
    158 H158       -2.7897  -16.3589  -47.4118 H         1 UNK         0.0600 
    159 H159       -0.9942  -16.5992  -45.5671 H         1 UNK         0.3000 
    160 H160        2.0719  -18.1591  -44.4518 H         1 UNK         0.0600 
    161 H161        2.8611  -15.9365  -45.1539 H         1 UNK         0.0600 
    162 H162        1.3362  -15.6119  -45.9679 H         1 UNK         0.0600 
    163 H163        2.4198  -16.8559  -46.5882 H         1 UNK         0.0600 
    164 H164        0.8252  -15.7596  -43.5940 H         1 UNK         0.3000 
    165 H165       -1.1387  -17.1191  -40.9327 H         1 UNK         0.0600 
    166 H166        0.1971  -15.4054  -39.7272 H         1 UNK         0.0600 
    167 H167        1.1741  -16.8271  -40.0602 H         1 UNK         0.0600 
    168 H168        1.3834  -15.3759  -41.0310 H         1 UNK         0.0600 
    169 H169       -0.6940  -14.4825  -42.0423 H         1 UNK         0.3000 
    170 H170       -3.6115  -14.4622  -44.1021 H         1 UNK         0.0600 
    171 H171       -2.9295  -13.0345  -41.4752 H         1 UNK         0.0600 
    172 H172       -4.0930  -12.4918  -42.6845 H         1 UNK         0.0600 
    173 H173       -4.3904  -13.9670  -41.7791 H         1 UNK         0.0600 
    174 H174       -1.6493  -12.4649  -43.5351 H         1 UNK         0.3000 
    175 H175        0.5833  -13.3157  -46.1819 H         1 UNK         0.0600 
    176 H176        0.0300  -11.0282  -46.9293 H         1 UNK         0.0600 
    177 H177       -1.4146  -11.0116  -45.9188 H         1 UNK         0.0600 
    178 H178       -1.3048  -12.1107  -47.2901 H         1 UNK         0.0600 
    179 H179        0.9146  -11.1113  -44.6981 H         1 UNK         0.3000 
    180 H180        1.9718  -10.9099  -42.5639 H         1 UNK         0.0600 
    181 H181        3.5222  -13.4584  -41.8409 H         1 UNK         0.0600 
    182 H182        2.2100  -12.7586  -40.9005 H         1 UNK         0.0600 
    183 H183        3.7177  -11.8763  -41.0881 H         1 UNK         0.0600 
    184 H184        4.3186  -12.2165  -43.7700 H         1 UNK         0.3000 
    185 H185        4.9058   -9.6861  -46.0632 H         1 UNK         0.0600 
    186 H186        5.8333  -12.4458  -45.0817 H         1 UNK         0.0600 
    187 H187        6.7687  -11.2861  -46.0132 H         1 UNK         0.0600 
    188 H188        6.2961  -10.9029  -44.3685 H         1 UNK         0.0600 
    189 H189        4.2670  -10.7734  -47.8914 H         1 UNK         0.3000 
    190 H190       -2.5249  -22.2748  -46.5332 H         1 UNK         0.3000 
    191 H191       -4.0343  -24.2024  -47.9862 H         1 UNK         0.0600 
    192 H192       -5.0241  -22.1128  -47.1124 H         1 UNK         0.0600 
    193 H193       -5.8822  -23.4964  -46.4537 H         1 UNK         0.0600 
    194 H194       -4.7277  -22.6217  -45.4532 H         1 UNK         0.0600 
    195 H195       -2.8432  -24.1939  -44.5771 H         1 UNK         0.3000 
    196 H196       -3.9729  -26.6816  -43.8236 H         1 UNK         0.0600 
    197 H197       -2.3733  -26.5108  -41.9003 H         1 UNK         0.0600 
    198 H198       -3.2280  -25.0016  -42.1779 H         1 UNK         0.0600 
    199 H199       -1.5533  -25.1744  -42.7008 H         1 UNK         0.0600 
    200 H200       -0.7543  -25.8923  -45.1889 H         1 UNK         0.3000 
    201 H201        0.2492  -28.5963  -45.1437 H         1 UNK         0.0600 
    202 H202        1.7258  -26.5897  -45.1617 H         1 UNK         0.0600 
    203 H203        1.1166  -26.1313  -46.7513 H         1 UNK         0.0600 
    204 H204        2.0574  -27.6057  -46.5561 H         1 UNK         0.0600 
    205 H205       -1.9744  -26.9812  -47.2007 H         1 UNK         0.3000 
    206 H206       -2.9630  -27.2998  -49.1384 H         1 UNK         0.0600 
    207 H207       -3.4887  -29.5953  -48.2764 H         1 UNK         0.0600 
    208 H208       -3.3341  -29.5653  -50.0255 H         1 UNK         0.0600 
    209 H209       -2.0298  -30.2193  -49.0459 H         1 UNK         0.0600 
    210 H210       -0.4957  -26.1198  -49.1268 H         1 UNK         0.3000 
    211 H211        1.2238  -27.1305  -51.2721 H         1 UNK         0.0600 
    212 H212        1.2863  -24.5135  -49.6691 H         1 UNK         0.0600 
    213 H213        2.5622  -25.1065  -50.7234 H         1 UNK         0.0600 
    214 H214        2.1643  -25.9861  -49.2550 H         1 UNK         0.0600 
    215 H215       -1.4742  -24.9065  -50.9323 H         1 UNK         0.3000 
    216 H216       -1.7626  -24.4795  -53.7399 H         1 UNK         0.0600 
    217 H217       -1.4968  -21.9866  -53.6784 H         1 UNK         0.0600 
    218 H218        0.0258  -22.7323  -53.2440 H         1 UNK         0.0600 
    219 H219       -1.0098  -22.0570  -51.9877 H         1 UNK         0.0600 
    220 H220       -3.6720  -22.8914  -54.0228 H         1 UNK         0.3000 
    221 H221       -5.8771  -23.5699  -52.3021 H         1 UNK         0.0600 
    222 H222       -5.6180  -21.4616  -54.5178 H         1 UNK         0.0600 
    223 H223       -6.1308  -23.1342  -54.7449 H         1 UNK         0.0600 
    224 H224       -7.1268  -22.0337  -53.8087 H         1 UNK         0.0600 
    225 H225       -3.5329  -21.0429  -52.2881 H         1 UNK         0.3000 
    226 H226       -2.9041  -19.4623  -50.9310 H         1 UNK         0.0600 
    227 H227       -3.3237  -21.0599  -49.0980 H         1 UNK         0.0600 
    228 H228       -3.6618  -19.4131  -48.5908 H         1 UNK         0.0600 
    229 H229       -4.9893  -20.4987  -48.9490 H         1 UNK         0.0600 
    230 H230       -6.4770  -19.5240  -50.8496 H         1 UNK         0.3000 
    231 H231       -6.6485  -16.5875  -50.6244 H         1 UNK         0.0600 
    232 H232       -8.8122  -18.7474  -50.8427 H         1 UNK         0.0600 
    233 H233       -9.0962  -17.0412  -50.5163 H         1 UNK         0.0600 
    234 H234       -8.2182  -18.0197  -49.3509 H         1 UNK         0.0600 
    235 H235       -7.2169  -19.1164  -53.0803 H         1 UNK         0.3000 
    236 H236       -8.4056  -17.2506  -54.9842 H         1 UNK         0.0600 
    237 H237       -9.2051  -19.6076  -54.7416 H         1 UNK         0.0600 
    238 H238       -8.6710  -19.2592  -56.3780 H         1 UNK         0.0600 
    239 H239       -7.6411  -20.1958  -55.3082 H         1 UNK         0.0600 
    240 H240       -5.1817  -18.5330  -54.3962 H         1 UNK         0.3000 
    241 H241       -4.2005  -17.9382  -57.0766 H         1 UNK         0.0600 
    242 H242       -2.1713  -15.0226  -56.5236 H         1 UNK         0.3800 
    243 H243       -2.1710  -16.5278  -57.3945 H         1 UNK         0.3800 
    244 H244       -3.2969  -19.9003  -56.0143 H         1 UNK         0.0800 
    245 H245       -2.0199  -18.7605  -56.2726 H         1 UNK         0.0800 
    246 H246       -0.9481  -17.2682  -54.2555 H         1 UNK         0.0800 
    247 H247       -0.1989  -18.8121  -54.5848 H         1 UNK         0.0800 
@<TRIPOS>BOND
     1    1    2 1    
     2    1  127 1    
     3    1  128 1    
     4    1  129 1    
     5    2    3 2    
     6    2    4 am   BACKBONE|DICT|INTERRES
     7    4    5 1    
     8    4  130 1    
     9    5    6 1    
    10    5   65 1    
    11    5  131 1    
    12    6    7 1    
    13    6  132 1    
    14    6  133 1    
    15    7    8 1    
    16    8    9 1    
    17    8  134 1    
    18    8  135 1    
    19    9   10 ar   
    20    9   14 ar   
    21   10   11 ar   
    22   10  136 1    
    23   11   12 ar   
    24   11  126 1    
    25   12   13 ar   
    26   12  137 1    
    27   13   14 ar   
    28   13   15 1    
    29   14  138 1    
    30   15   16 1    
    31   15  139 1    
    32   15  140 1    
    33   16   17 1    
    34   17   18 1    
    35   17  141 1    
    36   17  142 1    
    37   18   19 1    
    38   18   67 1    
    39   18  143 1    
    40   19   20 am   BACKBONE|DICT|INTERRES
    41   19  144 1    
    42   20   21 2    
    43   20   22 1    
    44   22   23 1    
    45   22   24 1    
    46   22  145 1    
    47   23  146 1    
    48   23  147 1    
    49   23  148 1    
    50   24   25 am   BACKBONE|DICT|INTERRES
    51   24  149 1    
    52   25   26 2    
    53   25   27 1    
    54   27   28 1    
    55   27   29 1    
    56   27  150 1    
    57   28  151 1    
    58   28  152 1    
    59   28  153 1    
    60   29   30 am   BACKBONE|DICT|INTERRES
    61   29  154 1    
    62   30   31 2    
    63   30   32 1    
    64   32   33 1    
    65   32   34 1    
    66   32  155 1    
    67   33  156 1    
    68   33  157 1    
    69   33  158 1    
    70   34   35 am   BACKBONE|DICT|INTERRES
    71   34  159 1    
    72   35   36 2    
    73   35   37 1    
    74   37   38 1    
    75   37   39 1    
    76   37  160 1    
    77   38  161 1    
    78   38  162 1    
    79   38  163 1    
    80   39   40 am   BACKBONE|DICT|INTERRES
    81   39  164 1    
    82   40   41 2    
    83   40   42 1    
    84   42   43 1    
    85   42   44 1    
    86   42  165 1    
    87   43  166 1    
    88   43  167 1    
    89   43  168 1    
    90   44   45 am   BACKBONE|DICT|INTERRES
    91   44  169 1    
    92   45   46 2    
    93   45   47 1    
    94   47   48 1    
    95   47   49 1    
    96   47  170 1    
    97   48  171 1    
    98   48  172 1    
    99   48  173 1    
   100   49   50 am   BACKBONE|DICT|INTERRES
   101   49  174 1    
   102   50   51 2    
   103   50   52 1    
   104   52   53 1    
   105   52   54 1    
   106   52  175 1    
   107   53  176 1    
   108   53  177 1    
   109   53  178 1    
   110   54   55 am   BACKBONE|DICT|INTERRES
   111   54  179 1    
   112   55   56 2    
   113   55   57 1    
   114   57   58 1    
   115   57   59 1    
   116   57  180 1    
   117   58  181 1    
   118   58  182 1    
   119   58  183 1    
   120   59   60 am   BACKBONE|DICT|INTERRES
   121   59  184 1    
   122   60   61 2    
   123   60   62 1    
   124   62   63 1    
   125   62   64 1    
   126   62  185 1    
   127   63  186 1    
   128   63  187 1    
   129   63  188 1    
   130   64   65 am   BACKBONE|DICT|INTERRES
   131   64  189 1    
   132   65   66 2    
   133   67   68 2    
   134   67   69 am   BACKBONE|DICT|INTERRES
   135   69   70 1    
   136   69  190 1    
   137   70   71 1    
   138   70   72 1    
   139   70  191 1    
   140   71  192 1    
   141   71  193 1    
   142   71  194 1    
   143   72   73 2    
   144   72   74 am   BACKBONE|DICT|INTERRES
   145   74   75 1    
   146   74  195 1    
   147   75   76 1    
   148   75   77 1    
   149   75  196 1    
   150   76  197 1    
   151   76  198 1    
   152   76  199 1    
   153   77   78 2    
   154   77   79 am   BACKBONE|DICT|INTERRES
   155   79   80 1    
   156   79  200 1    
   157   80   81 1    
   158   80   82 1    
   159   80  201 1    
   160   81  202 1    
   161   81  203 1    
   162   81  204 1    
   163   82   83 2    
   164   82   84 am   BACKBONE|DICT|INTERRES
   165   84   85 1    
   166   84  205 1    
   167   85   86 1    
   168   85   87 1    
   169   85  206 1    
   170   86  207 1    
   171   86  208 1    
   172   86  209 1    
   173   87   88 2    
   174   87   89 am   BACKBONE|DICT|INTERRES
   175   89   90 1    
   176   89  210 1    
   177   90   91 1    
   178   90   92 1    
   179   90  211 1    
   180   91  212 1    
   181   91  213 1    
   182   91  214 1    
   183   92   93 2    
   184   92   94 am   BACKBONE|DICT|INTERRES
   185   94   95 1    
   186   94  215 1    
   187   95   96 1    
   188   95   97 1    
   189   95  216 1    
   190   96  217 1    
   191   96  218 1    
   192   96  219 1    
   193   97   98 2    
   194   97   99 am   BACKBONE|DICT|INTERRES
   195   99  100 1    
   196   99  220 1    
   197  100  101 1    
   198  100  102 1    
   199  100  221 1    
   200  101  222 1    
   201  101  223 1    
   202  101  224 1    
   203  102  103 2    
   204  102  104 am   BACKBONE|DICT|INTERRES
   205  104  105 1    
   206  104  225 1    
   207  105  106 1    
   208  105  107 1    
   209  105  226 1    
   210  106  227 1    
   211  106  228 1    
   212  106  229 1    
   213  107  108 2    
   214  107  109 am   BACKBONE|DICT|INTERRES
   215  109  110 1    
   216  109  230 1    
   217  110  111 1    
   218  110  112 1    
   219  110  231 1    
   220  111  232 1    
   221  111  233 1    
   222  111  234 1    
   223  112  113 2    
   224  112  114 am   BACKBONE|DICT|INTERRES
   225  114  115 1    
   226  114  235 1    
   227  115  116 1    
   228  115  117 1    
   229  115  236 1    
   230  116  237 1    
   231  116  238 1    
   232  116  239 1    
   233  117  118 2    
   234  117  119 am   BACKBONE|DICT|INTERRES
   235  119  120 1    
   236  119  240 1    
   237  120  121 1    
   238  120  124 1    
   239  120  241 1    
   240  121  122 am   BACKBONE|DICT|INTERRES
   241  121  123 2    
   242  122  242 1    
   243  122  243 1    
   244  124  125 1    
   245  124  244 1    
   246  124  245 1    
   247  125  126 1    
   248  126  246 1    
   249  126  247 1    
@<TRIPOS>SUBSTRUCTURE
     1 UNK         1 GROUP             0       ****    0 ROOT    
