@<TRIPOS>MOLECULE
3R540
247   249    1
SMALL
USER_CHARGES


@<TRIPOS>ATOM
      1 CA          5.5215  -11.6846  -49.2435 C.3       0 UNK        -0.1800 
      2 C           5.1942  -13.0915  -48.7641 C.2       0 UNK         0.5000 
      3 O           5.4797  -13.4314  -47.6163 O.2       0 UNK        -0.5000 
      4 N           4.5926  -13.9084  -49.6377 N.am      1 UNK        -0.5000 
      5 CA          4.1734  -15.2892  -49.3624 C.3       1 UNK         0.1400 
      6 C6          3.7756  -16.0423  -50.6600 C.3       23 UNK        -0.0398 
      7 S7          2.5351  -15.1652  -51.6835 S.3       23 UNK        -0.2404 
      8 C8          2.0308  -16.4710  -52.8607 C.3       23 UNK        -0.0205 
      9 C9          1.1643  -17.6007  -52.2970 C.ar      23 UNK        -0.0193 
     10 C10         0.8655  -18.6866  -53.1283 C.ar      23 UNK        -0.1150 
     11 C11         0.0768  -19.7470  -52.6698 C.ar      23 UNK        -0.0193 
     12 C12        -0.4013  -19.7310  -51.3589 C.ar      23 UNK        -0.1150 
     13 C13        -0.1104  -18.6574  -50.5167 C.ar      23 UNK        -0.0193 
     14 C14         0.6533  -17.5907  -50.9929 C.ar      23 UNK        -0.1150 
     15 C15        -0.6247  -18.6444  -49.0904 C.3       23 UNK        -0.0205 
     16 S16         0.7190  -18.8045  -47.8782 S.3       23 UNK        -0.2404 
     17 C17         1.4362  -20.4462  -48.2096 C.3       23 UNK        -0.0398 
     18 CA          0.8187  -21.6269  -47.4192 C.3       11 UNK         0.1400 
     19 N           0.6801  -21.4011  -45.9733 N.am      11 UNK        -0.5000 
     20 C           0.4893  -22.3989  -45.0953 C.2       10 UNK         0.5000 
     21 O           0.4218  -23.5843  -45.4205 O.2       10 UNK        -0.5000 
     22 CA          0.2920  -22.0277  -43.6164 C.3       10 UNK         0.1400 
     23 CB          1.6157  -21.6091  -42.9587 C.3       10 UNK        -0.1800 
     24 N          -0.7236  -20.9950  -43.4248 N.am      10 UNK        -0.5000 
     25 C          -2.0227  -21.1519  -43.7178 C.2       9 UNK         0.5000 
     26 O          -2.5000  -22.1872  -44.1839 O.2       9 UNK        -0.5000 
     27 CA         -2.9421  -19.9422  -43.4718 C.3       9 UNK         0.1400 
     28 CB         -3.3596  -19.8701  -41.9956 C.3       9 UNK        -0.1800 
     29 N          -2.3307  -18.6748  -43.8677 N.am      9 UNK        -0.5000 
     30 C          -1.9850  -18.3603  -45.1241 C.2       8 UNK         0.5000 
     31 O          -2.1884  -19.0892  -46.0938 O.2       8 UNK        -0.5000 
     32 CA         -1.2487  -17.0241  -45.3188 C.3       8 UNK         0.1400 
     33 CB         -2.2369  -15.8492  -45.2625 C.3       8 UNK        -0.1800 
     34 N          -0.1796  -16.8167  -44.3413 N.am      8 UNK        -0.5000 
     35 C           0.8587  -17.6394  -44.1234 C.2       7 UNK         0.5000 
     36 O           1.0494  -18.6969  -44.7207 O.2       7 UNK        -0.5000 
     37 CA          1.8115  -17.2448  -42.9849 C.3       7 UNK         0.1400 
     38 CB          2.7523  -16.1067  -43.4141 C.3       7 UNK        -0.1800 
     39 N           1.0729  -16.8635  -41.7818 N.am      7 UNK        -0.5000 
     40 C           0.3518  -17.7156  -41.0377 C.2       6 UNK         0.5000 
     41 O           0.2793  -18.9254  -41.2545 O.2       6 UNK        -0.5000 
     42 CA         -0.4563  -17.1014  -39.8805 C.3       6 UNK         0.1400 
     43 CB          0.4301  -16.9067  -38.6412 C.3       6 UNK        -0.1800 
     44 N          -1.0703  -15.8234  -40.2449 N.am      6 UNK        -0.5000 
     45 C          -2.0502  -15.6879  -41.1496 C.2       5 UNK         0.5000 
     46 O          -2.5653  -16.6329  -41.7466 O.2       5 UNK        -0.5000 
     47 CA         -2.4955  -14.2492  -41.4742 C.3       5 UNK         0.1400 
     48 CB         -3.5613  -13.7758  -40.4747 C.3       5 UNK        -0.1800 
     49 N          -1.3910  -13.2839  -41.5032 N.am      5 UNK        -0.5000 
     50 C          -0.3484  -13.3495  -42.3408 C.2       4 UNK         0.5000 
     51 O          -0.1776  -14.2640  -43.1505 O.2       4 UNK        -0.5000 
     52 CA          0.6984  -12.2351  -42.2348 C.3       4 UNK         0.1400 
     53 CB          1.6640  -12.5003  -41.0678 C.3       4 UNK        -0.1800 
     54 N           1.4493  -12.2026  -43.4837 N.am      4 UNK        -0.5000 
     55 C           1.9037  -11.1089  -44.1009 C.2       3 UNK         0.5000 
     56 O           1.8010   -9.9724  -43.6367 O.2       3 UNK        -0.5000 
     57 CA          2.5974  -11.3081  -45.4651 C.3       3 UNK         0.1400 
     58 CB          4.1206  -11.1845  -45.3038 C.3       3 UNK        -0.1800 
     59 N           2.2922  -12.5803  -46.1330 N.am      3 UNK        -0.5000 
     60 C           1.0964  -12.9242  -46.6346 C.2       2 UNK         0.5000 
     61 O           0.0992  -12.2052  -46.5606 O.2       2 UNK        -0.5000 
     62 CA          1.0272  -14.2790  -47.3648 C.3       2 UNK         0.1400 
     63 CB         -0.2720  -14.4653  -48.1712 C.3       2 UNK        -0.1800 
     64 N           2.1589  -14.4004  -48.2805 N.am      2 UNK        -0.5000 
     65 C           3.0730  -15.3778  -48.2799 C.2       1 UNK         0.5000 
     66 O           3.0995  -16.2945  -47.4600 O.2       1 UNK        -0.5000 
     67 C          -0.4784  -22.1475  -48.0674 C.2       11 UNK         0.5000 
     68 O          -0.3993  -23.0078  -48.9443 O.2       11 UNK        -0.5000 
     69 N          -1.6420  -21.6685  -47.6019 N.am      12 UNK        -0.5000 
     70 CA         -2.9587  -22.1203  -48.0543 C.3       12 UNK         0.1400 
     71 CB         -4.0496  -21.2623  -47.4006 C.3       12 UNK        -0.1800 
     72 C          -3.2065  -23.6101  -47.7657 C.2       12 UNK         0.5000 
     73 O          -3.7492  -24.3117  -48.6224 O.2       12 UNK        -0.5000 
     74 N          -2.7847  -24.0591  -46.5760 N.am      13 UNK        -0.5000 
     75 CA         -2.8284  -25.4545  -46.1523 C.3       13 UNK         0.1400 
     76 CB         -2.6395  -25.5343  -44.6299 C.3       13 UNK        -0.1800 
     77 C          -1.7826  -26.3157  -46.8804 C.2       13 UNK         0.5000 
     78 O          -2.1277  -27.3922  -47.3667 O.2       13 UNK        -0.5000 
     79 N          -0.5347  -25.8288  -46.9587 N.am      14 UNK        -0.5000 
     80 CA          0.5991  -26.5351  -47.5636 C.3       14 UNK         0.1400 
     81 CB          1.9014  -25.7736  -47.2766 C.3       14 UNK        -0.1800 
     82 C           0.4396  -26.7762  -49.0747 C.2       14 UNK         0.5000 
     83 O           0.7731  -27.8611  -49.5529 O.2       14 UNK        -0.5000 
     84 N          -0.0906  -25.7781  -49.7943 N.am      15 UNK        -0.5000 
     85 CA         -0.4116  -25.8766  -51.2198 C.3       15 UNK         0.1400 
     86 CB         -0.5113  -24.4590  -51.8056 C.3       15 UNK        -0.1800 
     87 C          -1.7159  -26.6520  -51.4906 C.2       15 UNK         0.5000 
     88 O          -1.9676  -27.0153  -52.6399 O.2       15 UNK        -0.5000 
     89 N          -2.5340  -26.8501  -50.4437 N.am      16 UNK        -0.5000 
     90 CA         -3.8962  -27.3981  -50.4585 C.3       16 UNK         0.1400 
     91 CB         -3.8933  -28.8812  -50.8818 C.3       16 UNK        -0.1800 
     92 C          -4.8768  -26.5341  -51.2827 C.2       16 UNK         0.5000 
     93 O          -5.8659  -27.0444  -51.8115 O.2       16 UNK        -0.5000 
     94 N          -4.5731  -25.2338  -51.3774 N.am      17 UNK        -0.5000 
     95 CA         -5.3364  -24.2366  -52.1201 C.3       17 UNK         0.1400 
     96 CB         -4.3864  -23.0976  -52.5232 C.3       17 UNK        -0.1800 
     97 C          -6.5197  -23.6882  -51.3063 C.2       17 UNK         0.5000 
     98 O          -7.5024  -23.2463  -51.9015 O.2       17 UNK        -0.5000 
     99 N          -6.3927  -23.7081  -49.9685 N.am      18 UNK        -0.5000 
    100 CA        -7.3468  -23.1960  -48.9733 C.3       18 UNK         0.1400 
    101 CB        -8.6726  -23.9828  -49.0229 C.3       18 UNK        -0.1800 
    102 C         -7.5648  -21.6650  -49.0321 C.2       18 UNK         0.5000 
    103 O         -8.5067  -21.1557  -48.4232 O.2       18 UNK        -0.5000 
    104 N         -6.6706  -20.9571  -49.7294 N.am      19 UNK        -0.5000 
    105 CA        -6.6120  -19.5122  -49.8938 C.3       19 UNK         0.1400 
    106 CB        -7.7079  -19.0432  -50.8706 C.3       19 UNK        -0.1800 
    107 C         -5.2160  -19.1618  -50.4297 C.2       19 UNK         0.5000 
    108 O         -4.5012  -20.0488  -50.9034 O.2       19 UNK        -0.5000 
    109 N         -4.8628  -17.8729  -50.3707 N.am      20 UNK        -0.5000 
    110 CA        -3.6161  -17.3354  -50.9258 C.3       20 UNK         0.1400 
    111 CB        -3.2158  -16.0874  -50.1213 C.3       20 UNK        -0.1800 
    112 C         -3.7168  -17.0054  -52.4300 C.2       20 UNK         0.5000 
    113 O         -2.7084  -16.6585  -53.0457 O.2       20 UNK        -0.5000 
    114 N         -4.9274  -17.0963  -52.9979 N.am      21 UNK        -0.5000 
    115 CA        -5.2741  -16.7591  -54.3795 C.3       21 UNK         0.1400 
    116 CB        -6.7903  -16.4981  -54.4462 C.3       21 UNK        -0.1800 
    117 C         -4.8060  -17.8156  -55.4063 C.2       21 UNK         0.5000 
    118 O         -5.6098  -18.3057  -56.2018 O.2       21 UNK        -0.5000 
    119 N         -3.5104  -18.1436  -55.3778 N.am      22 UNK        -0.5000 
    120 CA        -2.8444  -19.0487  -56.3298 C.3       22 UNK         0.1400 
    121 C         -2.5396  -18.4070  -57.7167 C.2       22 UNK         0.5000 
    122 N         -2.6792  -17.0988  -57.8972 N.am      22 UNK        -0.7600 
    123 O         -2.1770  -19.1135  -58.6534 O.2       22 UNK        -0.5000 
    124 C124       -1.5622  -19.6709  -55.7236 C.3       23 UNK        -0.0398 
    125 S125       -1.9158  -20.7574  -54.3028 S.3       23 UNK        -0.2404 
    126 C126       -0.2562  -20.9213  -53.5755 C.3       23 UNK        -0.0205 
    127 H127        6.5679  -11.4533  -49.0445 H         1 UNK         0.0600 
    128 H128        5.3474  -11.5716  -50.3139 H         1 UNK         0.0600 
    129 H129        4.9037  -10.9555  -48.7197 H         1 UNK         0.0600 
    130 H130        4.3780  -13.5725  -50.5664 H         1 UNK         0.3000 
    131 H131        5.0441  -15.8045  -48.9507 H         1 UNK         0.0600 
    132 H132        3.4167  -17.0458  -50.4241 H         1 UNK         0.0800 
    133 H133        4.6643  -16.1886  -51.2752 H         1 UNK         0.0800 
    134 H134        2.9283  -16.8969  -53.3118 H         1 UNK         0.0800 
    135 H135        1.4767  -15.9941  -53.6702 H         1 UNK         0.0800 
    136 H136        1.2466  -18.7040  -54.1396 H         1 UNK         0.1150 
    137 H137       -1.0043  -20.5535  -50.9985 H         1 UNK         0.1150 
    138 H138        0.8546  -16.7673  -50.3246 H         1 UNK         0.1150 
    139 H139       -1.1358  -17.7012  -48.9039 H         1 UNK         0.0800 
    140 H140       -1.3737  -19.4190  -48.9355 H         1 UNK         0.0800 
    141 H141        2.4912  -20.3719  -47.9435 H         1 UNK         0.0800 
    142 H142        1.4317  -20.6452  -49.2823 H         1 UNK         0.0800 
    143 H143        1.5354  -22.4435  -47.5249 H         1 UNK         0.0600 
    144 H144        0.7160  -20.4381  -45.6466 H         1 UNK         0.3000 
    145 H145       -0.0587  -22.9245  -43.1012 H         1 UNK         0.0600 
    146 H146        1.4825  -21.4176  -41.8938 H         1 UNK         0.0600 
    147 H147        2.3632  -22.3972  -43.0559 H         1 UNK         0.0600 
    148 H148        2.0314  -20.7091  -43.4098 H         1 UNK         0.0600 
    149 H149       -0.4074  -20.1103  -43.0467 H         1 UNK         0.3000 
    150 H150       -3.8425  -20.0809  -44.0735 H         1 UNK         0.0600 
    151 H151       -3.8247  -20.8029  -41.6741 H         1 UNK         0.0600 
    152 H152       -4.0829  -19.0716  -41.8299 H         1 UNK         0.0600 
    153 H153       -2.5043  -19.6858  -41.3443 H         1 UNK         0.0600 
    154 H154       -2.1711  -17.9953  -43.1299 H         1 UNK         0.3000 
    155 H155       -0.7905  -17.0232  -46.3068 H         1 UNK         0.0600 
    156 H156       -2.7998  -15.8383  -44.3298 H         1 UNK         0.0600 
    157 H157       -2.9579  -15.9110  -46.0784 H         1 UNK         0.0600 
    158 H158       -1.7248  -14.8913  -45.3488 H         1 UNK         0.0600 
    159 H159       -0.2340  -15.9585  -43.7970 H         1 UNK         0.3000 
    160 H160        2.4251  -18.1157  -42.7441 H         1 UNK         0.0600 
    161 H161        3.4586  -15.8584  -42.6219 H         1 UNK         0.0600 
    162 H162        2.2086  -15.1999  -43.6747 H         1 UNK         0.0600 
    163 H163        3.3341  -16.3970  -44.2902 H         1 UNK         0.0600 
    164 H164        1.0310  -15.8793  -41.5665 H         1 UNK         0.3000 
    165 H165       -1.2543  -17.8015  -39.6236 H         1 UNK         0.0600 
    166 H166       -0.1517  -16.5437  -37.7938 H         1 UNK         0.0600 
    167 H167        0.8894  -17.8489  -38.3390 H         1 UNK         0.0600 
    168 H168        1.2344  -16.1938  -38.8269 H         1 UNK         0.0600 
    169 H169       -0.7051  -14.9941  -39.8007 H         1 UNK         0.3000 
    170 H170       -2.9468  -14.2626  -42.4681 H         1 UNK         0.0600 
    171 H171       -4.4048  -14.4671  -40.4470 H         1 UNK         0.0600 
    172 H172       -3.1620  -13.7042  -39.4623 H         1 UNK         0.0600 
    173 H173       -3.9546  -12.7974  -40.7512 H         1 UNK         0.0600 
    174 H174       -1.4549  -12.5089  -40.8588 H         1 UNK         0.3000 
    175 H175        0.1785  -11.2872  -42.0805 H         1 UNK         0.0600 
    176 H176        2.1889  -13.4492  -41.1873 H         1 UNK         0.0600 
    177 H177        2.4138  -11.7125  -40.9927 H         1 UNK         0.0600 
    178 H178        1.1332  -12.5336  -40.1158 H         1 UNK         0.0600 
    179 H179        1.4963  -13.0903  -43.9647 H         1 UNK         0.3000 
    180 H180        2.2589  -10.4996  -46.1163 H         1 UNK         0.0600 
    181 H181        4.5310  -12.0083  -44.7185 H         1 UNK         0.0600 
    182 H182        4.3898  -10.2560  -44.7984 H         1 UNK         0.0600 
    183 H183        4.6210  -11.1773  -46.2709 H         1 UNK         0.0600 
    184 H184        3.0676  -13.2161  -46.2614 H         1 UNK         0.3000 
    185 H185        1.0649  -15.0526  -46.5948 H         1 UNK         0.0600 
    186 H186       -1.1553  -14.3552  -47.5434 H         1 UNK         0.0600 
    187 H187       -0.3523  -13.7358  -48.9777 H         1 UNK         0.0600 
    188 H188       -0.3139  -15.4586  -48.6157 H         1 UNK         0.0600 
    189 H189        2.2503  -13.6686  -48.9711 H         1 UNK         0.3000 
    190 H190       -1.6306  -20.9340  -46.9012 H         1 UNK         0.3000 
    191 H191       -3.0122  -21.9789  -49.1359 H         1 UNK         0.0600 
    192 H192       -3.9515  -21.2443  -46.3156 H         1 UNK         0.0600 
    193 H193       -5.0416  -21.6485  -47.6229 H         1 UNK         0.0600 
    194 H194       -4.0084  -20.2339  -47.7588 H         1 UNK         0.0600 
    195 H195       -2.3922  -23.3971  -45.9151 H         1 UNK         0.3000 
    196 H196       -3.8165  -25.8537  -46.3913 H         1 UNK         0.0600 
    197 H197       -2.6741  -26.5683  -44.2845 H         1 UNK         0.0600 
    198 H198       -3.4265  -24.9897  -44.1079 H         1 UNK         0.0600 
    199 H199       -1.6825  -25.1139  -44.3184 H         1 UNK         0.0600 
    200 H200       -0.3213  -24.9453  -46.5017 H         1 UNK         0.3000 
    201 H201        0.6697  -27.5126  -47.0820 H         1 UNK         0.0600 
    202 H202        2.0713  -25.6712  -46.2048 H         1 UNK         0.0600 
    203 H203        1.8851  -24.7748  -47.7122 H         1 UNK         0.0600 
    204 H204        2.7618  -26.2992  -47.6925 H         1 UNK         0.0600 
    205 H205       -0.2958  -24.8894  -49.3435 H         1 UNK         0.3000 
    206 H206        0.3991  -26.4003  -51.7305 H         1 UNK         0.0600 
    207 H207        0.4099  -23.8997  -51.6414 H         1 UNK         0.0600 
    208 H208       -0.6862  -24.4899  -52.8818 H         1 UNK         0.0600 
    209 H209       -1.3301  -23.8940  -51.3579 H         1 UNK         0.0600 
    210 H210       -2.2120  -26.5379  -49.5373 H         1 UNK         0.3000 
    211 H211       -4.2491  -27.3505  -49.4273 H         1 UNK         0.0600 
    212 H212       -3.6231  -29.0044  -51.9307 H         1 UNK         0.0600 
    213 H213       -4.8782  -29.3285  -50.7442 H         1 UNK         0.0600 
    214 H214       -3.1893  -29.4590  -50.2828 H         1 UNK         0.0600 
    215 H215       -3.7765  -24.9006  -50.8517 H         1 UNK         0.3000 
    216 H216       -5.7347  -24.6910  -53.0297 H         1 UNK         0.0600 
    217 H217       -4.9168  -22.3129  -53.0646 H         1 UNK         0.0600 
    218 H218       -3.5911  -23.4600  -53.1751 H         1 UNK         0.0600 
    219 H219       -3.9173  -22.6350  -51.6540 H         1 UNK         0.0600 
    220 H220       -5.5299  -24.0837  -49.5868 H         1 UNK         0.3000 
    221 H221       -6.8907  -23.3921  -48.0020 H         1 UNK         0.0600 
    222 H222       -9.2343  -23.7761  -49.9341 H         1 UNK         0.0600 
    223 H223       -8.4955  -25.0572  -48.9735 H         1 UNK         0.0600 
    224 H224       -9.3141  -23.7224  -48.1803 H         1 UNK         0.0600 
    225 H225       -5.9070  -21.4395  -50.1871 H         1 UNK         0.3000 
    226 H226       -6.7452  -19.0356  -48.9206 H         1 UNK         0.0600 
    227 H227       -7.5946  -19.5077  -51.8512 H         1 UNK         0.0600 
    228 H228       -8.7031  -19.2891  -50.5002 H         1 UNK         0.0600 
    229 H229       -7.6785  -17.9623  -51.0111 H         1 UNK         0.0600 
    230 H230       -5.4968  -17.2026  -49.9591 H         1 UNK         0.3000 
    231 H231       -2.8286  -18.0810  -50.8168 H         1 UNK         0.0600 
    232 H232       -3.1282  -16.3111  -49.0579 H         1 UNK         0.0600 
    233 H233       -3.9445  -15.2841  -50.2352 H         1 UNK         0.0600 
    234 H234       -2.2496  -15.7038  -50.4524 H         1 UNK         0.0600 
    235 H235       -5.6870  -17.4216  -52.4207 H         1 UNK         0.3000 
    236 H236       -4.7695  -15.8259  -54.6384 H         1 UNK         0.0600 
    237 H237       -7.0917  -16.1839  -55.4464 H         1 UNK         0.0600 
    238 H238       -7.3637  -17.3910  -54.1939 H         1 UNK         0.0600 
    239 H239       -7.0850  -15.7049  -53.7588 H         1 UNK         0.0600 
    240 H240       -2.9256  -17.7093  -54.6700 H         1 UNK         0.3000 
    241 H241       -3.5325  -19.8702  -56.5390 H         1 UNK         0.0600 
    242 H242       -2.4836  -16.6991  -58.8019 H         1 UNK         0.3800 
    243 H243       -2.9701  -16.5034  -57.1389 H         1 UNK         0.3800 
    244 H244       -1.0329  -20.2732  -56.4643 H         1 UNK         0.0800 
    245 H245       -0.8739  -18.8819  -55.4187 H         1 UNK         0.0800 
    246 H246       -0.2198  -21.8434  -52.9955 H         1 UNK         0.0800 
    247 H247        0.4897  -21.0297  -54.3643 H         1 UNK         0.0800 
@<TRIPOS>BOND
     1    1    2 1    
     2    1  127 1    
     3    1  128 1    
     4    1  129 1    
     5    2    3 2    
     6    2    4 am   BACKBONE|DICT|INTERRES
     7    4    5 1    
     8    4  130 1    
     9    5    6 1    
    10    5   65 1    
    11    5  131 1    
    12    6    7 1    
    13    6  132 1    
    14    6  133 1    
    15    7    8 1    
    16    8    9 1    
    17    8  134 1    
    18    8  135 1    
    19    9   10 ar   
    20    9   14 ar   
    21   10   11 ar   
    22   10  136 1    
    23   11   12 ar   
    24   11  126 1    
    25   12   13 ar   
    26   12  137 1    
    27   13   14 ar   
    28   13   15 1    
    29   14  138 1    
    30   15   16 1    
    31   15  139 1    
    32   15  140 1    
    33   16   17 1    
    34   17   18 1    
    35   17  141 1    
    36   17  142 1    
    37   18   19 1    
    38   18   67 1    
    39   18  143 1    
    40   19   20 am   BACKBONE|DICT|INTERRES
    41   19  144 1    
    42   20   21 2    
    43   20   22 1    
    44   22   23 1    
    45   22   24 1    
    46   22  145 1    
    47   23  146 1    
    48   23  147 1    
    49   23  148 1    
    50   24   25 am   BACKBONE|DICT|INTERRES
    51   24  149 1    
    52   25   26 2    
    53   25   27 1    
    54   27   28 1    
    55   27   29 1    
    56   27  150 1    
    57   28  151 1    
    58   28  152 1    
    59   28  153 1    
    60   29   30 am   BACKBONE|DICT|INTERRES
    61   29  154 1    
    62   30   31 2    
    63   30   32 1    
    64   32   33 1    
    65   32   34 1    
    66   32  155 1    
    67   33  156 1    
    68   33  157 1    
    69   33  158 1    
    70   34   35 am   BACKBONE|DICT|INTERRES
    71   34  159 1    
    72   35   36 2    
    73   35   37 1    
    74   37   38 1    
    75   37   39 1    
    76   37  160 1    
    77   38  161 1    
    78   38  162 1    
    79   38  163 1    
    80   39   40 am   BACKBONE|DICT|INTERRES
    81   39  164 1    
    82   40   41 2    
    83   40   42 1    
    84   42   43 1    
    85   42   44 1    
    86   42  165 1    
    87   43  166 1    
    88   43  167 1    
    89   43  168 1    
    90   44   45 am   BACKBONE|DICT|INTERRES
    91   44  169 1    
    92   45   46 2    
    93   45   47 1    
    94   47   48 1    
    95   47   49 1    
    96   47  170 1    
    97   48  171 1    
    98   48  172 1    
    99   48  173 1    
   100   49   50 am   BACKBONE|DICT|INTERRES
   101   49  174 1    
   102   50   51 2    
   103   50   52 1    
   104   52   53 1    
   105   52   54 1    
   106   52  175 1    
   107   53  176 1    
   108   53  177 1    
   109   53  178 1    
   110   54   55 am   BACKBONE|DICT|INTERRES
   111   54  179 1    
   112   55   56 2    
   113   55   57 1    
   114   57   58 1    
   115   57   59 1    
   116   57  180 1    
   117   58  181 1    
   118   58  182 1    
   119   58  183 1    
   120   59   60 am   BACKBONE|DICT|INTERRES
   121   59  184 1    
   122   60   61 2    
   123   60   62 1    
   124   62   63 1    
   125   62   64 1    
   126   62  185 1    
   127   63  186 1    
   128   63  187 1    
   129   63  188 1    
   130   64   65 am   BACKBONE|DICT|INTERRES
   131   64  189 1    
   132   65   66 2    
   133   67   68 2    
   134   67   69 am   BACKBONE|DICT|INTERRES
   135   69   70 1    
   136   69  190 1    
   137   70   71 1    
   138   70   72 1    
   139   70  191 1    
   140   71  192 1    
   141   71  193 1    
   142   71  194 1    
   143   72   73 2    
   144   72   74 am   BACKBONE|DICT|INTERRES
   145   74   75 1    
   146   74  195 1    
   147   75   76 1    
   148   75   77 1    
   149   75  196 1    
   150   76  197 1    
   151   76  198 1    
   152   76  199 1    
   153   77   78 2    
   154   77   79 am   BACKBONE|DICT|INTERRES
   155   79   80 1    
   156   79  200 1    
   157   80   81 1    
   158   80   82 1    
   159   80  201 1    
   160   81  202 1    
   161   81  203 1    
   162   81  204 1    
   163   82   83 2    
   164   82   84 am   BACKBONE|DICT|INTERRES
   165   84   85 1    
   166   84  205 1    
   167   85   86 1    
   168   85   87 1    
   169   85  206 1    
   170   86  207 1    
   171   86  208 1    
   172   86  209 1    
   173   87   88 2    
   174   87   89 am   BACKBONE|DICT|INTERRES
   175   89   90 1    
   176   89  210 1    
   177   90   91 1    
   178   90   92 1    
   179   90  211 1    
   180   91  212 1    
   181   91  213 1    
   182   91  214 1    
   183   92   93 2    
   184   92   94 am   BACKBONE|DICT|INTERRES
   185   94   95 1    
   186   94  215 1    
   187   95   96 1    
   188   95   97 1    
   189   95  216 1    
   190   96  217 1    
   191   96  218 1    
   192   96  219 1    
   193   97   98 2    
   194   97   99 am   BACKBONE|DICT|INTERRES
   195   99  100 1    
   196   99  220 1    
   197  100  101 1    
   198  100  102 1    
   199  100  221 1    
   200  101  222 1    
   201  101  223 1    
   202  101  224 1    
   203  102  103 2    
   204  102  104 am   BACKBONE|DICT|INTERRES
   205  104  105 1    
   206  104  225 1    
   207  105  106 1    
   208  105  107 1    
   209  105  226 1    
   210  106  227 1    
   211  106  228 1    
   212  106  229 1    
   213  107  108 2    
   214  107  109 am   BACKBONE|DICT|INTERRES
   215  109  110 1    
   216  109  230 1    
   217  110  111 1    
   218  110  112 1    
   219  110  231 1    
   220  111  232 1    
   221  111  233 1    
   222  111  234 1    
   223  112  113 2    
   224  112  114 am   BACKBONE|DICT|INTERRES
   225  114  115 1    
   226  114  235 1    
   227  115  116 1    
   228  115  117 1    
   229  115  236 1    
   230  116  237 1    
   231  116  238 1    
   232  116  239 1    
   233  117  118 2    
   234  117  119 am   BACKBONE|DICT|INTERRES
   235  119  120 1    
   236  119  240 1    
   237  120  121 1    
   238  120  124 1    
   239  120  241 1    
   240  121  122 am   BACKBONE|DICT|INTERRES
   241  121  123 2    
   242  122  242 1    
   243  122  243 1    
   244  124  125 1    
   245  124  244 1    
   246  124  245 1    
   247  125  126 1    
   248  126  246 1    
   249  126  247 1    
@<TRIPOS>SUBSTRUCTURE
     1 UNK         1 GROUP             0       ****    0 ROOT    
