@<TRIPOS>MOLECULE
3R540
247   249    1
SMALL
USER_CHARGES


@<TRIPOS>ATOM
      1 CA          4.6792  -11.6495  -52.8573 C.3       0 UNK        -0.1800 
      2 C           3.8030  -11.9261  -51.6441 C.2       0 UNK         0.5000 
      3 O           2.6041  -11.6476  -51.6788 O.2       0 UNK        -0.5000 
      4 N           4.3980  -12.4571  -50.5672 N.am      1 UNK        -0.5000 
      5 CA          3.7830  -12.8378  -49.2860 C.3       1 UNK         0.1400 
      6 C6          2.6344  -13.8714  -49.4423 C.3       23 UNK        -0.0398 
      7 S7          2.2209  -14.7040  -47.8732 S.3       23 UNK        -0.2404 
      8 C8          0.4710  -15.1255  -48.1224 C.3       23 UNK        -0.0205 
      9 C9          0.3127  -16.2537  -49.1269 C.ar      23 UNK        -0.0193 
     10 C10        -0.1339  -15.9971  -50.4266 C.ar      23 UNK        -0.1150 
     11 C11        -0.2724  -17.0408  -51.3476 C.ar      23 UNK        -0.0193 
     12 C12         0.0389  -18.3473  -50.9577 C.ar      23 UNK        -0.1150 
     13 C13         0.5055  -18.6099  -49.6666 C.ar      23 UNK        -0.0193 
     14 C14         0.6331  -17.5608  -48.7553 C.ar      23 UNK        -0.1150 
     15 C15         0.9400  -20.0118  -49.2785 C.3       23 UNK        -0.0205 
     16 S16        -0.4005  -20.9813  -48.5260 S.3       23 UNK        -0.2404 
     17 C17         0.4244  -22.6080  -48.5155 C.3       23 UNK        -0.0398 
     18 CA          0.1017  -23.5388  -47.3279 C.3       11 UNK         0.1400 
     19 N           0.5139  -23.0175  -46.0214 N.am      11 UNK        -0.5000 
     20 C           0.8178  -23.8244  -44.9932 C.2       10 UNK         0.5000 
     21 O           0.8076  -25.0536  -45.0712 O.2       10 UNK        -0.5000 
     22 CA          1.1492  -23.1669  -43.6430 C.3       10 UNK         0.1400 
     23 CB          2.5892  -22.6327  -43.6258 C.3       10 UNK        -0.1800 
     24 N           0.2105  -22.1058  -43.2812 N.am      10 UNK        -0.5000 
     25 C          -1.0973  -22.3001  -43.0580 C.2       9 UNK         0.5000 
     26 O          -1.6462  -23.4001  -43.1270 O.2       9 UNK        -0.5000 
     27 CA         -1.9425  -21.0564  -42.7321 C.3       9 UNK         0.1400 
     28 CB         -1.8207  -20.6947  -41.2446 C.3       9 UNK        -0.1800 
     29 N          -1.5863  -19.8996  -43.5527 N.am      9 UNK        -0.5000 
     30 C          -1.7359  -19.8365  -44.8836 C.2       8 UNK         0.5000 
     31 O          -2.2414  -20.7328  -45.5572 O.2       8 UNK        -0.5000 
     32 CA         -1.1838  -18.5831  -45.5849 C.3       8 UNK         0.1400 
     33 CB         -2.1499  -17.3989  -45.4381 C.3       8 UNK        -0.1800 
     34 N           0.1415  -18.2033  -45.0961 N.am      8 UNK        -0.5000 
     35 C           1.2323  -18.9813  -45.1696 C.2       7 UNK         0.5000 
     36 O           1.2545  -20.0955  -45.6924 O.2       7 UNK        -0.5000 
     37 CA          2.5046  -18.4363  -44.5037 C.3       7 UNK         0.1400 
     38 CB          3.1947  -17.4038  -45.4053 C.3       7 UNK        -0.1800 
     39 N           2.2173  -17.8397  -43.2001 N.am      7 UNK        -0.5000 
     40 C           1.8493  -18.5392  -42.1176 C.2       6 UNK         0.5000 
     41 O           1.7470  -19.7655  -42.0957 O.2       6 UNK        -0.5000 
     42 CA          1.4968  -17.7245  -40.8604 C.3       6 UNK         0.1400 
     43 CB          2.7678  -17.3239  -40.0967 C.3       6 UNK        -0.1800 
     44 N           0.7151  -16.5260  -41.1688 N.am      6 UNK        -0.5000 
     45 C          -0.5293  -16.5452  -41.6661 C.2       5 UNK         0.5000 
     46 O          -1.1548  -17.5769  -41.9040 O.2       5 UNK        -0.5000 
     47 CA         -1.1723  -15.1848  -41.9843 C.3       5 UNK         0.1400 
     48 CB         -1.8716  -14.6157  -40.7410 C.3       5 UNK        -0.1800 
     49 N          -0.2311  -14.1927  -42.5080 N.am      5 UNK        -0.5000 
     50 C           0.4593  -14.3163  -43.6489 C.2       4 UNK         0.5000 
     51 O           0.4515  -15.3296  -44.3524 O.2       4 UNK        -0.5000 
     52 CA          1.2871  -13.0912  -44.0787 C.3       4 UNK         0.1400 
     53 CB          2.7687  -13.4561  -44.2573 C.3       4 UNK        -0.1800 
     54 N           0.7669  -12.5161  -45.3190 N.am      4 UNK        -0.5000 
     55 C          -0.4278  -11.9169  -45.4340 C.2       3 UNK         0.5000 
     56 O          -1.1819  -11.7229  -44.4783 O.2       3 UNK        -0.5000 
     57 CA         -0.8475  -11.4641  -46.8500 C.3       3 UNK         0.1400 
     58 CB         -2.0553  -10.5030  -46.8445 C.3       3 UNK        -0.1800 
     59 N           0.2545  -10.9027  -47.6392 N.am      3 UNK        -0.5000 
     60 C           0.9970   -9.8206  -47.3534 C.2       2 UNK         0.5000 
     61 O           0.8472   -9.1275  -46.3457 O.2       2 UNK        -0.5000 
     62 CA          2.0867   -9.4616  -48.3892 C.3       2 UNK         0.1400 
     63 CB          3.1773   -8.5264  -47.8255 C.3       2 UNK        -0.1800 
     64 N           2.6822  -10.6470  -49.0187 N.am      2 UNK        -0.5000 
     65 C           3.3620  -11.6319  -48.4146 C.2       1 UNK         0.5000 
     66 O           3.6485  -11.6276  -47.2172 O.2       1 UNK        -0.5000 
     67 C          -1.3461  -24.0697  -47.3293 C.2       11 UNK         0.5000 
     68 O          -1.6257  -25.0219  -48.0574 O.2       11 UNK        -0.5000 
     69 N          -2.2302  -23.5238  -46.4798 N.am      12 UNK        -0.5000 
     70 CA         -3.5766  -24.0600  -46.2599 C.3       12 UNK         0.1400 
     71 CB         -4.4217  -23.0822  -45.4326 C.3       12 UNK        -0.1800 
     72 C          -3.5619  -25.4589  -45.6211 C.2       12 UNK         0.5000 
     73 O          -4.3304  -26.3211  -46.0463 O.2       12 UNK        -0.5000 
     74 N          -2.6426  -25.6895  -44.6731 N.am      13 UNK        -0.5000 
     75 CA         -2.3771  -27.0031  -44.0777 C.3       13 UNK         0.1400 
     76 CB         -1.4261  -26.8389  -42.8829 C.3       13 UNK        -0.1800 
     77 C          -1.8193  -28.0284  -45.0887 C.2       13 UNK         0.5000 
     78 O          -2.0482  -29.2269  -44.9249 O.2       13 UNK        -0.5000 
     79 N          -1.1369  -27.5385  -46.1329 N.am      14 UNK        -0.5000 
     80 CA         -0.6531  -28.3183  -47.2747 C.3       14 UNK         0.1400 
     81 CB          0.6273  -27.6594  -47.8154 C.3       14 UNK        -0.1800 
     82 C          -1.7088  -28.4756  -48.3935 C.2       14 UNK         0.5000 
     83 O          -1.4038  -29.0920  -49.4153 O.2       14 UNK        -0.5000 
     84 N          -2.9165  -27.9239  -48.1924 N.am      15 UNK        -0.5000 
     85 CA         -4.0680  -27.9211  -49.1017 C.3       15 UNK         0.1400 
     86 CB         -4.5808  -29.3548  -49.3545 C.3       15 UNK        -0.1800 
     87 C          -3.8334  -27.1190  -50.4008 C.2       15 UNK         0.5000 
     88 O          -4.3783  -27.4701  -51.4490 O.2       15 UNK        -0.5000 
     89 N          -3.0500  -26.0389  -50.3060 N.am      16 UNK        -0.5000 
     90 CA         -2.7399  -25.1107  -51.3917 C.3       16 UNK         0.1400 
     91 CB         -1.3698  -25.4751  -51.9933 C.3       16 UNK        -0.1800 
     92 C          -2.8019  -23.6718  -50.8511 C.2       16 UNK         0.5000 
     93 O          -1.8526  -22.9083  -51.0202 O.2       16 UNK        -0.5000 
     94 N          -3.9093  -23.3607  -50.1610 N.am      17 UNK        -0.5000 
     95 CA         -4.1690  -22.1203  -49.4248 C.3       17 UNK         0.1400 
     96 CB         -5.5983  -22.1935  -48.8582 C.3       17 UNK        -0.1800 
     97 C          -4.0328  -20.8343  -50.2579 C.2       17 UNK         0.5000 
     98 O          -4.2124  -20.8639  -51.4792 O.2       17 UNK        -0.5000 
     99 N          -3.8394  -19.7062  -49.5609 N.am      18 UNK        -0.5000 
    100 CA        -3.7919  -18.3355  -50.0872 C.3       18 UNK         0.1400 
    101 CB        -3.1864  -17.4237  -49.0067 C.3       18 UNK        -0.1800 
    102 C         -5.1647  -17.8181  -50.5879 C.2       18 UNK         0.5000 
    103 O         -5.6039  -16.7269  -50.2220 O.2       18 UNK        -0.5000 
    104 N         -5.8202  -18.6388  -51.4080 N.am      19 UNK        -0.5000 
    105 CA        -7.1209  -18.4479  -52.0373 C.3       19 UNK         0.1400 
    106 CB        -8.2563  -18.6925  -51.0286 C.3       19 UNK        -0.1800 
    107 C         -7.2250  -19.3978  -53.2402 C.2       19 UNK         0.5000 
    108 O         -7.6831  -18.9857  -54.3048 O.2       19 UNK        -0.5000 
    109 N         -6.7265  -20.6324  -53.0794 N.am      20 UNK        -0.5000 
    110 CA        -6.5070  -21.5802  -54.1710 C.3       20 UNK         0.1400 
    111 CB        -6.3377  -22.9919  -53.5858 C.3       20 UNK        -0.1800 
    112 C         -5.2762  -21.1896  -55.0111 C.2       20 UNK         0.5000 
    113 O         -5.3249  -21.2605  -56.2392 O.2       20 UNK        -0.5000 
    114 N         -4.2009  -20.7749  -54.3273 N.am      21 UNK        -0.5000 
    115 CA        -2.9228  -20.3951  -54.9257 C.3       21 UNK         0.1400 
    116 CB        -1.8328  -20.4919  -53.8464 C.3       21 UNK        -0.1800 
    117 C         -2.9196  -18.9872  -55.5503 C.2       21 UNK         0.5000 
    118 O         -2.1220  -18.7396  -56.4558 O.2       21 UNK        -0.5000 
    119 N         -3.7691  -18.0829  -55.0469 N.am      22 UNK        -0.5000 
    120 CA        -3.7326  -16.6465  -55.3770 C.3       22 UNK         0.1400 
    121 C         -5.0874  -15.8995  -55.2115 C.2       22 UNK         0.5000 
    122 N         -6.2215  -16.5777  -55.1098 N.am      22 UNK        -0.7600 
    123 O         -5.1268  -14.6721  -55.2078 O.2       22 UNK        -0.5000 
    124 C124       -2.5357  -15.9114  -54.7066 C.3       23 UNK        -0.0398 
    125 S125       -2.4141  -16.1662  -52.8987 S.3       23 UNK        -0.2404 
    126 C126       -0.6944  -16.7484  -52.7794 C.3       23 UNK        -0.0205 
    127 H127        4.3096  -12.2036  -53.7201 H         1 UNK         0.0600 
    128 H128        5.7157  -11.9405  -52.6847 H         1 UNK         0.0600 
    129 H129        4.6598  -10.5869  -53.0992 H         1 UNK         0.0600 
    130 H130        5.3944  -12.6222  -50.6117 H         1 UNK         0.3000 
    131 H131        4.5881  -13.3346  -48.7415 H         1 UNK         0.0600 
    132 H132        2.9250  -14.6461  -50.1531 H         1 UNK         0.0800 
    133 H133        1.7408  -13.4029  -49.8569 H         1 UNK         0.0800 
    134 H134       -0.0855  -14.2429  -48.4376 H         1 UNK         0.0800 
    135 H135        0.0471  -15.4322  -47.1652 H         1 UNK         0.0800 
    136 H136       -0.3667  -14.9855  -50.7280 H         1 UNK         0.1150 
    137 H137       -0.0487  -19.1585  -51.6666 H         1 UNK         0.1150 
    138 H138        1.0046  -17.7556  -47.7608 H         1 UNK         0.1150 
    139 H139        1.7767  -19.9600  -48.5798 H         1 UNK         0.0800 
    140 H140        1.3093  -20.5344  -50.1625 H         1 UNK         0.0800 
    141 H141        0.1978  -23.1115  -49.4558 H         1 UNK         0.0800 
    142 H142        1.5037  -22.4509  -48.5323 H         1 UNK         0.0800 
    143 H143        0.7173  -24.4220  -47.5121 H         1 UNK         0.0600 
    144 H144        0.5575  -22.0081  -45.9103 H         1 UNK         0.3000 
    145 H145        1.0745  -23.9417  -42.8769 H         1 UNK         0.0600 
    146 H146        3.3003  -23.4226  -43.8707 H         1 UNK         0.0600 
    147 H147        2.8558  -22.2512  -42.6402 H         1 UNK         0.0600 
    148 H148        2.7333  -21.8284  -44.3464 H         1 UNK         0.0600 
    149 H149        0.5961  -21.1745  -43.1727 H         1 UNK         0.3000 
    150 H150       -2.9868  -21.3001  -42.9354 H         1 UNK         0.0600 
    151 H151       -0.8055  -20.3921  -40.9856 H         1 UNK         0.0600 
    152 H152       -2.0835  -21.5437  -40.6123 H         1 UNK         0.0600 
    153 H153       -2.4905  -19.8754  -40.9831 H         1 UNK         0.0600 
    154 H154       -1.2119  -19.0931  -43.0601 H         1 UNK         0.3000 
    155 H155       -1.0916  -18.8122  -46.6471 H         1 UNK         0.0600 
    156 H156       -3.1448  -17.6608  -45.7991 H         1 UNK         0.0600 
    157 H157       -1.8101  -16.5378  -46.0131 H         1 UNK         0.0600 
    158 H158       -2.2516  -17.0891  -44.3987 H         1 UNK         0.0600 
    159 H159        0.2275  -17.2816  -44.6783 H         1 UNK         0.3000 
    160 H160        3.1920  -19.2719  -44.3556 H         1 UNK         0.0600 
    161 H161        4.1281  -17.0531  -44.9652 H         1 UNK         0.0600 
    162 H162        2.5580  -16.5369  -45.5767 H         1 UNK         0.0600 
    163 H163        3.4324  -17.8319  -46.3800 H         1 UNK         0.0600 
    164 H164        2.2182  -16.8318  -43.1509 H         1 UNK         0.3000 
    165 H165        0.8948  -18.3626  -40.2098 H         1 UNK         0.0600 
    166 H166        2.5232  -16.8170  -39.1631 H         1 UNK         0.0600 
    167 H167        3.3624  -18.2023  -39.8421 H         1 UNK         0.0600 
    168 H168        3.4006  -16.6581  -40.6849 H         1 UNK         0.0600 
    169 H169        1.1560  -15.6329  -41.0058 H         1 UNK         0.3000 
    170 H170       -1.9311  -15.3519  -42.7510 H         1 UNK         0.0600 
    171 H171       -1.1600  -14.3888  -39.9461 H         1 UNK         0.0600 
    172 H172       -2.5958  -15.3265  -40.3406 H         1 UNK         0.0600 
    173 H173       -2.4144  -13.7004  -40.9780 H         1 UNK         0.0600 
    174 H174       -0.1834  -13.3171  -42.0071 H         1 UNK         0.3000 
    175 H175        1.2249  -12.3275  -43.3006 H         1 UNK         0.0600 
    176 H176        3.1830  -13.8695  -43.3371 H         1 UNK         0.0600 
    177 H177        2.9135  -14.1969  -45.0427 H         1 UNK         0.0600 
    178 H178        3.3613  -12.5784  -44.5157 H         1 UNK         0.0600 
    179 H179        1.3388  -12.6368  -46.1428 H         1 UNK         0.3000 
    180 H180       -1.1628  -12.3700  -47.3682 H         1 UNK         0.0600 
    181 H181       -1.8429   -9.5873  -46.2920 H         1 UNK         0.0600 
    182 H182       -2.9251  -10.9697  -46.3806 H         1 UNK         0.0600 
    183 H183       -2.3421  -10.2241  -47.8584 H         1 UNK         0.0600 
    184 H184        0.4696  -11.3913  -48.4959 H         1 UNK         0.3000 
    185 H185        1.5751   -8.9213  -49.1868 H         1 UNK         0.0600 
    186 H186        2.7477   -7.5792  -47.4977 H         1 UNK         0.0600 
    187 H187        3.6874   -8.9661  -46.9680 H         1 UNK         0.0600 
    188 H188        3.9282   -8.2964  -48.5812 H         1 UNK         0.0600 
    189 H189        2.5038  -10.7634  -50.0137 H         1 UNK         0.3000 
    190 H190       -1.9728  -22.6955  -45.9520 H         1 UNK         0.3000 
    191 H191       -4.0466  -24.1701  -47.2371 H         1 UNK         0.0600 
    192 H192       -4.5155  -22.1193  -45.9340 H         1 UNK         0.0600 
    193 H193       -5.4308  -23.4684  -45.2837 H         1 UNK         0.0600 
    194 H194       -3.9887  -22.9087  -44.4483 H         1 UNK         0.0600 
    195 H195       -2.0871  -24.9113  -44.3290 H         1 UNK         0.3000 
    196 H196       -3.3248  -27.3960  -43.7037 H         1 UNK         0.0600 
    197 H197       -1.2447  -27.7965  -42.3933 H         1 UNK         0.0600 
    198 H198       -1.8454  -26.1653  -42.1352 H         1 UNK         0.0600 
    199 H199       -0.4596  -26.4383  -43.1880 H         1 UNK         0.0600 
    200 H200       -0.9846  -26.5402  -46.1774 H         1 UNK         0.3000 
    201 H201       -0.3928  -29.3222  -46.9333 H         1 UNK         0.0600 
    202 H202        1.0996  -28.2884  -48.5708 H         1 UNK         0.0600 
    203 H203        1.3582  -27.5010  -47.0221 H         1 UNK         0.0600 
    204 H204        0.4211  -26.6960  -48.2803 H         1 UNK         0.0600 
    205 H205       -3.0666  -27.4253  -47.3235 H         1 UNK         0.3000 
    206 H206       -4.8587  -27.3890  -48.5713 H         1 UNK         0.0600 
    207 H207       -4.7462  -29.8852  -48.4167 H         1 UNK         0.0600 
    208 H208       -5.5313  -29.3412  -49.8892 H         1 UNK         0.0600 
    209 H209       -3.8803  -29.9383  -49.9521 H         1 UNK         0.0600 
    210 H210       -2.6250  -25.8072  -49.4091 H         1 UNK         0.3000 
    211 H211       -3.4933  -25.1796  -52.1790 H         1 UNK         0.0600 
    212 H212       -0.5761  -25.4049  -51.2482 H         1 UNK         0.0600 
    213 H213       -1.1125  -24.8080  -52.8169 H         1 UNK         0.0600 
    214 H214       -1.3707  -26.4920  -52.3858 H         1 UNK         0.0600 
    215 H215       -4.6289  -24.0648  -50.1014 H         1 UNK         0.3000 
    216 H216       -3.4542  -22.0693  -48.6022 H         1 UNK         0.0600 
    217 H217       -5.8101  -21.3419  -48.2103 H         1 UNK         0.0600 
    218 H218       -5.7595  -23.0930  -48.2660 H         1 UNK         0.0600 
    219 H219       -6.3438  -22.1898  -49.6548 H         1 UNK         0.0600 
    220 H220       -3.7375  -19.7829  -48.5597 H         1 UNK         0.3000 
    221 H221       -3.1151  -18.3353  -50.9432 H         1 UNK         0.0600 
    222 H222       -3.8437  -17.3337  -48.1417 H         1 UNK         0.0600 
    223 H223       -2.2273  -17.8067  -48.6610 H         1 UNK         0.0600 
    224 H224       -3.0115  -16.4199  -49.3960 H         1 UNK         0.0600 
    225 H225       -5.3350  -19.5012  -51.6410 H         1 UNK         0.3000 
    226 H226       -7.1848  -17.4226  -52.4071 H         1 UNK         0.0600 
    227 H227       -8.2166  -17.9768  -50.2074 H         1 UNK         0.0600 
    228 H228       -8.2064  -19.6946  -50.6009 H         1 UNK         0.0600 
    229 H229       -9.2311  -18.5847  -51.5057 H         1 UNK         0.0600 
    230 H230       -6.3708  -20.9111  -52.1767 H         1 UNK         0.3000 
    231 H231       -7.3822  -21.5810  -54.8244 H         1 UNK         0.0600 
    232 H232       -5.4835  -23.0512  -52.9098 H         1 UNK         0.0600 
    233 H233       -6.1814  -23.7259  -54.3773 H         1 UNK         0.0600 
    234 H234       -7.2250  -23.2968  -53.0309 H         1 UNK         0.0600 
    235 H235       -4.2276  -20.7980  -53.3107 H         1 UNK         0.3000 
    236 H236       -2.6826  -21.1087  -55.7167 H         1 UNK         0.0600 
    237 H237       -2.0353  -19.8199  -53.0114 H         1 UNK         0.0600 
    238 H238       -1.7618  -21.5040  -53.4475 H         1 UNK         0.0600 
    239 H239       -0.8532  -20.2320  -54.2495 H         1 UNK         0.0600 
    240 H240       -4.3831  -18.3528  -54.2944 H         1 UNK         0.3000 
    241 H241       -3.5660  -16.5802  -56.4537 H         1 UNK         0.0600 
    242 H242       -6.2706  -17.5838  -55.1741 H         1 UNK         0.3800 
    243 H243       -7.0806  -16.0583  -55.0237 H         1 UNK         0.3800 
    244 H244       -2.5661  -14.8389  -54.9044 H         1 UNK         0.0800 
    245 H245       -1.6127  -16.2521  -55.1768 H         1 UNK         0.0800 
    246 H246       -0.5760  -17.6365  -53.4021 H         1 UNK         0.0800 
    247 H247       -0.0291  -15.9896  -53.1940 H         1 UNK         0.0800 
@<TRIPOS>BOND
     1    1    2 1    
     2    1  127 1    
     3    1  128 1    
     4    1  129 1    
     5    2    3 2    
     6    2    4 am   BACKBONE|DICT|INTERRES
     7    4    5 1    
     8    4  130 1    
     9    5    6 1    
    10    5   65 1    
    11    5  131 1    
    12    6    7 1    
    13    6  132 1    
    14    6  133 1    
    15    7    8 1    
    16    8    9 1    
    17    8  134 1    
    18    8  135 1    
    19    9   10 ar   
    20    9   14 ar   
    21   10   11 ar   
    22   10  136 1    
    23   11   12 ar   
    24   11  126 1    
    25   12   13 ar   
    26   12  137 1    
    27   13   14 ar   
    28   13   15 1    
    29   14  138 1    
    30   15   16 1    
    31   15  139 1    
    32   15  140 1    
    33   16   17 1    
    34   17   18 1    
    35   17  141 1    
    36   17  142 1    
    37   18   19 1    
    38   18   67 1    
    39   18  143 1    
    40   19   20 am   BACKBONE|DICT|INTERRES
    41   19  144 1    
    42   20   21 2    
    43   20   22 1    
    44   22   23 1    
    45   22   24 1    
    46   22  145 1    
    47   23  146 1    
    48   23  147 1    
    49   23  148 1    
    50   24   25 am   BACKBONE|DICT|INTERRES
    51   24  149 1    
    52   25   26 2    
    53   25   27 1    
    54   27   28 1    
    55   27   29 1    
    56   27  150 1    
    57   28  151 1    
    58   28  152 1    
    59   28  153 1    
    60   29   30 am   BACKBONE|DICT|INTERRES
    61   29  154 1    
    62   30   31 2    
    63   30   32 1    
    64   32   33 1    
    65   32   34 1    
    66   32  155 1    
    67   33  156 1    
    68   33  157 1    
    69   33  158 1    
    70   34   35 am   BACKBONE|DICT|INTERRES
    71   34  159 1    
    72   35   36 2    
    73   35   37 1    
    74   37   38 1    
    75   37   39 1    
    76   37  160 1    
    77   38  161 1    
    78   38  162 1    
    79   38  163 1    
    80   39   40 am   BACKBONE|DICT|INTERRES
    81   39  164 1    
    82   40   41 2    
    83   40   42 1    
    84   42   43 1    
    85   42   44 1    
    86   42  165 1    
    87   43  166 1    
    88   43  167 1    
    89   43  168 1    
    90   44   45 am   BACKBONE|DICT|INTERRES
    91   44  169 1    
    92   45   46 2    
    93   45   47 1    
    94   47   48 1    
    95   47   49 1    
    96   47  170 1    
    97   48  171 1    
    98   48  172 1    
    99   48  173 1    
   100   49   50 am   BACKBONE|DICT|INTERRES
   101   49  174 1    
   102   50   51 2    
   103   50   52 1    
   104   52   53 1    
   105   52   54 1    
   106   52  175 1    
   107   53  176 1    
   108   53  177 1    
   109   53  178 1    
   110   54   55 am   BACKBONE|DICT|INTERRES
   111   54  179 1    
   112   55   56 2    
   113   55   57 1    
   114   57   58 1    
   115   57   59 1    
   116   57  180 1    
   117   58  181 1    
   118   58  182 1    
   119   58  183 1    
   120   59   60 am   BACKBONE|DICT|INTERRES
   121   59  184 1    
   122   60   61 2    
   123   60   62 1    
   124   62   63 1    
   125   62   64 1    
   126   62  185 1    
   127   63  186 1    
   128   63  187 1    
   129   63  188 1    
   130   64   65 am   BACKBONE|DICT|INTERRES
   131   64  189 1    
   132   65   66 2    
   133   67   68 2    
   134   67   69 am   BACKBONE|DICT|INTERRES
   135   69   70 1    
   136   69  190 1    
   137   70   71 1    
   138   70   72 1    
   139   70  191 1    
   140   71  192 1    
   141   71  193 1    
   142   71  194 1    
   143   72   73 2    
   144   72   74 am   BACKBONE|DICT|INTERRES
   145   74   75 1    
   146   74  195 1    
   147   75   76 1    
   148   75   77 1    
   149   75  196 1    
   150   76  197 1    
   151   76  198 1    
   152   76  199 1    
   153   77   78 2    
   154   77   79 am   BACKBONE|DICT|INTERRES
   155   79   80 1    
   156   79  200 1    
   157   80   81 1    
   158   80   82 1    
   159   80  201 1    
   160   81  202 1    
   161   81  203 1    
   162   81  204 1    
   163   82   83 2    
   164   82   84 am   BACKBONE|DICT|INTERRES
   165   84   85 1    
   166   84  205 1    
   167   85   86 1    
   168   85   87 1    
   169   85  206 1    
   170   86  207 1    
   171   86  208 1    
   172   86  209 1    
   173   87   88 2    
   174   87   89 am   BACKBONE|DICT|INTERRES
   175   89   90 1    
   176   89  210 1    
   177   90   91 1    
   178   90   92 1    
   179   90  211 1    
   180   91  212 1    
   181   91  213 1    
   182   91  214 1    
   183   92   93 2    
   184   92   94 am   BACKBONE|DICT|INTERRES
   185   94   95 1    
   186   94  215 1    
   187   95   96 1    
   188   95   97 1    
   189   95  216 1    
   190   96  217 1    
   191   96  218 1    
   192   96  219 1    
   193   97   98 2    
   194   97   99 am   BACKBONE|DICT|INTERRES
   195   99  100 1    
   196   99  220 1    
   197  100  101 1    
   198  100  102 1    
   199  100  221 1    
   200  101  222 1    
   201  101  223 1    
   202  101  224 1    
   203  102  103 2    
   204  102  104 am   BACKBONE|DICT|INTERRES
   205  104  105 1    
   206  104  225 1    
   207  105  106 1    
   208  105  107 1    
   209  105  226 1    
   210  106  227 1    
   211  106  228 1    
   212  106  229 1    
   213  107  108 2    
   214  107  109 am   BACKBONE|DICT|INTERRES
   215  109  110 1    
   216  109  230 1    
   217  110  111 1    
   218  110  112 1    
   219  110  231 1    
   220  111  232 1    
   221  111  233 1    
   222  111  234 1    
   223  112  113 2    
   224  112  114 am   BACKBONE|DICT|INTERRES
   225  114  115 1    
   226  114  235 1    
   227  115  116 1    
   228  115  117 1    
   229  115  236 1    
   230  116  237 1    
   231  116  238 1    
   232  116  239 1    
   233  117  118 2    
   234  117  119 am   BACKBONE|DICT|INTERRES
   235  119  120 1    
   236  119  240 1    
   237  120  121 1    
   238  120  124 1    
   239  120  241 1    
   240  121  122 am   BACKBONE|DICT|INTERRES
   241  121  123 2    
   242  122  242 1    
   243  122  243 1    
   244  124  125 1    
   245  124  244 1    
   246  124  245 1    
   247  125  126 1    
   248  126  246 1    
   249  126  247 1    
@<TRIPOS>SUBSTRUCTURE
     1 UNK         1 GROUP             0       ****    0 ROOT    
