@<TRIPOS>MOLECULE
3R540
247   249    1
SMALL
USER_CHARGES


@<TRIPOS>ATOM
      1 CA         -2.9556  -15.8940  -52.5231 C.3       0 UNK        -0.1800 
      2 C          -2.2204  -15.4226  -51.2789 C.2       0 UNK         0.5000 
      3 O          -1.6578  -14.3271  -51.2857 O.2       0 UNK        -0.5000 
      4 N          -2.2213  -16.2406  -50.2179 N.am      1 UNK        -0.5000 
      5 CA         -1.4895  -16.0303  -48.9646 C.3       1 UNK         0.1400 
      6 C6         -1.9613  -14.7564  -48.2066 C.3       23 UNK        -0.0398 
      7 S7         -1.8329  -14.9223  -46.3941 S.3       23 UNK        -0.2404 
      8 C8         -3.3646  -14.1133  -45.8337 C.3       23 UNK        -0.0205 
      9 C9         -4.5841  -15.0150  -45.9669 C.ar      23 UNK        -0.0193 
     10 C10        -5.5078  -14.8230  -46.9994 C.ar      23 UNK        -0.1150 
     11 C11        -6.6559  -15.6184  -47.0853 C.ar      23 UNK        -0.0193 
     12 C12        -6.8682  -16.6189  -46.1307 C.ar      23 UNK        -0.1150 
     13 C13        -5.9473  -16.8300  -45.0992 C.ar      23 UNK        -0.0193 
     14 C14        -4.8115  -16.0176  -45.0212 C.ar      23 UNK        -0.1150 
     15 C15        -6.2179  -17.8982  -44.0444 C.3       23 UNK        -0.0205 
     16 S16        -4.7681  -18.9331  -43.6489 S.3       23 UNK        -0.2404 
     17 C17        -4.5567  -19.9085  -45.1757 C.3       23 UNK        -0.0398 
     18 CA         -3.0711  -20.0399  -45.6381 C.3       11 UNK         0.1400 
     19 N          -2.1785  -20.5538  -44.5976 N.am      11 UNK        -0.5000 
     20 C          -2.2318  -21.7577  -44.0125 C.2       10 UNK         0.5000 
     21 O          -3.0571  -22.6257  -44.3016 O.2       10 UNK        -0.5000 
     22 CA         -1.1897  -22.0394  -42.9122 C.3       10 UNK         0.1400 
     23 CB          0.0283  -22.7685  -43.4973 C.3       10 UNK        -0.1800 
     24 N          -0.7421  -20.8232  -42.2280 N.am      10 UNK        -0.5000 
     25 C          -1.4874  -20.1212  -41.3619 C.2       9 UNK         0.5000 
     26 O          -2.6001  -20.4788  -40.9740 O.2       9 UNK        -0.5000 
     27 CA         -0.8967  -18.7972  -40.8399 C.3       9 UNK         0.1400 
     28 CB         -0.0477  -19.0420  -39.5832 C.3       9 UNK        -0.1800 
     29 N          -0.0915  -18.0988  -41.8431 N.am      9 UNK        -0.5000 
     30 C          -0.5905  -17.4779  -42.9221 C.2       8 UNK         0.5000 
     31 O          -1.7928  -17.3601  -43.1462 O.2       8 UNK        -0.5000 
     32 CA          0.4218  -16.9197  -43.9398 C.3       8 UNK         0.1400 
     33 CB          0.8602  -15.5020  -43.5474 C.3       8 UNK        -0.1800 
     34 N           1.5996  -17.7737  -44.0938 N.am      8 UNK        -0.5000 
     35 C           1.5714  -19.0216  -44.5808 C.2       7 UNK         0.5000 
     36 O           0.5497  -19.5634  -44.9969 O.2       7 UNK        -0.5000 
     37 CA          2.8869  -19.8186  -44.5417 C.3       7 UNK         0.1400 
     38 CB          3.7613  -19.5332  -45.7694 C.3       7 UNK        -0.1800 
     39 N           3.6520  -19.5507  -43.3263 N.am      7 UNK        -0.5000 
     40 C           3.3111  -19.9995  -42.1115 C.2       6 UNK         0.5000 
     41 O           2.3301  -20.7110  -41.8958 O.2       6 UNK        -0.5000 
     42 CA          4.1963  -19.5391  -40.9396 C.3       6 UNK         0.1400 
     43 CB          5.4641  -20.4010  -40.8438 C.3       6 UNK        -0.1800 
     44 N           4.5728  -18.1275  -41.0428 N.am      6 UNK        -0.5000 
     45 C           3.7059  -17.1109  -40.9383 C.2       5 UNK         0.5000 
     46 O           2.5018  -17.2598  -40.7354 O.2       5 UNK        -0.5000 
     47 CA          4.2699  -15.6909  -41.1248 C.3       5 UNK         0.1400 
     48 CB          4.8407  -15.1608  -39.8010 C.3       5 UNK        -0.1800 
     49 N           5.2890  -15.5783  -42.1727 N.am      5 UNK        -0.5000 
     50 C           5.0962  -15.8711  -43.4652 C.2       4 UNK         0.5000 
     51 O           4.0720  -16.3930  -43.9085 O.2       4 UNK        -0.5000 
     52 CA          6.2479  -15.5467  -44.4284 C.3       4 UNK         0.1400 
     53 CB          6.9539  -16.8335  -44.8824 C.3       4 UNK        -0.1800 
     54 N           5.7418  -14.8338  -45.6000 N.am      4 UNK        -0.5000 
     55 C           5.3833  -13.5418  -45.6083 C.2       3 UNK         0.5000 
     56 O           5.5102  -12.7924  -44.6389 O.2       3 UNK        -0.5000 
     57 CA          4.7930  -12.9880  -46.9196 C.3       3 UNK         0.1400 
     58 CB          5.9034  -12.3868  -47.7953 C.3       3 UNK        -0.1800 
     59 N           4.0789  -14.0105  -47.6875 N.am      3 UNK        -0.5000 
     60 C           2.8185  -14.3894  -47.4434 C.2       2 UNK         0.5000 
     61 O           2.0945  -13.8732  -46.5889 O.2       2 UNK        -0.5000 
     62 CA          2.2902  -15.5536  -48.2904 C.3       2 UNK         0.1400 
     63 CB          2.8253  -16.8939  -47.7622 C.3       2 UNK        -0.1800 
     64 N           0.8320  -15.5639  -48.2518 N.am      2 UNK        -0.5000 
     65 C           0.0448  -16.1109  -49.1835 C.2       1 UNK         0.5000 
     66 O           0.4961  -16.6873  -50.1773 O.2       1 UNK        -0.5000 
     67 C          -2.8926  -20.8743  -46.9292 C.2       11 UNK         0.5000 
     68 O          -1.7571  -21.1239  -47.3460 O.2       11 UNK        -0.5000 
     69 N          -4.0093  -21.3276  -47.5149 N.am      12 UNK        -0.5000 
     70 CA         -4.1059  -22.1346  -48.7295 C.3       12 UNK         0.1400 
     71 CB         -5.5866  -22.4674  -48.9588 C.3       12 UNK        -0.1800 
     72 C          -3.2723  -23.4272  -48.7307 C.2       12 UNK         0.5000 
     73 O          -2.8508  -23.8575  -49.8031 O.2       12 UNK        -0.5000 
     74 N          -3.0389  -24.0133  -47.5473 N.am      13 UNK        -0.5000 
     75 CA         -2.2395  -25.2266  -47.3689 C.3       13 UNK         0.1400 
     76 CB         -2.3691  -25.7126  -45.9179 C.3       13 UNK        -0.1800 
     77 C          -0.7581  -25.0424  -47.7502 C.2       13 UNK         0.5000 
     78 O          -0.1419  -25.9904  -48.2382 O.2       13 UNK        -0.5000 
     79 N          -0.2249  -23.8307  -47.5441 N.am      14 UNK        -0.5000 
     80 CA          1.1114  -23.4397  -47.9892 C.3       14 UNK         0.1400 
     81 CB          1.7479  -22.5137  -46.9425 C.3       14 UNK        -0.1800 
     82 C           1.0468  -22.7433  -49.3571 C.2       14 UNK         0.5000 
     83 O           1.8793  -23.0140  -50.2241 O.2       14 UNK        -0.5000 
     84 N           0.0576  -21.8591  -49.5299 N.am      15 UNK        -0.5000 
     85 CA         -0.1370  -21.0240  -50.7105 C.3       15 UNK         0.1400 
     86 CB         -0.9238  -19.7834  -50.2841 C.3       15 UNK        -0.1800 
     87 C          -0.8032  -21.7845  -51.8745 C.2       15 UNK         0.5000 
     88 O          -1.9605  -21.5226  -52.2175 O.2       15 UNK        -0.5000 
     89 N          -0.0229  -22.6962  -52.4697 N.am      16 UNK        -0.5000 
     90 CA         -0.2624  -23.4029  -53.7326 C.3       16 UNK         0.1400 
     91 CB         -0.3447  -22.3996  -54.9033 C.3       16 UNK        -0.1800 
     92 C          -1.4554  -24.3792  -53.7191 C.2       16 UNK         0.5000 
     93 O          -2.0365  -24.6324  -54.7743 O.2       16 UNK        -0.5000 
     94 N          -1.8019  -24.9217  -52.5422 N.am      17 UNK        -0.5000 
     95 CA         -2.9088  -25.8631  -52.3157 C.3       17 UNK         0.1400 
     96 CB         -2.6100  -27.2290  -52.9691 C.3       17 UNK        -0.1800 
     97 C          -4.2686  -25.2682  -52.7432 C.2       17 UNK         0.5000 
     98 O          -5.0460  -25.9180  -53.4436 O.2       17 UNK        -0.5000 
     99 N          -4.4882  -24.0099  -52.3382 N.am      18 UNK        -0.5000 
    100 CA        -5.6339  -23.1351  -52.6128 C.3       18 UNK         0.1400 
    101 CB        -6.9777  -23.8151  -52.2760 C.3       18 UNK        -0.1800 
    102 C         -5.6704  -22.5275  -54.0275 C.2       18 UNK         0.5000 
    103 O         -6.4310  -21.5794  -54.2307 O.2       18 UNK        -0.5000 
    104 N         -4.8524  -23.0238  -54.9686 N.am      19 UNK        -0.5000 
    105 CA        -4.8703  -22.6387  -56.3869 C.3       19 UNK         0.1400 
    106 CB        -3.9240  -23.5529  -57.1783 C.3       19 UNK        -0.1800 
    107 C         -4.5332  -21.1593  -56.6592 C.2       19 UNK         0.5000 
    108 O         -4.9254  -20.6319  -57.7006 O.2       19 UNK        -0.5000 
    109 N         -3.8408  -20.5101  -55.7145 N.am      20 UNK        -0.5000 
    110 CA        -3.5195  -19.0831  -55.7445 C.3       20 UNK         0.1400 
    111 CB        -2.3031  -18.8373  -54.8351 C.3       20 UNK        -0.1800 
    112 C         -4.7014  -18.1656  -55.3526 C.2       20 UNK         0.5000 
    113 O         -4.5372  -16.9481  -55.4260 O.2       20 UNK        -0.5000 
    114 N         -5.8446  -18.7497  -54.9458 N.am      21 UNK        -0.5000 
    115 CA        -7.0292  -18.1168  -54.3487 C.3       21 UNK         0.1400 
    116 CB        -7.6432  -17.0356  -55.2625 C.3       21 UNK        -0.1800 
    117 C         -6.6746  -17.5994  -52.9437 C.2       21 UNK         0.5000 
    118 O         -6.2103  -16.4690  -52.8010 O.2       21 UNK        -0.5000 
    119 N         -6.8245  -18.4910  -51.9549 N.am      22 UNK        -0.5000 
    120 CA        -6.1210  -18.4775  -50.6570 C.3       22 UNK         0.1400 
    121 C         -4.6462  -18.9591  -50.7801 C.2       22 UNK         0.5000 
    122 N         -4.3025  -19.7732  -51.7733 N.am      22 UNK        -0.7600 
    123 O         -3.8080  -18.6055  -49.9594 O.2       22 UNK        -0.5000 
    124 C124       -6.2483  -17.1697  -49.8217 C.3       23 UNK        -0.0398 
    125 S125       -7.9478  -16.8330  -49.2655 S.3       23 UNK        -0.2404 
    126 C126       -7.6747  -15.3777  -48.1969 C.3       23 UNK        -0.0205 
    127 H127       -3.3228  -16.9144  -52.4205 H         1 UNK         0.0600 
    128 H128       -2.2915  -15.8600  -53.3862 H         1 UNK         0.0600 
    129 H129       -3.8060  -15.2434  -52.7252 H         1 UNK         0.0600 
    130 H130       -2.7109  -17.1315  -50.2702 H         1 UNK         0.3000 
    131 H131       -1.7457  -16.9007  -48.3581 H         1 UNK         0.0600 
    132 H132       -3.0056  -14.5593  -48.4491 H         1 UNK         0.0800 
    133 H133       -1.4166  -13.8684  -48.5323 H         1 UNK         0.0800 
    134 H134       -3.5086  -13.1792  -46.3790 H         1 UNK         0.0800 
    135 H135       -3.2433  -13.8337  -44.7861 H         1 UNK         0.0800 
    136 H136       -5.3413  -14.0408  -47.7265 H         1 UNK         0.1150 
    137 H137       -7.7591  -17.2283  -46.1913 H         1 UNK         0.1150 
    138 H138       -4.1023  -16.1607  -44.2173 H         1 UNK         0.1150 
    139 H139       -6.5456  -17.4004  -43.1311 H         1 UNK         0.0800 
    140 H140       -7.0389  -18.5484  -44.3508 H         1 UNK         0.0800 
    141 H141       -5.1499  -19.4391  -45.9622 H         1 UNK         0.0800 
    142 H142       -4.9998  -20.8889  -44.9933 H         1 UNK         0.0800 
    143 H143       -2.7087  -19.0384  -45.8755 H         1 UNK         0.0600 
    144 H144       -1.3868  -19.9611  -44.3777 H         1 UNK         0.3000 
    145 H145       -1.6567  -22.6965  -42.1757 H         1 UNK         0.0600 
    146 H146        0.7455  -23.0281  -42.7186 H         1 UNK         0.0600 
    147 H147       -0.2661  -23.6943  -43.9924 H         1 UNK         0.0600 
    148 H148        0.5422  -22.1523  -44.2331 H         1 UNK         0.0600 
    149 H149        0.1901  -20.4941  -42.4463 H         1 UNK         0.3000 
    150 H150       -1.7313  -18.1497  -40.5629 H         1 UNK         0.0600 
    151 H151       -0.6268  -19.5528  -38.8130 H         1 UNK         0.0600 
    152 H152        0.3034  -18.1024  -39.1564 H         1 UNK         0.0600 
    153 H153        0.8260  -19.6573  -39.8008 H         1 UNK         0.0600 
    154 H154        0.9104  -18.0739  -41.6852 H         1 UNK         0.3000 
    155 H155       -0.0740  -16.8681  -44.9109 H         1 UNK         0.0600 
    156 H156        1.3303  -15.4840  -42.5645 H         1 UNK         0.0600 
    157 H157        0.0049  -14.8259  -43.5170 H         1 UNK         0.0600 
    158 H158        1.5715  -15.0954  -44.2655 H         1 UNK         0.0600 
    159 H159        2.4947  -17.3670  -43.8325 H         1 UNK         0.3000 
    160 H160        2.6290  -20.8793  -44.5573 H         1 UNK         0.0600 
    161 H161        4.6217  -20.2016  -45.8020 H         1 UNK         0.0600 
    162 H162        4.1348  -18.5101  -45.7649 H         1 UNK         0.0600 
    163 H163        3.2004  -19.6801  -46.6931 H         1 UNK         0.0600 
    164 H164        4.4370  -18.9221  -43.4100 H         1 UNK         0.3000 
    165 H165        3.6236  -19.6720  -40.0192 H         1 UNK         0.0600 
    166 H166        6.0570  -20.1335  -39.9689 H         1 UNK         0.0600 
    167 H167        5.2106  -21.4580  -40.7524 H         1 UNK         0.0600 
    168 H168        6.0969  -20.2900  -41.7253 H         1 UNK         0.0600 
    169 H169        5.5456  -17.9192  -41.2136 H         1 UNK         0.3000 
    170 H170        3.4371  -15.0465  -41.4130 H         1 UNK         0.0600 
    171 H171        4.0963  -15.2142  -39.0053 H         1 UNK         0.0600 
    172 H172        5.7092  -15.7357  -39.4772 H         1 UNK         0.0600 
    173 H173        5.1426  -14.1171  -39.8910 H         1 UNK         0.0600 
    174 H174        6.1672  -15.1644  -41.8948 H         1 UNK         0.3000 
    175 H175        6.9788  -14.9147  -43.9190 H         1 UNK         0.0600 
    176 H176        6.2810  -17.4950  -45.4283 H         1 UNK         0.0600 
    177 H177        7.8000  -16.6088  -45.5320 H         1 UNK         0.0600 
    178 H178        7.3403  -17.3902  -44.0277 H         1 UNK         0.0600 
    179 H179        5.5644  -15.3885  -46.4227 H         1 UNK         0.3000 
    180 H180        4.0983  -12.1863  -46.6590 H         1 UNK         0.0600 
    181 H181        6.6334  -13.1393  -48.0962 H         1 UNK         0.0600 
    182 H182        6.4415  -11.6035  -47.2597 H         1 UNK         0.0600 
    183 H183        5.4923  -11.9367  -48.6992 H         1 UNK         0.0600 
    184 H184        4.5993  -14.4692  -48.4216 H         1 UNK         0.3000 
    185 H185        2.6246  -15.4033  -49.3193 H         1 UNK         0.0600 
    186 H186        2.4693  -17.7321  -48.3613 H         1 UNK         0.0600 
    187 H187        3.9151  -16.9226  -47.7801 H         1 UNK         0.0600 
    188 H188        2.5057  -17.0574  -46.7333 H         1 UNK         0.0600 
    189 H189        0.4276  -15.0715  -47.4630 H         1 UNK         0.3000 
    190 H190       -4.8930  -21.0947  -47.0891 H         1 UNK         0.3000 
    191 H191       -3.7491  -21.5306  -49.5641 H         1 UNK         0.0600 
    192 H192       -5.7060  -23.1954  -49.7576 H         1 UNK         0.0600 
    193 H193       -6.1559  -21.5800  -49.2340 H         1 UNK         0.0600 
    194 H194       -6.0443  -22.8998  -48.0682 H         1 UNK         0.0600 
    195 H195       -3.4027  -23.5805  -46.7092 H         1 UNK         0.3000 
    196 H196       -2.6538  -25.9961  -48.0238 H         1 UNK         0.0600 
    197 H197       -1.8175  -26.6413  -45.7665 H         1 UNK         0.0600 
    198 H198       -3.4097  -25.9065  -45.6573 H         1 UNK         0.0600 
    199 H199       -1.9777  -24.9803  -45.2119 H         1 UNK         0.0600 
    200 H200       -0.8182  -23.0931  -47.1839 H         1 UNK         0.3000 
    201 H201        1.7518  -24.3185  -48.0899 H         1 UNK         0.0600 
    202 H202        1.1318  -21.6336  -46.7533 H         1 UNK         0.0600 
    203 H203        2.7280  -22.1665  -47.2715 H         1 UNK         0.0600 
    204 H204        1.8918  -23.0360  -45.9971 H         1 UNK         0.0600 
    205 H205       -0.5866  -21.6888  -48.7629 H         1 UNK         0.3000 
    206 H206        0.8372  -20.6800  -51.0644 H         1 UNK         0.0600 
    207 H207       -0.3721  -19.2034  -49.5450 H         1 UNK         0.0600 
    208 H208       -1.1370  -19.1265  -51.1286 H         1 UNK         0.0600 
    209 H209       -1.8667  -20.0761  -49.8308 H         1 UNK         0.0600 
    210 H210        0.8754  -22.8755  -52.0326 H         1 UNK         0.3000 
    211 H211        0.6209  -24.0214  -53.8967 H         1 UNK         0.0600 
    212 H212        0.4965  -21.7067  -54.8939 H         1 UNK         0.0600 
    213 H213       -1.2637  -21.8153  -54.8649 H         1 UNK         0.0600 
    214 H214       -0.3277  -22.9143  -55.8646 H         1 UNK         0.0600 
    215 H215       -1.3179  -24.6074  -51.7121 H         1 UNK         0.3000 
    216 H216       -2.9680  -26.0285  -51.2396 H         1 UNK         0.0600 
    217 H217       -3.3735  -27.9616  -52.7054 H         1 UNK         0.0600 
    218 H218       -1.6518  -27.6246  -52.6326 H         1 UNK         0.0600 
    219 H219       -2.5827  -27.1645  -54.0572 H         1 UNK         0.0600 
    220 H220       -3.7530  -23.5913  -51.7779 H         1 UNK         0.3000 
    221 H221       -5.5163  -22.2931  -51.9317 H         1 UNK         0.0600 
    222 H222       -7.2563  -24.5557  -53.0262 H         1 UNK         0.0600 
    223 H223       -6.9503  -24.3187  -51.3105 H         1 UNK         0.0600 
    224 H224       -7.7830  -23.0806  -52.2375 H         1 UNK         0.0600 
    225 H225       -4.2267  -23.7791  -54.7176 H         1 UNK         0.3000 
    226 H226       -5.8853  -22.8088  -56.7517 H         1 UNK         0.0600 
    227 H227       -4.0246  -23.3821  -58.2508 H         1 UNK         0.0600 
    228 H228       -2.8809  -23.3714  -56.9178 H         1 UNK         0.0600 
    229 H229       -4.1398  -24.6057  -56.9945 H         1 UNK         0.0600 
    230 H230       -3.5505  -21.0255  -54.8963 H         1 UNK         0.3000 
    231 H231       -3.2328  -18.8138  -56.7632 H         1 UNK         0.0600 
    232 H232       -1.4439  -19.4251  -55.1569 H         1 UNK         0.0600 
    233 H233       -2.5132  -19.0913  -53.7964 H         1 UNK         0.0600 
    234 H234       -1.9987  -17.7909  -54.8619 H         1 UNK         0.0600 
    235 H235       -5.8719  -19.7638  -54.9411 H         1 UNK         0.3000 
    236 H236       -7.7760  -18.9053  -54.2407 H         1 UNK         0.0600 
    237 H237       -7.8498  -17.4319  -56.2565 H         1 UNK         0.0600 
    238 H238       -8.5876  -16.6785  -54.8507 H         1 UNK         0.0600 
    239 H239       -6.9952  -16.1666  -55.3761 H         1 UNK         0.0600 
    240 H240       -7.2719  -19.3682  -52.1794 H         1 UNK         0.3000 
    241 H241       -6.5971  -19.2622  -50.0689 H         1 UNK         0.0600 
    242 H242       -4.9785  -20.0305  -52.4693 H         1 UNK         0.3800 
    243 H243       -3.3588  -20.1413  -51.8281 H         1 UNK         0.3800 
    244 H244       -5.6424  -17.2573  -48.9192 H         1 UNK         0.0800 
    245 H245       -5.8531  -16.3034  -50.3509 H         1 UNK         0.0800 
    246 H246       -7.3689  -14.5394  -48.8248 H         1 UNK         0.0800 
    247 H247       -8.6254  -15.0899  -47.7463 H         1 UNK         0.0800 
@<TRIPOS>BOND
     1    1    2 1    
     2    1  127 1    
     3    1  128 1    
     4    1  129 1    
     5    2    3 2    
     6    2    4 am   BACKBONE|DICT|INTERRES
     7    4    5 1    
     8    4  130 1    
     9    5    6 1    
    10    5   65 1    
    11    5  131 1    
    12    6    7 1    
    13    6  132 1    
    14    6  133 1    
    15    7    8 1    
    16    8    9 1    
    17    8  134 1    
    18    8  135 1    
    19    9   10 ar   
    20    9   14 ar   
    21   10   11 ar   
    22   10  136 1    
    23   11   12 ar   
    24   11  126 1    
    25   12   13 ar   
    26   12  137 1    
    27   13   14 ar   
    28   13   15 1    
    29   14  138 1    
    30   15   16 1    
    31   15  139 1    
    32   15  140 1    
    33   16   17 1    
    34   17   18 1    
    35   17  141 1    
    36   17  142 1    
    37   18   19 1    
    38   18   67 1    
    39   18  143 1    
    40   19   20 am   BACKBONE|DICT|INTERRES
    41   19  144 1    
    42   20   21 2    
    43   20   22 1    
    44   22   23 1    
    45   22   24 1    
    46   22  145 1    
    47   23  146 1    
    48   23  147 1    
    49   23  148 1    
    50   24   25 am   BACKBONE|DICT|INTERRES
    51   24  149 1    
    52   25   26 2    
    53   25   27 1    
    54   27   28 1    
    55   27   29 1    
    56   27  150 1    
    57   28  151 1    
    58   28  152 1    
    59   28  153 1    
    60   29   30 am   BACKBONE|DICT|INTERRES
    61   29  154 1    
    62   30   31 2    
    63   30   32 1    
    64   32   33 1    
    65   32   34 1    
    66   32  155 1    
    67   33  156 1    
    68   33  157 1    
    69   33  158 1    
    70   34   35 am   BACKBONE|DICT|INTERRES
    71   34  159 1    
    72   35   36 2    
    73   35   37 1    
    74   37   38 1    
    75   37   39 1    
    76   37  160 1    
    77   38  161 1    
    78   38  162 1    
    79   38  163 1    
    80   39   40 am   BACKBONE|DICT|INTERRES
    81   39  164 1    
    82   40   41 2    
    83   40   42 1    
    84   42   43 1    
    85   42   44 1    
    86   42  165 1    
    87   43  166 1    
    88   43  167 1    
    89   43  168 1    
    90   44   45 am   BACKBONE|DICT|INTERRES
    91   44  169 1    
    92   45   46 2    
    93   45   47 1    
    94   47   48 1    
    95   47   49 1    
    96   47  170 1    
    97   48  171 1    
    98   48  172 1    
    99   48  173 1    
   100   49   50 am   BACKBONE|DICT|INTERRES
   101   49  174 1    
   102   50   51 2    
   103   50   52 1    
   104   52   53 1    
   105   52   54 1    
   106   52  175 1    
   107   53  176 1    
   108   53  177 1    
   109   53  178 1    
   110   54   55 am   BACKBONE|DICT|INTERRES
   111   54  179 1    
   112   55   56 2    
   113   55   57 1    
   114   57   58 1    
   115   57   59 1    
   116   57  180 1    
   117   58  181 1    
   118   58  182 1    
   119   58  183 1    
   120   59   60 am   BACKBONE|DICT|INTERRES
   121   59  184 1    
   122   60   61 2    
   123   60   62 1    
   124   62   63 1    
   125   62   64 1    
   126   62  185 1    
   127   63  186 1    
   128   63  187 1    
   129   63  188 1    
   130   64   65 am   BACKBONE|DICT|INTERRES
   131   64  189 1    
   132   65   66 2    
   133   67   68 2    
   134   67   69 am   BACKBONE|DICT|INTERRES
   135   69   70 1    
   136   69  190 1    
   137   70   71 1    
   138   70   72 1    
   139   70  191 1    
   140   71  192 1    
   141   71  193 1    
   142   71  194 1    
   143   72   73 2    
   144   72   74 am   BACKBONE|DICT|INTERRES
   145   74   75 1    
   146   74  195 1    
   147   75   76 1    
   148   75   77 1    
   149   75  196 1    
   150   76  197 1    
   151   76  198 1    
   152   76  199 1    
   153   77   78 2    
   154   77   79 am   BACKBONE|DICT|INTERRES
   155   79   80 1    
   156   79  200 1    
   157   80   81 1    
   158   80   82 1    
   159   80  201 1    
   160   81  202 1    
   161   81  203 1    
   162   81  204 1    
   163   82   83 2    
   164   82   84 am   BACKBONE|DICT|INTERRES
   165   84   85 1    
   166   84  205 1    
   167   85   86 1    
   168   85   87 1    
   169   85  206 1    
   170   86  207 1    
   171   86  208 1    
   172   86  209 1    
   173   87   88 2    
   174   87   89 am   BACKBONE|DICT|INTERRES
   175   89   90 1    
   176   89  210 1    
   177   90   91 1    
   178   90   92 1    
   179   90  211 1    
   180   91  212 1    
   181   91  213 1    
   182   91  214 1    
   183   92   93 2    
   184   92   94 am   BACKBONE|DICT|INTERRES
   185   94   95 1    
   186   94  215 1    
   187   95   96 1    
   188   95   97 1    
   189   95  216 1    
   190   96  217 1    
   191   96  218 1    
   192   96  219 1    
   193   97   98 2    
   194   97   99 am   BACKBONE|DICT|INTERRES
   195   99  100 1    
   196   99  220 1    
   197  100  101 1    
   198  100  102 1    
   199  100  221 1    
   200  101  222 1    
   201  101  223 1    
   202  101  224 1    
   203  102  103 2    
   204  102  104 am   BACKBONE|DICT|INTERRES
   205  104  105 1    
   206  104  225 1    
   207  105  106 1    
   208  105  107 1    
   209  105  226 1    
   210  106  227 1    
   211  106  228 1    
   212  106  229 1    
   213  107  108 2    
   214  107  109 am   BACKBONE|DICT|INTERRES
   215  109  110 1    
   216  109  230 1    
   217  110  111 1    
   218  110  112 1    
   219  110  231 1    
   220  111  232 1    
   221  111  233 1    
   222  111  234 1    
   223  112  113 2    
   224  112  114 am   BACKBONE|DICT|INTERRES
   225  114  115 1    
   226  114  235 1    
   227  115  116 1    
   228  115  117 1    
   229  115  236 1    
   230  116  237 1    
   231  116  238 1    
   232  116  239 1    
   233  117  118 2    
   234  117  119 am   BACKBONE|DICT|INTERRES
   235  119  120 1    
   236  119  240 1    
   237  120  121 1    
   238  120  124 1    
   239  120  241 1    
   240  121  122 am   BACKBONE|DICT|INTERRES
   241  121  123 2    
   242  122  242 1    
   243  122  243 1    
   244  124  125 1    
   245  124  244 1    
   246  124  245 1    
   247  125  126 1    
   248  126  246 1    
   249  126  247 1    
@<TRIPOS>SUBSTRUCTURE
     1 UNK         1 GROUP             0       ****    0 ROOT    
