@<TRIPOS>MOLECULE
3R540
247   249    1
SMALL
USER_CHARGES


@<TRIPOS>ATOM
      1 CA          5.7152  -13.6157  -49.6668 C.3       0 UNK        -0.1800 
      2 C           4.3054  -13.6927  -49.0992 C.2       0 UNK         0.5000 
      3 O           3.4954  -12.8008  -49.3531 O.2       0 UNK        -0.5000 
      4 N           4.0190  -14.7437  -48.3177 N.am      1 UNK        -0.5000 
      5 CA          2.7390  -15.0820  -47.6699 C.3       1 UNK         0.1400 
      6 C6          1.5372  -15.2267  -48.6436 C.3       23 UNK        -0.0398 
      7 S7          1.8573  -16.4110  -49.9961 S.3       23 UNK        -0.2404 
      8 C8          0.6798  -17.7588  -49.6384 C.3       23 UNK        -0.0205 
      9 C9         -0.7895  -17.3626  -49.7647 C.ar      23 UNK        -0.0193 
     10 C10        -1.2335  -16.5865  -50.8404 C.ar      23 UNK        -0.1150 
     11 C11        -2.5826  -16.2354  -50.9688 C.ar      23 UNK        -0.0193 
     12 C12        -3.4931  -16.6858  -50.0079 C.ar      23 UNK        -0.1150 
     13 C13        -3.0679  -17.4605  -48.9244 C.ar      23 UNK        -0.0193 
     14 C14        -1.7150  -17.7957  -48.8093 C.ar      23 UNK        -0.1150 
     15 C15        -4.0610  -17.8857  -47.8512 C.3       23 UNK        -0.0205 
     16 S16        -4.4942  -19.6473  -47.9793 S.3       23 UNK        -0.2404 
     17 C17        -4.1867  -20.2817  -46.2883 C.3       23 UNK        -0.0398 
     18 CA         -3.3149  -21.5553  -46.3478 C.3       11 UNK         0.1400 
     19 N          -1.9430  -21.2768  -46.7839 N.am      11 UNK        -0.5000 
     20 C          -1.1235  -22.1920  -47.3162 C.2       10 UNK         0.5000 
     21 O          -1.4611  -23.3570  -47.5291 O.2       10 UNK        -0.5000 
     22 CA          0.3266  -21.7614  -47.6112 C.3       10 UNK         0.1400 
     23 CB          0.4610  -21.3704  -49.0880 C.3       10 UNK        -0.1800 
     24 N           0.8262  -20.6635  -46.7735 N.am      10 UNK        -0.5000 
     25 C           0.8751  -20.6600  -45.4334 C.2       9 UNK         0.5000 
     26 O           0.4529  -21.5947  -44.7503 O.2       9 UNK        -0.5000 
     27 CA          1.4574  -19.4130  -44.7363 C.3       9 UNK         0.1400 
     28 CB          1.6528  -18.2093  -45.6815 C.3       9 UNK        -0.1800 
     29 N           0.5750  -19.0328  -43.6341 N.am      9 UNK        -0.5000 
     30 C           0.6703  -19.5004  -42.3795 C.2       8 UNK         0.5000 
     31 O           1.6147  -20.1837  -41.9808 O.2       8 UNK        -0.5000 
     32 CA         -0.4801  -19.1759  -41.4044 C.3       8 UNK         0.1400 
     33 CB          0.0341  -18.6379  -40.0578 C.3       8 UNK        -0.1800 
     34 N          -1.4406  -18.2273  -41.9721 N.am      8 UNK        -0.5000 
     35 C          -2.6340  -18.5709  -42.4775 C.2       7 UNK         0.5000 
     36 O          -3.0694  -19.7214  -42.4936 O.2       7 UNK        -0.5000 
     37 CA         -3.4837  -17.4478  -43.0990 C.3       7 UNK         0.1400 
     38 CB         -4.3330  -16.7579  -42.0214 C.3       7 UNK        -0.1800 
     39 N          -2.7094  -16.4344  -43.8134 N.am      7 UNK        -0.5000 
     40 C          -1.8805  -16.6432  -44.8416 C.2       6 UNK         0.5000 
     41 O          -1.6238  -17.7619  -45.2881 O.2       6 UNK        -0.5000 
     42 CA         -1.1973  -15.4062  -45.4575 C.3       6 UNK         0.1400 
     43 CB         -2.1203  -14.6688  -46.4436 C.3       6 UNK        -0.1800 
     44 N          -0.6217  -14.4867  -44.4704 N.am      6 UNK        -0.5000 
     45 C          -1.2363  -13.7439  -43.5377 C.2       5 UNK         0.5000 
     46 O          -2.4614  -13.6531  -43.4399 O.2       5 UNK        -0.5000 
     47 CA         -0.3338  -13.0130  -42.5193 C.3       5 UNK         0.1400 
     48 CB         -1.0168  -12.8579  -41.1449 C.3       5 UNK        -0.1800 
     49 N           0.9990  -13.6075  -42.3509 N.am      5 UNK        -0.5000 
     50 C           1.3011  -14.8648  -41.9837 C.2       4 UNK         0.5000 
     51 O           0.4543  -15.7391  -41.7913 O.2       4 UNK        -0.5000 
     52 CA          2.8013  -15.1917  -41.8349 C.3       4 UNK         0.1400 
     53 CB          3.1226  -16.6744  -42.0850 C.3       4 UNK        -0.1800 
     54 N           3.5924  -14.3692  -42.7504 N.am      4 UNK        -0.5000 
     55 C           4.5789  -13.5357  -42.3931 C.2       3 UNK         0.5000 
     56 O           5.0123  -13.4394  -41.2445 O.2       3 UNK        -0.5000 
     57 CA          5.1659  -12.6288  -43.4969 C.3       3 UNK         0.1400 
     58 CB          6.4595  -13.2379  -44.0588 C.3       3 UNK        -0.1800 
     59 N           4.2449  -12.3721  -44.6078 N.am      3 UNK        -0.5000 
     60 C           3.0530  -11.7653  -44.5121 C.2       2 UNK         0.5000 
     61 O           2.6120  -11.2890  -43.4660 O.2       2 UNK        -0.5000 
     62 CA          2.1725  -11.7491  -45.7767 C.3       2 UNK         0.1400 
     63 CB          2.2925  -10.3989  -46.4976 C.3       2 UNK        -0.1800 
     64 N           2.4664  -12.8239  -46.7292 N.am      2 UNK        -0.5000 
     65 C           2.3933  -14.1406  -46.4963 C.2       1 UNK         0.5000 
     66 O           2.1033  -14.6166  -45.3969 O.2       1 UNK        -0.5000 
     67 C          -3.3946  -22.4247  -45.0716 C.2       11 UNK         0.5000 
     68 O          -4.4694  -22.9523  -44.7833 O.2       11 UNK        -0.5000 
     69 N          -2.2645  -22.6253  -44.3803 N.am      12 UNK        -0.5000 
     70 CA         -2.0957  -23.6300  -43.3342 C.3       12 UNK         0.1400 
     71 CB         -1.5885  -22.9553  -42.0495 C.3       12 UNK        -0.1800 
     72 C          -1.1151  -24.7186  -43.8013 C.2       12 UNK         0.5000 
     73 O          -1.4491  -25.9024  -43.7524 O.2       12 UNK        -0.5000 
     74 N           0.0769  -24.3002  -44.2484 N.am      13 UNK        -0.5000 
     75 CA          1.2279  -25.1620  -44.5256 C.3       13 UNK         0.1400 
     76 CB          2.4800  -24.2820  -44.6651 C.3       13 UNK        -0.1800 
     77 C           1.0766  -26.0681  -45.7602 C.2       13 UNK         0.5000 
     78 O           1.6736  -27.1450  -45.7866 O.2       13 UNK        -0.5000 
     79 N           0.2975  -25.6243  -46.7534 N.am      14 UNK        -0.5000 
     80 CA          0.0409  -26.3417  -48.0045 C.3       14 UNK         0.1400 
     81 CB          0.6184  -25.5285  -49.1778 C.3       14 UNK        -0.1800 
     82 C          -1.4618  -26.6197  -48.1888 C.2       14 UNK         0.5000 
     83 O          -1.8921  -26.8939  -49.3092 O.2       14 UNK        -0.5000 
     84 N          -2.2411  -26.5144  -47.0998 N.am      15 UNK        -0.5000 
     85 CA         -3.6902  -26.7373  -47.0191 C.3       15 UNK         0.1400 
     86 CB         -4.0005  -28.2429  -47.1476 C.3       15 UNK        -0.1800 
     87 C          -4.5170  -25.8742  -48.0003 C.2       15 UNK         0.5000 
     88 O          -5.5744  -26.3098  -48.4590 O.2       15 UNK        -0.5000 
     89 N          -4.0117  -24.6697  -48.3068 N.am      16 UNK        -0.5000 
     90 CA         -4.5756  -23.6871  -49.2367 C.3       16 UNK         0.1400 
     91 CB         -5.9657  -23.1993  -48.7739 C.3       16 UNK        -0.1800 
     92 C          -4.5478  -24.1320  -50.7106 C.2       16 UNK         0.5000 
     93 O          -5.3609  -23.6559  -51.5026 O.2       16 UNK        -0.5000 
     94 N          -3.5705  -24.9728  -51.0849 N.am      17 UNK        -0.5000 
     95 CA         -3.2936  -25.3375  -52.4794 C.3       17 UNK         0.1400 
     96 CB         -2.2026  -26.4169  -52.5221 C.3       17 UNK        -0.1800 
     97 C          -2.8903  -24.1287  -53.3496 C.2       17 UNK         0.5000 
     98 O          -3.2201  -24.0942  -54.5348 O.2       17 UNK        -0.5000 
     99 N          -2.2239  -23.1392  -52.7348 N.am      18 UNK        -0.5000 
    100 CA        -1.8502  -21.8682  -53.3581 C.3       18 UNK         0.1400 
    101 CB        -0.9119  -21.0971  -52.4179 C.3       18 UNK        -0.1800 
    102 C         -3.0631  -20.9929  -53.7213 C.2       18 UNK         0.5000 
    103 O         -3.0224  -20.2959  -54.7345 O.2       18 UNK        -0.5000 
    104 N         -4.1339  -21.0641  -52.9169 N.am      19 UNK        -0.5000 
    105 CA        -5.3609  -20.2750  -53.0714 C.3       19 UNK         0.1400 
    106 CB        -6.1793  -20.3485  -51.7733 C.3       19 UNK        -0.1800 
    107 C         -6.2155  -20.6722  -54.2934 C.2       19 UNK         0.5000 
    108 O         -7.1639  -19.9608  -54.6249 O.2       19 UNK        -0.5000 
    109 N         -5.8623  -21.7789  -54.9627 N.am      20 UNK        -0.5000 
    110 CA        -6.4077  -22.1635  -56.2642 C.3       20 UNK         0.1400 
    111 CB        -6.0283  -23.6229  -56.5558 C.3       20 UNK        -0.1800 
    112 C         -5.9242  -21.2409  -57.4035 C.2       20 UNK         0.5000 
    113 O         -6.6243  -21.1149  -58.4090 O.2       20 UNK        -0.5000 
    114 N         -4.7499  -20.6175  -57.2279 N.am      21 UNK        -0.5000 
    115 CA        -4.1502  -19.6724  -58.1692 C.3       21 UNK         0.1400 
    116 CB        -2.7256  -20.1394  -58.5092 C.3       21 UNK        -0.1800 
    117 C         -4.1273  -18.2487  -57.5885 C.2       21 UNK         0.5000 
    118 O         -4.4509  -17.2987  -58.3023 O.2       21 UNK        -0.5000 
    119 N         -3.7383  -18.1231  -56.3138 N.am      22 UNK        -0.5000 
    120 CA        -3.6566  -16.8629  -55.5691 C.3       22 UNK         0.1400 
    121 C         -5.0642  -16.3000  -55.2300 C.2       22 UNK         0.5000 
    122 N         -5.3946  -15.1005  -55.6888 N.am      22 UNK        -0.7600 
    123 O         -5.8445  -16.9292  -54.5214 O.2       22 UNK        -0.5000 
    124 C124       -2.7811  -17.0416  -54.3019 C.3       23 UNK        -0.0398 
    125 S125       -2.1539  -15.4554  -53.6601 S.3       23 UNK        -0.2404 
    126 C126       -3.0737  -15.3165  -52.0885 C.3       23 UNK        -0.0205 
    127 H127        6.3263  -14.4624  -49.3534 H         1 UNK         0.0600 
    128 H128        6.2045  -12.7007  -49.3330 H         1 UNK         0.0600 
    129 H129        5.6797  -13.6069  -50.7562 H         1 UNK         0.0600 
    130 H130        4.7539  -15.4167  -48.1504 H         1 UNK         0.3000 
    131 H131        2.9049  -16.0630  -47.2238 H         1 UNK         0.0600 
    132 H132        0.6447  -15.5427  -48.1037 H         1 UNK         0.0800 
    133 H133        1.2838  -14.2663  -49.0947 H         1 UNK         0.0800 
    134 H134        0.8912  -18.1489  -48.6439 H         1 UNK         0.0800 
    135 H135        0.8736  -18.5716  -50.3390 H         1 UNK         0.0800 
    136 H136       -0.5167  -16.2419  -51.5712 H         1 UNK         0.1150 
    137 H137       -4.5351  -16.4095  -50.0890 H         1 UNK         0.1150 
    138 H138       -1.3874  -18.3900  -47.9685 H         1 UNK         0.1150 
    139 H139       -3.6522  -17.6555  -46.8712 H         1 UNK         0.0800 
    140 H140       -4.9784  -17.3007  -47.9289 H         1 UNK         0.0800 
    141 H141       -5.1592  -20.4937  -45.8404 H         1 UNK         0.0800 
    142 H142       -3.7150  -19.5294  -45.6565 H         1 UNK         0.0800 
    143 H143       -3.7633  -22.1890  -47.1062 H         1 UNK         0.0600 
    144 H144       -1.5969  -20.3432  -46.6172 H         1 UNK         0.3000 
    145 H145        0.9654  -22.6273  -47.4275 H         1 UNK         0.0600 
    146 H146        1.4860  -21.0965  -49.3381 H         1 UNK         0.0600 
    147 H147        0.1816  -22.2004  -49.7373 H         1 UNK         0.0600 
    148 H148       -0.1873  -20.5305  -49.3370 H         1 UNK         0.0600 
    149 H149        1.2034  -19.8667  -47.2624 H         1 UNK         0.3000 
    150 H150        2.4377  -19.6894  -44.3437 H         1 UNK         0.0600 
    151 H151        2.4419  -18.4067  -46.4078 H         1 UNK         0.0600 
    152 H152        1.9454  -17.3172  -45.1312 H         1 UNK         0.0600 
    153 H153        0.7469  -17.9638  -46.2331 H         1 UNK         0.0600 
    154 H154       -0.2655  -18.5326  -43.8969 H         1 UNK         0.3000 
    155 H155       -0.9753  -20.1252  -41.1949 H         1 UNK         0.0600 
    156 H156        0.5894  -17.7090  -40.1709 H         1 UNK         0.0600 
    157 H157        0.6972  -19.3569  -39.5755 H         1 UNK         0.0600 
    158 H158       -0.7911  -18.4504  -39.3706 H         1 UNK         0.0600 
    159 H159       -1.1342  -17.2613  -42.0160 H         1 UNK         0.3000 
    160 H160       -4.1596  -17.9088  -43.8215 H         1 UNK         0.0600 
    161 H161       -3.7103  -16.2373  -41.2925 H         1 UNK         0.0600 
    162 H162       -4.9414  -17.4823  -41.4781 H         1 UNK         0.0600 
    163 H163       -5.0129  -16.0286  -42.4622 H         1 UNK         0.0600 
    164 H164       -2.8346  -15.4692  -43.5181 H         1 UNK         0.3000 
    165 H165       -0.3494  -15.7838  -46.0270 H         1 UNK         0.0600 
    166 H166       -3.0251  -14.2986  -45.9613 H         1 UNK         0.0600 
    167 H167       -1.6102  -13.8197  -46.8984 H         1 UNK         0.0600 
    168 H168       -2.4311  -15.3273  -47.2530 H         1 UNK         0.0600 
    169 H169        0.3936  -14.4953  -44.4535 H         1 UNK         0.3000 
    170 H170       -0.1723  -12.0133  -42.9245 H         1 UNK         0.0600 
    171 H171       -1.9432  -12.2882  -41.2261 H         1 UNK         0.0600 
    172 H172       -1.2646  -13.8255  -40.7068 H         1 UNK         0.0600 
    173 H173       -0.3738  -12.3269  -40.4430 H         1 UNK         0.0600 
    174 H174        1.7682  -12.9660  -42.5073 H         1 UNK         0.3000 
    175 H175        3.0569  -14.9632  -40.7986 H         1 UNK         0.0600 
    176 H176        2.8191  -16.9877  -43.0819 H         1 UNK         0.0600 
    177 H177        4.1906  -16.8674  -41.9853 H         1 UNK         0.0600 
    178 H178        2.6129  -17.3157  -41.3667 H         1 UNK         0.0600 
    179 H179        3.2858  -14.3795  -43.7178 H         1 UNK         0.3000 
    180 H180        5.4078  -11.6686  -43.0369 H         1 UNK         0.0600 
    181 H181        6.2724  -14.1912  -44.5549 H         1 UNK         0.0600 
    182 H182        7.1845  -13.4182  -43.2639 H         1 UNK         0.0600 
    183 H183        6.9305  -12.5696  -44.7800 H         1 UNK         0.0600 
    184 H184        4.5163  -12.7350  -45.5094 H         1 UNK         0.3000 
    185 H185        1.1376  -11.8743  -45.4519 H         1 UNK         0.0600 
    186 H186        3.3018  -10.2356  -46.8779 H         1 UNK         0.0600 
    187 H187        1.6034  -10.3396  -47.3403 H         1 UNK         0.0600 
    188 H188        2.0552   -9.5727  -45.8261 H         1 UNK         0.0600 
    189 H189        2.7472  -12.5405  -47.6654 H         1 UNK         0.3000 
    190 H190       -1.4190  -22.1497  -44.6772 H         1 UNK         0.3000 
    191 H191       -3.0444  -24.1190  -43.1041 H         1 UNK         0.0600 
    192 H192       -1.4150  -23.6907  -41.2630 H         1 UNK         0.0600 
    193 H193       -2.3198  -22.2419  -41.6703 H         1 UNK         0.0600 
    194 H194       -0.6524  -22.4202  -42.2130 H         1 UNK         0.0600 
    195 H195        0.2569  -23.2988  -44.2952 H         1 UNK         0.3000 
    196 H196        1.3682  -25.8135  -43.6606 H         1 UNK         0.0600 
    197 H197        2.4003  -23.6011  -45.5132 H         1 UNK         0.0600 
    198 H198        2.6428  -23.6821  -43.7694 H         1 UNK         0.0600 
    199 H199        3.3725  -24.8908  -44.8153 H         1 UNK         0.0600 
    200 H200       -0.1866  -24.7401  -46.6516 H         1 UNK         0.3000 
    201 H201        0.5318  -27.3165  -47.9978 H         1 UNK         0.0600 
    202 H202        0.0841  -24.5901  -49.3205 H         1 UNK         0.0600 
    203 H203        0.5507  -26.0872  -50.1119 H         1 UNK         0.0600 
    204 H204        1.6709  -25.2953  -49.0168 H         1 UNK         0.0600 
    205 H205       -1.7880  -26.2836  -46.2260 H         1 UNK         0.3000 
    206 H206       -3.9897  -26.4218  -46.0185 H         1 UNK         0.0600 
    207 H207       -3.4230  -28.8267  -46.4308 H         1 UNK         0.0600 
    208 H208       -5.0543  -28.4462  -46.9536 H         1 UNK         0.0600 
    209 H209       -3.7724  -28.6170  -48.1463 H         1 UNK         0.0600 
    210 H210       -3.1110  -24.4192  -47.9093 H         1 UNK         0.3000 
    211 H211       -3.9045  -22.8288  -49.2067 H         1 UNK         0.0600 
    212 H212       -6.2735  -22.3147  -49.3316 H         1 UNK         0.0600 
    213 H213       -5.9641  -22.9279  -47.7185 H         1 UNK         0.0600 
    214 H214       -6.7328  -23.9595  -48.9221 H         1 UNK         0.0600 
    215 H215       -2.9723  -25.3875  -50.3788 H         1 UNK         0.3000 
    216 H216       -4.2076  -25.7580  -52.9038 H         1 UNK         0.0600 
    217 H217       -1.2744  -26.0696  -52.0666 H         1 UNK         0.0600 
    218 H218       -1.9779  -26.7072  -53.5492 H         1 UNK         0.0600 
    219 H219       -2.5188  -27.3163  -51.9935 H         1 UNK         0.0600 
    220 H220       -1.9817  -23.2598  -51.7631 H         1 UNK         0.3000 
    221 H221       -1.3100  -22.0876  -54.2814 H         1 UNK         0.0600 
    222 H222       -0.0096  -21.6695  -52.2029 H         1 UNK         0.0600 
    223 H223       -1.3986  -20.8595  -51.4712 H         1 UNK         0.0600 
    224 H224       -0.5968  -20.1540  -52.8670 H         1 UNK         0.0600 
    225 H225       -4.1254  -21.7249  -52.1536 H         1 UNK         0.3000 
    226 H226       -5.0661  -19.2346  -53.2170 H         1 UNK         0.0600 
    227 H227       -6.5840  -21.3465  -51.6077 H         1 UNK         0.0600 
    228 H228       -5.5763  -20.0772  -50.9066 H         1 UNK         0.0600 
    229 H229       -7.0233  -19.6587  -51.8082 H         1 UNK         0.0600 
    230 H230       -5.0910  -22.3300  -54.6119 H         1 UNK         0.3000 
    231 H231       -7.4966  -22.0959  -56.2169 H         1 UNK         0.0600 
    232 H232       -4.9484  -23.7476  -56.6443 H         1 UNK         0.0600 
    233 H233       -6.4747  -23.9619  -57.4915 H         1 UNK         0.0600 
    234 H234       -6.3796  -24.2888  -55.7673 H         1 UNK         0.0600 
    235 H235       -4.2535  -20.7567  -56.3561 H         1 UNK         0.3000 
    236 H236       -4.7223  -19.6387  -59.0987 H         1 UNK         0.0600 
    237 H237       -2.7379  -21.1207  -58.9838 H         1 UNK         0.0600 
    238 H238       -2.2426  -19.4490  -59.2019 H         1 UNK         0.0600 
    239 H239       -2.0981  -20.2069  -57.6194 H         1 UNK         0.0600 
    240 H240       -3.4858  -18.9566  -55.7876 H         1 UNK         0.3000 
    241 H241       -3.1482  -16.1508  -56.2228 H         1 UNK         0.0600 
    242 H242       -6.3013  -14.7222  -55.4635 H         1 UNK         0.3800 
    243 H243       -4.7673  -14.5688  -56.2725 H         1 UNK         0.3800 
    244 H244       -3.3119  -17.5896  -53.5219 H         1 UNK         0.0800 
    245 H245       -1.9044  -17.6460  -54.5395 H         1 UNK         0.0800 
    246 H246       -4.1327  -15.4906  -52.2865 H         1 UNK         0.0800 
    247 H247       -2.9934  -14.2873  -51.7368 H         1 UNK         0.0800 
@<TRIPOS>BOND
     1    1    2 1    
     2    1  127 1    
     3    1  128 1    
     4    1  129 1    
     5    2    3 2    
     6    2    4 am   BACKBONE|DICT|INTERRES
     7    4    5 1    
     8    4  130 1    
     9    5    6 1    
    10    5   65 1    
    11    5  131 1    
    12    6    7 1    
    13    6  132 1    
    14    6  133 1    
    15    7    8 1    
    16    8    9 1    
    17    8  134 1    
    18    8  135 1    
    19    9   10 ar   
    20    9   14 ar   
    21   10   11 ar   
    22   10  136 1    
    23   11   12 ar   
    24   11  126 1    
    25   12   13 ar   
    26   12  137 1    
    27   13   14 ar   
    28   13   15 1    
    29   14  138 1    
    30   15   16 1    
    31   15  139 1    
    32   15  140 1    
    33   16   17 1    
    34   17   18 1    
    35   17  141 1    
    36   17  142 1    
    37   18   19 1    
    38   18   67 1    
    39   18  143 1    
    40   19   20 am   BACKBONE|DICT|INTERRES
    41   19  144 1    
    42   20   21 2    
    43   20   22 1    
    44   22   23 1    
    45   22   24 1    
    46   22  145 1    
    47   23  146 1    
    48   23  147 1    
    49   23  148 1    
    50   24   25 am   BACKBONE|DICT|INTERRES
    51   24  149 1    
    52   25   26 2    
    53   25   27 1    
    54   27   28 1    
    55   27   29 1    
    56   27  150 1    
    57   28  151 1    
    58   28  152 1    
    59   28  153 1    
    60   29   30 am   BACKBONE|DICT|INTERRES
    61   29  154 1    
    62   30   31 2    
    63   30   32 1    
    64   32   33 1    
    65   32   34 1    
    66   32  155 1    
    67   33  156 1    
    68   33  157 1    
    69   33  158 1    
    70   34   35 am   BACKBONE|DICT|INTERRES
    71   34  159 1    
    72   35   36 2    
    73   35   37 1    
    74   37   38 1    
    75   37   39 1    
    76   37  160 1    
    77   38  161 1    
    78   38  162 1    
    79   38  163 1    
    80   39   40 am   BACKBONE|DICT|INTERRES
    81   39  164 1    
    82   40   41 2    
    83   40   42 1    
    84   42   43 1    
    85   42   44 1    
    86   42  165 1    
    87   43  166 1    
    88   43  167 1    
    89   43  168 1    
    90   44   45 am   BACKBONE|DICT|INTERRES
    91   44  169 1    
    92   45   46 2    
    93   45   47 1    
    94   47   48 1    
    95   47   49 1    
    96   47  170 1    
    97   48  171 1    
    98   48  172 1    
    99   48  173 1    
   100   49   50 am   BACKBONE|DICT|INTERRES
   101   49  174 1    
   102   50   51 2    
   103   50   52 1    
   104   52   53 1    
   105   52   54 1    
   106   52  175 1    
   107   53  176 1    
   108   53  177 1    
   109   53  178 1    
   110   54   55 am   BACKBONE|DICT|INTERRES
   111   54  179 1    
   112   55   56 2    
   113   55   57 1    
   114   57   58 1    
   115   57   59 1    
   116   57  180 1    
   117   58  181 1    
   118   58  182 1    
   119   58  183 1    
   120   59   60 am   BACKBONE|DICT|INTERRES
   121   59  184 1    
   122   60   61 2    
   123   60   62 1    
   124   62   63 1    
   125   62   64 1    
   126   62  185 1    
   127   63  186 1    
   128   63  187 1    
   129   63  188 1    
   130   64   65 am   BACKBONE|DICT|INTERRES
   131   64  189 1    
   132   65   66 2    
   133   67   68 2    
   134   67   69 am   BACKBONE|DICT|INTERRES
   135   69   70 1    
   136   69  190 1    
   137   70   71 1    
   138   70   72 1    
   139   70  191 1    
   140   71  192 1    
   141   71  193 1    
   142   71  194 1    
   143   72   73 2    
   144   72   74 am   BACKBONE|DICT|INTERRES
   145   74   75 1    
   146   74  195 1    
   147   75   76 1    
   148   75   77 1    
   149   75  196 1    
   150   76  197 1    
   151   76  198 1    
   152   76  199 1    
   153   77   78 2    
   154   77   79 am   BACKBONE|DICT|INTERRES
   155   79   80 1    
   156   79  200 1    
   157   80   81 1    
   158   80   82 1    
   159   80  201 1    
   160   81  202 1    
   161   81  203 1    
   162   81  204 1    
   163   82   83 2    
   164   82   84 am   BACKBONE|DICT|INTERRES
   165   84   85 1    
   166   84  205 1    
   167   85   86 1    
   168   85   87 1    
   169   85  206 1    
   170   86  207 1    
   171   86  208 1    
   172   86  209 1    
   173   87   88 2    
   174   87   89 am   BACKBONE|DICT|INTERRES
   175   89   90 1    
   176   89  210 1    
   177   90   91 1    
   178   90   92 1    
   179   90  211 1    
   180   91  212 1    
   181   91  213 1    
   182   91  214 1    
   183   92   93 2    
   184   92   94 am   BACKBONE|DICT|INTERRES
   185   94   95 1    
   186   94  215 1    
   187   95   96 1    
   188   95   97 1    
   189   95  216 1    
   190   96  217 1    
   191   96  218 1    
   192   96  219 1    
   193   97   98 2    
   194   97   99 am   BACKBONE|DICT|INTERRES
   195   99  100 1    
   196   99  220 1    
   197  100  101 1    
   198  100  102 1    
   199  100  221 1    
   200  101  222 1    
   201  101  223 1    
   202  101  224 1    
   203  102  103 2    
   204  102  104 am   BACKBONE|DICT|INTERRES
   205  104  105 1    
   206  104  225 1    
   207  105  106 1    
   208  105  107 1    
   209  105  226 1    
   210  106  227 1    
   211  106  228 1    
   212  106  229 1    
   213  107  108 2    
   214  107  109 am   BACKBONE|DICT|INTERRES
   215  109  110 1    
   216  109  230 1    
   217  110  111 1    
   218  110  112 1    
   219  110  231 1    
   220  111  232 1    
   221  111  233 1    
   222  111  234 1    
   223  112  113 2    
   224  112  114 am   BACKBONE|DICT|INTERRES
   225  114  115 1    
   226  114  235 1    
   227  115  116 1    
   228  115  117 1    
   229  115  236 1    
   230  116  237 1    
   231  116  238 1    
   232  116  239 1    
   233  117  118 2    
   234  117  119 am   BACKBONE|DICT|INTERRES
   235  119  120 1    
   236  119  240 1    
   237  120  121 1    
   238  120  124 1    
   239  120  241 1    
   240  121  122 am   BACKBONE|DICT|INTERRES
   241  121  123 2    
   242  122  242 1    
   243  122  243 1    
   244  124  125 1    
   245  124  244 1    
   246  124  245 1    
   247  125  126 1    
   248  126  246 1    
   249  126  247 1    
@<TRIPOS>SUBSTRUCTURE
     1 UNK         1 GROUP             0       ****    0 ROOT    
