@<TRIPOS>MOLECULE
3R540
247   249    1
SMALL
USER_CHARGES


@<TRIPOS>ATOM
      1 CA         -4.5193  -11.2805  -44.2255 C.3       0 UNK        -0.1800 
      2 C          -3.1580  -11.8428  -44.6085 C.2       0 UNK         0.5000 
      3 O          -2.7186  -12.8302  -44.0192 O.2       0 UNK        -0.5000 
      4 N          -2.4910  -11.2125  -45.5850 N.am      1 UNK        -0.5000 
      5 CA         -1.1730  -11.5449  -46.1478 C.3       1 UNK         0.1400 
      6 C6         -1.0836  -12.9632  -46.7762 C.3       23 UNK        -0.0398 
      7 S7         -2.0867  -13.1003  -48.2928 S.3       23 UNK        -0.2404 
      8 C8         -0.7947  -13.1190  -49.5772 C.3       23 UNK        -0.0205 
      9 C9         -0.5241  -14.5226  -50.1038 C.ar      23 UNK        -0.0193 
     10 C10        -0.9166  -14.8602  -51.4018 C.ar      23 UNK        -0.1150 
     11 C11        -0.6321  -16.1223  -51.9281 C.ar      23 UNK        -0.0193 
     12 C12         0.0273  -17.0630  -51.1322 C.ar      23 UNK        -0.1150 
     13 C13         0.4103  -16.7522  -49.8235 C.ar      23 UNK        -0.0193 
     14 C14         0.1457  -15.4705  -49.3214 C.ar      23 UNK        -0.1150 
     15 C15         1.1517  -17.8037  -48.9996 C.3       23 UNK        -0.0205 
     16 S16         0.7045  -17.8476  -47.2324 S.3       23 UNK        -0.2404 
     17 C17        -1.0494  -18.3517  -47.2705 C.3       23 UNK        -0.0398 
     18 CA         -1.2892  -19.8646  -47.0184 C.3       11 UNK         0.1400 
     19 N          -0.5263  -20.4077  -45.8871 N.am      11 UNK        -0.5000 
     20 C          -0.4268  -21.7119  -45.5862 C.2       10 UNK         0.5000 
     21 O          -0.9304  -22.6076  -46.2628 O.2       10 UNK        -0.5000 
     22 CA          0.3080  -22.0767  -44.2825 C.3       10 UNK         0.1400 
     23 CB          1.8121  -22.2415  -44.5244 C.3       10 UNK        -0.1800 
     24 N           0.0842  -21.0858  -43.2304 N.am      10 UNK        -0.5000 
     25 C          -1.0907  -20.9300  -42.6016 C.2       9 UNK         0.5000 
     26 O          -2.0707  -21.6450  -42.8056 O.2       9 UNK        -0.5000 
     27 CA         -1.2154  -19.7442  -41.6296 C.3       9 UNK         0.1400 
     28 CB         -0.8179  -20.1704  -40.2101 C.3       9 UNK        -0.1800 
     29 N          -0.4285  -18.5848  -42.0610 N.am      9 UNK        -0.5000 
     30 C          -0.6980  -17.8896  -43.1776 C.2       8 UNK         0.5000 
     31 O          -1.6564  -18.1552  -43.9057 O.2       8 UNK        -0.5000 
     32 CA          0.2717  -16.7698  -43.6067 C.3       8 UNK         0.1400 
     33 CB         -0.4644  -15.5508  -44.1921 C.3       8 UNK        -0.1800 
     34 N           1.2532  -16.3810  -42.5938 N.am      8 UNK        -0.5000 
     35 C           1.0525  -15.7626  -41.4222 C.2       7 UNK         0.5000 
     36 O          -0.0338  -15.3180  -41.0506 O.2       7 UNK        -0.5000 
     37 CA          2.2944  -15.6652  -40.5066 C.3       7 UNK         0.1400 
     38 CB          1.9342  -15.4152  -39.0269 C.3       7 UNK        -0.1800 
     39 N           3.1858  -16.8304  -40.6461 N.am      7 UNK        -0.5000 
     40 C           2.8622  -18.1079  -40.3912 C.2       6 UNK         0.5000 
     41 O           1.7621  -18.4491  -39.9601 O.2       6 UNK        -0.5000 
     42 CA          3.9245  -19.1778  -40.7166 C.3       6 UNK         0.1400 
     43 CB          3.3904  -20.6185  -40.5633 C.3       6 UNK        -0.1800 
     44 N           4.5328  -19.0021  -42.0391 N.am      6 UNK        -0.5000 
     45 C           3.9285  -19.0184  -43.2354 C.2       5 UNK         0.5000 
     46 O           2.7084  -19.1240  -43.3880 O.2       5 UNK        -0.5000 
     47 CA          4.8659  -18.8632  -44.4564 C.3       5 UNK         0.1400 
     48 CB          4.1469  -19.0769  -45.7994 C.3       5 UNK        -0.1800 
     49 N           5.4886  -17.5428  -44.4940 N.am      5 UNK        -0.5000 
     50 C           6.4472  -17.0759  -43.6834 C.2       4 UNK         0.5000 
     51 O           7.0141  -17.7638  -42.8329 O.2       4 UNK        -0.5000 
     52 CA          6.8096  -15.5809  -43.8235 C.3       4 UNK         0.1400 
     53 CB          8.1565  -15.4204  -44.5448 C.3       4 UNK        -0.1800 
     54 N           5.7968  -14.7785  -44.5234 N.am      4 UNK        -0.5000 
     55 C           4.5366  -14.5946  -44.1067 C.2       3 UNK         0.5000 
     56 O           4.0828  -15.0918  -43.0749 O.2       3 UNK        -0.5000 
     57 CA          3.6199  -13.7981  -45.0513 C.3       3 UNK         0.1400 
     58 CB          3.1580  -14.6907  -46.2168 C.3       3 UNK        -0.1800 
     59 N           2.4295  -13.2802  -44.3827 N.am      3 UNK        -0.5000 
     60 C           2.3967  -12.3319  -43.4382 C.2       2 UNK         0.5000 
     61 O           3.4005  -11.7712  -42.9945 O.2       2 UNK        -0.5000 
     62 CA          0.9868  -11.9341  -42.9399 C.3       2 UNK         0.1400 
     63 CB          0.9689  -10.5780  -42.2061 C.3       2 UNK        -0.1800 
     64 N          -0.0307  -11.9562  -44.0021 N.am      2 UNK        -0.5000 
     65 C          -0.0122  -11.2854  -45.1642 C.2       1 UNK         0.5000 
     66 O           0.8755  -10.4949  -45.4864 O.2       1 UNK        -0.5000 
     67 C          -2.7965  -20.1352  -46.8338 C.2       11 UNK         0.5000 
     68 O          -3.4599  -20.5850  -47.7686 O.2       11 UNK        -0.5000 
     69 N          -3.2937  -19.8923  -45.6119 N.am      12 UNK        -0.5000 
     70 CA         -4.6703  -20.1573  -45.1966 C.3       12 UNK         0.1400 
     71 CB         -4.9126  -19.5374  -43.8123 C.3       12 UNK        -0.1800 
     72 C          -5.0194  -21.6572  -45.1947 C.2       12 UNK         0.5000 
     73 O          -6.1217  -22.0162  -45.6076 O.2       12 UNK        -0.5000 
     74 N          -4.0752  -22.5033  -44.7565 N.am      13 UNK        -0.5000 
     75 CA         -4.1971  -23.9626  -44.7713 C.3       13 UNK         0.1400 
     76 CB         -3.0586  -24.5888  -43.9522 C.3       13 UNK        -0.1800 
     77 C          -4.2240  -24.5427  -46.1972 C.2       13 UNK         0.5000 
     78 O          -5.0050  -25.4577  -46.4615 O.2       13 UNK        -0.5000 
     79 N          -3.3903  -23.9908  -47.0913 N.am      14 UNK        -0.5000 
     80 CA         -3.3771  -24.3101  -48.5200 C.3       14 UNK         0.1400 
     81 CB         -2.1316  -23.6871  -49.1701 C.3       14 UNK        -0.1800 
     82 C          -4.6580  -23.8414  -49.2351 C.2       14 UNK         0.5000 
     83 O          -5.1721  -24.5595  -50.0906 O.2       14 UNK        -0.5000 
     84 N          -5.1508  -22.6551  -48.8499 N.am      15 UNK        -0.5000 
     85 CA         -6.3626  -21.9949  -49.3412 C.3       15 UNK         0.1400 
     86 CB         -7.6268  -22.7718  -48.9190 C.3       15 UNK        -0.1800 
     87 C          -6.2979  -21.6811  -50.8501 C.2       15 UNK         0.5000 
     88 O          -7.2833  -21.8610  -51.5698 O.2       15 UNK        -0.5000 
     89 N          -5.1222  -21.2031  -51.2871 N.am      16 UNK        -0.5000 
     90 CA         -4.7906  -20.7557  -52.6414 C.3       16 UNK         0.1400 
     91 CB         -5.4765  -19.4009  -52.9290 C.3       16 UNK        -0.1800 
     92 C          -5.0742  -21.8411  -53.7010 C.2       16 UNK         0.5000 
     93 O          -4.3987  -22.8738  -53.7096 O.2       16 UNK        -0.5000 
     94 N          -6.0737  -21.5991  -54.5600 N.am      17 UNK        -0.5000 
     95 CA         -6.4754  -22.4442  -55.6845 C.3       17 UNK         0.1400 
     96 CB         -7.6136  -21.7501  -56.4466 C.3       17 UNK        -0.1800 
     97 C          -6.8806  -23.8800  -55.3006 C.2       17 UNK         0.5000 
     98 O          -6.7699  -24.7718  -56.1415 O.2       17 UNK        -0.5000 
     99 N          -7.2844  -24.1007  -54.0409 N.am      18 UNK        -0.5000 
    100 CA        -7.5771  -25.4241  -53.4825 C.3       18 UNK         0.1400 
    101 CB        -8.1955  -25.2551  -52.0891 C.3       18 UNK        -0.1800 
    102 C         -6.3461  -26.3553  -53.4234 C.2       18 UNK         0.5000 
    103 O         -6.5092  -27.5729  -53.5092 O.2       18 UNK        -0.5000 
    104 N         -5.1452  -25.7707  -53.3187 N.am      19 UNK        -0.5000 
    105 CA        -3.8544  -26.4598  -53.3896 C.3       19 UNK         0.1400 
    106 CB        -2.9858  -25.9878  -52.2122 C.3       19 UNK        -0.1800 
    107 C         -3.1389  -26.1949  -54.7303 C.2       19 UNK         0.5000 
    108 O         -1.9762  -26.5739  -54.8765 O.2       19 UNK        -0.5000 
    109 N         -3.8256  -25.5244  -55.6694 N.am      20 UNK        -0.5000 
    110 CA        -3.3282  -25.0121  -56.9517 C.3       20 UNK         0.1400 
    111 CB        -2.9252  -26.1674  -57.8918 C.3       20 UNK        -0.1800 
    112 C         -2.2215  -23.9428  -56.8011 C.2       20 UNK         0.5000 
    113 O         -1.4254  -23.7499  -57.7223 O.2       20 UNK        -0.5000 
    114 N         -2.1948  -23.2569  -55.6511 N.am      21 UNK        -0.5000 
    115 CA        -1.2955  -22.1449  -55.3594 C.3       21 UNK         0.1400 
    116 CB        -1.0032  -22.1319  -53.8489 C.3       21 UNK        -0.1800 
    117 C         -1.9139  -20.8127  -55.8204 C.2       21 UNK         0.5000 
    118 O         -3.1064  -20.7525  -56.1302 O.2       21 UNK        -0.5000 
    119 N         -1.0837  -19.7638  -55.8444 N.am      22 UNK        -0.5000 
    120 CA        -1.4433  -18.3823  -56.2199 C.3       22 UNK         0.1400 
    121 C         -1.7552  -18.1722  -57.7349 C.2       22 UNK         0.5000 
    122 N         -1.4431  -19.1152  -58.6156 N.am      22 UNK        -0.7600 
    123 O         -2.2562  -17.1224  -58.1291 O.2       22 UNK        -0.5000 
    124 C124       -2.5322  -17.7482  -55.3035 C.3       23 UNK        -0.0398 
    125 S125       -2.1471  -17.8353  -53.5197 S.3       23 UNK        -0.2404 
    126 C126       -0.9862  -16.4421  -53.3735 C.3       23 UNK        -0.0205 
    127 H127       -4.7826  -10.4090  -44.8254 H         1 UNK         0.0600 
    128 H128       -4.5207  -10.9848  -43.1764 H         1 UNK         0.0600 
    129 H129       -5.2904  -12.0374  -44.3686 H         1 UNK         0.0600 
    130 H130       -2.9209  -10.3972  -45.9993 H         1 UNK         0.3000 
    131 H131       -1.0260  -10.8288  -46.9586 H         1 UNK         0.0600 
    132 H132       -1.4327  -13.7230  -46.0799 H         1 UNK         0.0800 
    133 H133       -0.0498  -13.2266  -47.0040 H         1 UNK         0.0800 
    134 H134        0.1322  -12.6778  -49.2090 H         1 UNK         0.0800 
    135 H135       -1.1226  -12.4697  -50.3904 H         1 UNK         0.0800 
    136 H136       -1.4217  -14.1270  -52.0150 H         1 UNK         0.1150 
    137 H137        0.2516  -18.0378  -51.5425 H         1 UNK         0.1150 
    138 H138        0.4612  -15.2096  -48.3219 H         1 UNK         0.1150 
    139 H139        2.2215  -17.6074  -49.0781 H         1 UNK         0.0800 
    140 H140        0.9902  -18.7995  -49.4155 H         1 UNK         0.0800 
    141 H141       -1.4881  -18.0593  -48.2259 H         1 UNK         0.0800 
    142 H142       -1.5620  -17.7493  -46.5197 H         1 UNK         0.0800 
    143 H143       -0.9654  -20.4032  -47.9116 H         1 UNK         0.0600 
    144 H144       -0.0947  -19.7324  -45.2749 H         1 UNK         0.3000 
    145 H145       -0.0805  -23.0366  -43.9367 H         1 UNK         0.0600 
    146 H146        2.0068  -23.0117  -45.2716 H         1 UNK         0.0600 
    147 H147        2.3324  -22.5300  -43.6108 H         1 UNK         0.0600 
    148 H148        2.2531  -21.3152  -44.8835 H         1 UNK         0.0600 
    149 H149        0.8407  -20.4406  -43.0361 H         1 UNK         0.3000 
    150 H150       -2.2646  -19.4426  -41.6056 H         1 UNK         0.0600 
    151 H151        0.2010  -20.5567  -40.1751 H         1 UNK         0.0600 
    152 H152       -1.4764  -20.9589  -39.8441 H         1 UNK         0.0600 
    153 H153       -0.8883  -19.3367  -39.5112 H         1 UNK         0.0600 
    154 H154        0.3779  -18.3430  -41.4953 H         1 UNK         0.3000 
    155 H155        0.8637  -17.2041  -44.4114 H         1 UNK         0.0600 
    156 H156       -1.0773  -15.0444  -43.4468 H         1 UNK         0.0600 
    157 H157       -1.1267  -15.8466  -45.0058 H         1 UNK         0.0600 
    158 H158        0.2375  -14.8318  -44.6046 H         1 UNK         0.0600 
    159 H159        2.1955  -16.7026  -42.7732 H         1 UNK         0.3000 
    160 H160        2.8569  -14.7956  -40.8466 H         1 UNK         0.0600 
    161 H161        1.2948  -16.2008  -38.6236 H         1 UNK         0.0600 
    162 H162        1.4011  -14.4710  -38.9104 H         1 UNK         0.0600 
    163 H163        2.8293  -15.3594  -38.4075 H         1 UNK         0.0600 
    164 H164        4.0884  -16.6346  -41.0578 H         1 UNK         0.3000 
    165 H165        4.7244  -19.0433  -39.9872 H         1 UNK         0.0600 
    166 H166        3.0285  -20.7964  -39.5500 H         1 UNK         0.0600 
    167 H167        2.5640  -20.8211  -41.2452 H         1 UNK         0.0600 
    168 H168        4.1727  -21.3514  -40.7602 H         1 UNK         0.0600 
    169 H169        5.5330  -18.8245  -42.0419 H         1 UNK         0.3000 
    170 H170        5.6521  -19.6160  -44.3708 H         1 UNK         0.0600 
    171 H171        4.8210  -18.9094  -46.6396 H         1 UNK         0.0600 
    172 H172        3.7784  -20.0963  -45.8923 H         1 UNK         0.0600 
    173 H173        3.2993  -18.4012  -45.9143 H         1 UNK         0.0600 
    174 H174        5.0819  -16.8873  -45.1432 H         1 UNK         0.3000 
    175 H175        6.9111  -15.1793  -42.8133 H         1 UNK         0.0600 
    176 H176        8.9431  -15.9779  -44.0345 H         1 UNK         0.0600 
    177 H177        8.1087  -15.7857  -45.5715 H         1 UNK         0.0600 
    178 H178        8.4679  -14.3761  -44.5728 H         1 UNK         0.0600 
    179 H179        6.0907  -14.3522  -45.3906 H         1 UNK         0.3000 
    180 H180        4.1824  -12.9510  -45.4492 H         1 UNK         0.0600 
    181 H181        2.5908  -15.5536  -45.8640 H         1 UNK         0.0600 
    182 H182        4.0063  -15.0690  -46.7884 H         1 UNK         0.0600 
    183 H183        2.5262  -14.1379  -46.9123 H         1 UNK         0.0600 
    184 H184        1.5530  -13.6907  -44.6595 H         1 UNK         0.3000 
    185 H185        0.6931  -12.7003  -42.2212 H         1 UNK         0.0600 
    186 H186        1.6269  -10.5940  -41.3365 H         1 UNK         0.0600 
    187 H187        1.2992   -9.7641  -42.8522 H         1 UNK         0.0600 
    188 H188       -0.0324  -10.3372  -41.8489 H         1 UNK         0.0600 
    189 H189       -0.8547  -12.5254  -43.8208 H         1 UNK         0.3000 
    190 H190       -2.6834  -19.4732  -44.9157 H         1 UNK         0.3000 
    191 H191       -5.3329  -19.6636  -45.9105 H         1 UNK         0.0600 
    192 H192       -4.7151  -18.4652  -43.8201 H         1 UNK         0.0600 
    193 H193       -5.9477  -19.6767  -43.4983 H         1 UNK         0.0600 
    194 H194       -4.2753  -19.9885  -43.0516 H         1 UNK         0.0600 
    195 H195       -3.2268  -22.1225  -44.3499 H         1 UNK         0.3000 
    196 H196       -5.1415  -24.2236  -44.2891 H         1 UNK         0.0600 
    197 H197       -3.1486  -25.6754  -43.9266 H         1 UNK         0.0600 
    198 H198       -3.0747  -24.2374  -42.9205 H         1 UNK         0.0600 
    199 H199       -2.0820  -24.3508  -44.3734 H         1 UNK         0.0600 
    200 H200       -2.7226  -23.2942  -46.7754 H         1 UNK         0.3000 
    201 H201       -3.3122  -25.3948  -48.6273 H         1 UNK         0.0600 
    202 H202       -2.0949  -23.9000  -50.2380 H         1 UNK         0.0600 
    203 H203       -1.2179  -24.0848  -48.7281 H         1 UNK         0.0600 
    204 H204       -2.1131  -22.6035  -49.0526 H         1 UNK         0.0600 
    205 H205       -4.6044  -22.1112  -48.1887 H         1 UNK         0.3000 
    206 H206       -6.3990  -21.0269  -48.8394 H         1 UNK         0.0600 
    207 H207       -7.6689  -22.8865  -47.8359 H         1 UNK         0.0600 
    208 H208       -8.5322  -22.2459  -49.2236 H         1 UNK         0.0600 
    209 H209       -7.6623  -23.7679  -49.3571 H         1 UNK         0.0600 
    210 H210       -4.3738  -21.1368  -50.6115 H         1 UNK         0.3000 
    211 H211       -3.7140  -20.5846  -52.6610 H         1 UNK         0.0600 
    212 H212       -5.1450  -18.6428  -52.2193 H         1 UNK         0.0600 
    213 H213       -5.2238  -19.0340  -53.9243 H         1 UNK         0.0600 
    214 H214       -6.5631  -19.4616  -52.8594 H         1 UNK         0.0600 
    215 H215       -6.5895  -20.7391  -54.4466 H         1 UNK         0.3000 
    216 H216       -5.6141  -22.5201  -56.3514 H         1 UNK         0.0600 
    217 H217       -8.4922  -21.6100  -55.8155 H         1 UNK         0.0600 
    218 H218       -7.9210  -22.3380  -57.3125 H         1 UNK         0.0600 
    219 H219       -7.3032  -20.7719  -56.8145 H         1 UNK         0.0600 
    220 H220       -7.3251  -23.3171  -53.4000 H         1 UNK         0.3000 
    221 H221       -8.3179  -25.9011  -54.1274 H         1 UNK         0.0600 
    222 H222       -7.4960  -24.7732  -51.4078 H         1 UNK         0.0600 
    223 H223       -9.1007  -24.6489  -52.1258 H         1 UNK         0.0600 
    224 H224       -8.4636  -26.2202  -51.6577 H         1 UNK         0.0600 
    225 H225       -5.0977  -24.7588  -53.2515 H         1 UNK         0.3000 
    226 H226       -3.9878  -27.5398  -53.3045 H         1 UNK         0.0600 
    227 H227       -3.4532  -26.2323  -51.2591 H         1 UNK         0.0600 
    228 H228       -2.0064  -26.4674  -52.2193 H         1 UNK         0.0600 
    229 H229       -2.8270  -24.9094  -52.2463 H         1 UNK         0.0600 
    230 H230       -4.7920  -25.3013  -55.4673 H         1 UNK         0.3000 
    231 H231       -4.1723  -24.4987  -57.4137 H         1 UNK         0.0600 
    232 H232       -2.0305  -26.6831  -57.5425 H         1 UNK         0.0600 
    233 H233       -2.7165  -25.7989  -58.8968 H         1 UNK         0.0600 
    234 H234       -3.7254  -26.9025  -57.9780 H         1 UNK         0.0600 
    235 H235       -2.9382  -23.4061  -54.9769 H         1 UNK         0.3000 
    236 H236       -0.3520  -22.2873  -55.8905 H         1 UNK         0.0600 
    237 H237       -1.9068  -21.9837  -53.2596 H         1 UNK         0.0600 
    238 H238       -0.5521  -23.0717  -53.5300 H         1 UNK         0.0600 
    239 H239       -0.3078  -21.3341  -53.5860 H         1 UNK         0.0600 
    240 H240       -0.1185  -19.9014  -55.5813 H         1 UNK         0.3000 
    241 H241       -0.5302  -17.8078  -56.0639 H         1 UNK         0.0600 
    242 H242       -1.6375  -18.9647  -59.5932 H         1 UNK         0.3800 
    243 H243       -1.0266  -19.9817  -58.3150 H         1 UNK         0.3800 
    244 H244       -3.4932  -18.2364  -55.4665 H         1 UNK         0.0800 
    245 H245       -2.6910  -16.7006  -55.5640 H         1 UNK         0.0800 
    246 H246       -0.0699  -16.6781  -53.9156 H         1 UNK         0.0800 
    247 H247       -1.4166  -15.5659  -53.8607 H         1 UNK         0.0800 
@<TRIPOS>BOND
     1    1    2 1    
     2    1  127 1    
     3    1  128 1    
     4    1  129 1    
     5    2    3 2    
     6    2    4 am   BACKBONE|DICT|INTERRES
     7    4    5 1    
     8    4  130 1    
     9    5    6 1    
    10    5   65 1    
    11    5  131 1    
    12    6    7 1    
    13    6  132 1    
    14    6  133 1    
    15    7    8 1    
    16    8    9 1    
    17    8  134 1    
    18    8  135 1    
    19    9   10 ar   
    20    9   14 ar   
    21   10   11 ar   
    22   10  136 1    
    23   11   12 ar   
    24   11  126 1    
    25   12   13 ar   
    26   12  137 1    
    27   13   14 ar   
    28   13   15 1    
    29   14  138 1    
    30   15   16 1    
    31   15  139 1    
    32   15  140 1    
    33   16   17 1    
    34   17   18 1    
    35   17  141 1    
    36   17  142 1    
    37   18   19 1    
    38   18   67 1    
    39   18  143 1    
    40   19   20 am   BACKBONE|DICT|INTERRES
    41   19  144 1    
    42   20   21 2    
    43   20   22 1    
    44   22   23 1    
    45   22   24 1    
    46   22  145 1    
    47   23  146 1    
    48   23  147 1    
    49   23  148 1    
    50   24   25 am   BACKBONE|DICT|INTERRES
    51   24  149 1    
    52   25   26 2    
    53   25   27 1    
    54   27   28 1    
    55   27   29 1    
    56   27  150 1    
    57   28  151 1    
    58   28  152 1    
    59   28  153 1    
    60   29   30 am   BACKBONE|DICT|INTERRES
    61   29  154 1    
    62   30   31 2    
    63   30   32 1    
    64   32   33 1    
    65   32   34 1    
    66   32  155 1    
    67   33  156 1    
    68   33  157 1    
    69   33  158 1    
    70   34   35 am   BACKBONE|DICT|INTERRES
    71   34  159 1    
    72   35   36 2    
    73   35   37 1    
    74   37   38 1    
    75   37   39 1    
    76   37  160 1    
    77   38  161 1    
    78   38  162 1    
    79   38  163 1    
    80   39   40 am   BACKBONE|DICT|INTERRES
    81   39  164 1    
    82   40   41 2    
    83   40   42 1    
    84   42   43 1    
    85   42   44 1    
    86   42  165 1    
    87   43  166 1    
    88   43  167 1    
    89   43  168 1    
    90   44   45 am   BACKBONE|DICT|INTERRES
    91   44  169 1    
    92   45   46 2    
    93   45   47 1    
    94   47   48 1    
    95   47   49 1    
    96   47  170 1    
    97   48  171 1    
    98   48  172 1    
    99   48  173 1    
   100   49   50 am   BACKBONE|DICT|INTERRES
   101   49  174 1    
   102   50   51 2    
   103   50   52 1    
   104   52   53 1    
   105   52   54 1    
   106   52  175 1    
   107   53  176 1    
   108   53  177 1    
   109   53  178 1    
   110   54   55 am   BACKBONE|DICT|INTERRES
   111   54  179 1    
   112   55   56 2    
   113   55   57 1    
   114   57   58 1    
   115   57   59 1    
   116   57  180 1    
   117   58  181 1    
   118   58  182 1    
   119   58  183 1    
   120   59   60 am   BACKBONE|DICT|INTERRES
   121   59  184 1    
   122   60   61 2    
   123   60   62 1    
   124   62   63 1    
   125   62   64 1    
   126   62  185 1    
   127   63  186 1    
   128   63  187 1    
   129   63  188 1    
   130   64   65 am   BACKBONE|DICT|INTERRES
   131   64  189 1    
   132   65   66 2    
   133   67   68 2    
   134   67   69 am   BACKBONE|DICT|INTERRES
   135   69   70 1    
   136   69  190 1    
   137   70   71 1    
   138   70   72 1    
   139   70  191 1    
   140   71  192 1    
   141   71  193 1    
   142   71  194 1    
   143   72   73 2    
   144   72   74 am   BACKBONE|DICT|INTERRES
   145   74   75 1    
   146   74  195 1    
   147   75   76 1    
   148   75   77 1    
   149   75  196 1    
   150   76  197 1    
   151   76  198 1    
   152   76  199 1    
   153   77   78 2    
   154   77   79 am   BACKBONE|DICT|INTERRES
   155   79   80 1    
   156   79  200 1    
   157   80   81 1    
   158   80   82 1    
   159   80  201 1    
   160   81  202 1    
   161   81  203 1    
   162   81  204 1    
   163   82   83 2    
   164   82   84 am   BACKBONE|DICT|INTERRES
   165   84   85 1    
   166   84  205 1    
   167   85   86 1    
   168   85   87 1    
   169   85  206 1    
   170   86  207 1    
   171   86  208 1    
   172   86  209 1    
   173   87   88 2    
   174   87   89 am   BACKBONE|DICT|INTERRES
   175   89   90 1    
   176   89  210 1    
   177   90   91 1    
   178   90   92 1    
   179   90  211 1    
   180   91  212 1    
   181   91  213 1    
   182   91  214 1    
   183   92   93 2    
   184   92   94 am   BACKBONE|DICT|INTERRES
   185   94   95 1    
   186   94  215 1    
   187   95   96 1    
   188   95   97 1    
   189   95  216 1    
   190   96  217 1    
   191   96  218 1    
   192   96  219 1    
   193   97   98 2    
   194   97   99 am   BACKBONE|DICT|INTERRES
   195   99  100 1    
   196   99  220 1    
   197  100  101 1    
   198  100  102 1    
   199  100  221 1    
   200  101  222 1    
   201  101  223 1    
   202  101  224 1    
   203  102  103 2    
   204  102  104 am   BACKBONE|DICT|INTERRES
   205  104  105 1    
   206  104  225 1    
   207  105  106 1    
   208  105  107 1    
   209  105  226 1    
   210  106  227 1    
   211  106  228 1    
   212  106  229 1    
   213  107  108 2    
   214  107  109 am   BACKBONE|DICT|INTERRES
   215  109  110 1    
   216  109  230 1    
   217  110  111 1    
   218  110  112 1    
   219  110  231 1    
   220  111  232 1    
   221  111  233 1    
   222  111  234 1    
   223  112  113 2    
   224  112  114 am   BACKBONE|DICT|INTERRES
   225  114  115 1    
   226  114  235 1    
   227  115  116 1    
   228  115  117 1    
   229  115  236 1    
   230  116  237 1    
   231  116  238 1    
   232  116  239 1    
   233  117  118 2    
   234  117  119 am   BACKBONE|DICT|INTERRES
   235  119  120 1    
   236  119  240 1    
   237  120  121 1    
   238  120  124 1    
   239  120  241 1    
   240  121  122 am   BACKBONE|DICT|INTERRES
   241  121  123 2    
   242  122  242 1    
   243  122  243 1    
   244  124  125 1    
   245  124  244 1    
   246  124  245 1    
   247  125  126 1    
   248  126  246 1    
   249  126  247 1    
@<TRIPOS>SUBSTRUCTURE
     1 UNK         1 GROUP             0       ****    0 ROOT    
