@<TRIPOS>MOLECULE
3R540
247   249    1
SMALL
USER_CHARGES


@<TRIPOS>ATOM
      1 CA         -0.4957  -14.8421  -44.3131 C.3       0 UNK        -0.1800 
      2 C          -0.5955  -14.1326  -45.6540 C.2       0 UNK         0.5000 
      3 O           0.1937  -14.4100  -46.5532 O.2       0 UNK        -0.5000 
      4 N          -1.5391  -13.1879  -45.7820 N.am      1 UNK        -0.5000 
      5 CA         -1.8451  -12.4163  -47.0032 C.3       1 UNK         0.1400 
      6 C6         -2.3843  -13.2921  -48.1690 C.3       23 UNK        -0.0398 
      7 S7         -3.7706  -14.3747  -47.6758 S.3       23 UNK        -0.2404 
      8 C8         -3.7737  -15.6057  -49.0216 C.3       23 UNK        -0.0205 
      9 C9         -2.4449  -16.3373  -49.1893 C.ar      23 UNK        -0.0193 
     10 C10        -1.8340  -16.3843  -50.4450 C.ar      23 UNK        -0.1150 
     11 C11        -0.6239  -17.0591  -50.6233 C.ar      23 UNK        -0.0193 
     12 C12        -0.0165  -17.6759  -49.5278 C.ar      23 UNK        -0.1150 
     13 C13        -0.5996  -17.6273  -48.2592 C.ar      23 UNK        -0.0193 
     14 C14        -1.8224  -16.9594  -48.1015 C.ar      23 UNK        -0.1150 
     15 C15         0.1536  -18.2759  -47.0963 C.3       23 UNK        -0.0205 
     16 S16        -0.8275  -18.6298  -45.6030 S.3       23 UNK        -0.2404 
     17 C17        -2.0007  -19.8794  -46.2006 C.3       23 UNK        -0.0398 
     18 CA         -1.5989  -21.3245  -45.8295 C.3       11 UNK         0.1400 
     19 N          -1.5213  -21.5459  -44.3741 N.am      11 UNK        -0.5000 
     20 C          -1.2162  -22.7045  -43.7647 C.2       10 UNK         0.5000 
     21 O          -0.9732  -23.7478  -44.3733 O.2       10 UNK        -0.5000 
     22 CA         -1.2268  -22.7372  -42.2270 C.3       10 UNK         0.1400 
     23 CB          0.1981  -22.6572  -41.6600 C.3       10 UNK        -0.1800 
     24 N          -2.0328  -21.6643  -41.6476 N.am      10 UNK        -0.5000 
     25 C          -3.3218  -21.7754  -41.3025 C.2       9 UNK         0.5000 
     26 O          -3.9818  -22.8040  -41.4536 O.2       9 UNK        -0.5000 
     27 CA         -3.9907  -20.5362  -40.6735 C.3       9 UNK         0.1400 
     28 CB         -3.9342  -20.6200  -39.1405 C.3       9 UNK        -0.1800 
     29 N          -3.3946  -19.2689  -41.1000 N.am      9 UNK        -0.5000 
     30 C          -3.5305  -18.7441  -42.3244 C.2       8 UNK         0.5000 
     31 O          -4.1921  -19.2666  -43.2219 O.2       8 UNK        -0.5000 
     32 CA         -2.7839  -17.4242  -42.6026 C.3       8 UNK         0.1400 
     33 CB         -3.6585  -16.2276  -42.1975 C.3       8 UNK        -0.1800 
     34 N          -1.4584  -17.2827  -41.9795 N.am      8 UNK        -0.5000 
     35 C          -0.4582  -18.1743  -42.0277 C.2       7 UNK         0.5000 
     36 O          -0.5902  -19.3376  -42.4142 O.2       7 UNK        -0.5000 
     37 CA          0.9207  -17.7001  -41.5337 C.3       7 UNK         0.1400 
     38 CB          1.0550  -17.9354  -40.0217 C.3       7 UNK        -0.1800 
     39 N           1.9769  -18.4406  -42.2247 N.am      7 UNK        -0.5000 
     40 C           2.3805  -18.1923  -43.4775 C.2       6 UNK         0.5000 
     41 O           2.0950  -17.1707  -44.1059 O.2       6 UNK        -0.5000 
     42 CA          3.2226  -19.2918  -44.1428 C.3       6 UNK         0.1400 
     43 CB          2.3710  -20.5612  -44.3614 C.3       6 UNK        -0.1800 
     44 N           3.7446  -18.8096  -45.4200 N.am      6 UNK        -0.5000 
     45 C           4.6173  -19.4608  -46.1985 C.2       5 UNK         0.5000 
     46 O           5.1537  -20.5254  -45.8886 O.2       5 UNK        -0.5000 
     47 CA          4.9467  -18.8262  -47.5619 C.3       5 UNK         0.1400 
     48 CB          3.8159  -19.0956  -48.5685 C.3       5 UNK        -0.1800 
     49 N           5.2120  -17.3880  -47.5147 N.am      5 UNK        -0.5000 
     50 C           6.2108  -16.7966  -46.8426 C.2       4 UNK         0.5000 
     51 O           6.9860  -17.4009  -46.1004 O.2       4 UNK        -0.5000 
     52 CA          6.4140  -15.2828  -47.0676 C.3       4 UNK         0.1400 
     53 CB          7.7614  -15.0167  -47.7595 C.3       4 UNK        -0.1800 
     54 N           5.3522  -14.6724  -47.8739 N.am      4 UNK        -0.5000 
     55 C           4.1921  -14.2263  -47.3807 C.2       3 UNK         0.5000 
     56 O           3.8994  -14.2684  -46.1834 O.2       3 UNK        -0.5000 
     57 CA          3.1884  -13.6768  -48.4093 C.3       3 UNK         0.1400 
     58 CB          2.3674  -14.8228  -49.0268 C.3       3 UNK        -0.1800 
     59 N           2.2838  -12.7229  -47.7727 N.am      3 UNK        -0.5000 
     60 C           2.5557  -11.4217  -47.5931 C.2       2 UNK         0.5000 
     61 O           3.5670  -10.8803  -48.0445 O.2       2 UNK        -0.5000 
     62 CA          1.5640  -10.5832  -46.7509 C.3       2 UNK         0.1400 
     63 CB          1.4024   -9.1428  -47.2815 C.3       2 UNK        -0.1800 
     64 N           0.2608  -11.2256  -46.5459 N.am      2 UNK        -0.5000 
     65 C          -0.6658  -11.5247  -47.4700 C.2       1 UNK         0.5000 
     66 O          -0.6030  -11.1551  -48.6436 O.2       1 UNK        -0.5000 
     67 C          -2.5465  -22.2981  -46.5591 C.2       11 UNK         0.5000 
     68 O          -2.3116  -22.6033  -47.7287 O.2       11 UNK        -0.5000 
     69 N          -3.5782  -22.7901  -45.8591 N.am      12 UNK        -0.5000 
     70 CA         -4.5095  -23.8050  -46.3487 C.3       12 UNK         0.1400 
     71 CB         -5.5667  -24.0843  -45.2713 C.3       12 UNK        -0.1800 
     72 C          -3.8125  -25.1103  -46.7814 C.2       12 UNK         0.5000 
     73 O          -4.2162  -25.7052  -47.7804 O.2       12 UNK        -0.5000 
     74 N          -2.7542  -25.4964  -46.0588 N.am      13 UNK        -0.5000 
     75 CA         -1.8974  -26.6282  -46.3956 C.3       13 UNK         0.1400 
     76 CB         -1.5014  -27.3637  -45.1051 C.3       13 UNK        -0.1800 
     77 C          -0.6496  -26.1577  -47.1588 C.2       13 UNK         0.5000 
     78 O          -0.3398  -26.7074  -48.2157 O.2       13 UNK        -0.5000 
     79 N           0.0429  -25.1495  -46.6106 N.am      14 UNK        -0.5000 
     80 CA          1.3638  -24.6993  -47.0542 C.3       14 UNK         0.1400 
     81 CB          1.9453  -23.7477  -45.9996 C.3       14 UNK        -0.1800 
     82 C           1.3857  -24.0351  -48.4418 C.2       14 UNK         0.5000 
     83 O           2.3978  -24.1373  -49.1359 O.2       14 UNK        -0.5000 
     84 N           0.2842  -23.3767  -48.8208 N.am      15 UNK        -0.5000 
     85 CA          0.1157  -22.7001  -50.1071 C.3       15 UNK         0.1400 
     86 CB         -0.0714  -21.1916  -49.8619 C.3       15 UNK        -0.1800 
     87 C          -1.0294  -23.3186  -50.9328 C.2       15 UNK         0.5000 
     88 O          -1.4380  -22.7151  -51.9226 O.2       15 UNK        -0.5000 
     89 N          -1.4976  -24.5151  -50.5345 N.am      16 UNK        -0.5000 
     90 CA         -2.5047  -25.3548  -51.1955 C.3       16 UNK         0.1400 
     91 CB         -1.9385  -25.9291  -52.5106 C.3       16 UNK        -0.1800 
     92 C          -3.8476  -24.6250  -51.3996 C.2       16 UNK         0.5000 
     93 O          -4.1707  -24.2138  -52.5136 O.2       16 UNK        -0.5000 
     94 N          -4.5936  -24.4633  -50.2994 N.am      17 UNK        -0.5000 
     95 CA         -5.8606  -23.7294  -50.1901 C.3       17 UNK         0.1400 
     96 CB         -6.9572  -24.3386  -51.0893 C.3       17 UNK        -0.1800 
     97 C          -5.7056  -22.1999  -50.3456 C.2       17 UNK         0.5000 
     98 O          -6.6844  -21.5115  -50.6422 O.2       17 UNK        -0.5000 
     99 N          -4.4903  -21.6933  -50.0832 N.am      18 UNK        -0.5000 
    100 CA        -4.1125  -20.2814  -49.9918 C.3       18 UNK         0.1400 
    101 CB        -4.6701  -19.6988  -48.6723 C.3       18 UNK        -0.1800 
    102 C         -4.5081  -19.4742  -51.2478 C.2       18 UNK         0.5000 
    103 O         -4.0050  -19.7501  -52.3388 O.2       18 UNK        -0.5000 
    104 N         -5.4270  -18.5132  -51.0796 N.am      19 UNK        -0.5000 
    105 CA        -5.9608  -17.6280  -52.1148 C.3       19 UNK         0.1400 
    106 CB        -6.9472  -16.6458  -51.4662 C.3       19 UNK        -0.1800 
    107 C         -6.6238  -18.3500  -53.3040 C.2       19 UNK         0.5000 
    108 O         -6.6708  -17.7769  -54.3922 O.2       19 UNK        -0.5000 
    109 N         -7.0915  -19.5919  -53.1074 N.am      20 UNK        -0.5000 
    110 CA        -7.6488  -20.4271  -54.1741 C.3       20 UNK         0.1400 
    111 CB        -8.3264  -21.6594  -53.5607 C.3       20 UNK        -0.1800 
    112 C         -6.6005  -20.8493  -55.2241 C.2       20 UNK         0.5000 
    113 O         -6.9645  -21.0520  -56.3833 O.2       20 UNK        -0.5000 
    114 N         -5.3291  -20.9537  -54.8129 N.am      21 UNK        -0.5000 
    115 CA        -4.1940  -21.2037  -55.6987 C.3       21 UNK         0.1400 
    116 CB        -3.2169  -22.1754  -55.0225 C.3       21 UNK        -0.1800 
    117 C         -3.4826  -19.8924  -56.0645 C.2       21 UNK         0.5000 
    118 O         -3.1362  -19.6993  -57.2309 O.2       21 UNK        -0.5000 
    119 N         -3.2702  -19.0218  -55.0690 N.am      22 UNK        -0.5000 
    120 CA        -2.5521  -17.7467  -55.2229 C.3       22 UNK         0.1400 
    121 C         -3.3212  -16.6437  -56.0067 C.2       22 UNK         0.5000 
    122 N         -4.6431  -16.6823  -56.1098 N.am      22 UNK        -0.7600 
    123 O         -2.6983  -15.7321  -56.5442 O.2       22 UNK        -0.5000 
    124 C124       -2.0575  -17.2075  -53.8594 C.3       23 UNK        -0.0398 
    125 S125       -0.7796  -18.2757  -53.1127 S.3       23 UNK        -0.2404 
    126 C126        0.0469  -17.1057  -51.9882 C.3       23 UNK        -0.0205 
    127 H127       -1.1979  -14.4379  -43.5847 H         1 UNK         0.0600 
    128 H128        0.5120  -14.7412  -43.9100 H         1 UNK         0.0600 
    129 H129       -0.7022  -15.9032  -44.4417 H         1 UNK         0.0600 
    130 H130       -2.1495  -13.0003  -44.9991 H         1 UNK         0.3000 
    131 H131       -2.6400  -11.7237  -46.7232 H         1 UNK         0.0600 
    132 H132       -1.5749  -13.9010  -48.5737 H         1 UNK         0.0800 
    133 H133       -2.7334  -12.6654  -48.9912 H         1 UNK         0.0800 
    134 H134       -4.0557  -15.1019  -49.9474 H         1 UNK         0.0800 
    135 H135       -4.5566  -16.3370  -48.8218 H         1 UNK         0.0800 
    136 H136       -2.2992  -15.8914  -51.2855 H         1 UNK         0.1150 
    137 H137        0.9264  -18.1859  -49.6623 H         1 UNK         0.1150 
    138 H138       -2.2884  -16.8961  -47.1295 H         1 UNK         0.1150 
    139 H139        0.6173  -19.2064  -47.4255 H         1 UNK         0.0800 
    140 H140        0.9659  -17.6072  -46.8081 H         1 UNK         0.0800 
    141 H141       -2.0889  -19.7711  -47.2825 H         1 UNK         0.0800 
    142 H142       -2.9823  -19.6378  -45.7887 H         1 UNK         0.0800 
    143 H143       -0.6003  -21.5067  -46.2298 H         1 UNK         0.0600 
    144 H144       -1.6360  -20.7229  -43.7949 H         1 UNK         0.3000 
    145 H145       -1.6394  -23.7058  -41.9368 H         1 UNK         0.0600 
    146 H146        0.2067  -22.9062  -40.5988 H         1 UNK         0.0600 
    147 H147        0.8673  -23.3568  -42.1631 H         1 UNK         0.0600 
    148 H148        0.6190  -21.6587  -41.7638 H         1 UNK         0.0600 
    149 H149       -1.5791  -20.7581  -41.5790 H         1 UNK         0.3000 
    150 H150       -5.0402  -20.5401  -40.9758 H         1 UNK         0.0600 
    151 H151       -4.3951  -21.5414  -38.7821 H         1 UNK         0.0600 
    152 H152       -4.4700  -19.7899  -38.6797 H         1 UNK         0.0600 
    153 H153       -2.9069  -20.6027  -38.7742 H         1 UNK         0.0600 
    154 H154       -2.8207  -18.7814  -40.4278 H         1 UNK         0.3000 
    155 H155       -2.6340  -17.3704  -43.6816 H         1 UNK         0.0600 
    156 H156       -3.8017  -16.1827  -41.1172 H         1 UNK         0.0600 
    157 H157       -4.6458  -16.2905  -42.6573 H         1 UNK         0.0600 
    158 H158       -3.2162  -15.2845  -42.5172 H         1 UNK         0.0600 
    159 H159       -1.2592  -16.3718  -41.5933 H         1 UNK         0.3000 
    160 H160        1.0302  -16.6336  -41.7415 H         1 UNK         0.0600 
    161 H161        0.9372  -18.9893  -39.7653 H         1 UNK         0.0600 
    162 H162        0.2984  -17.3767  -39.4694 H         1 UNK         0.0600 
    163 H163        2.0292  -17.6086  -39.6574 H         1 UNK         0.0600 
    164 H164        2.2367  -19.3199  -41.8036 H         1 UNK         0.3000 
    165 H165        4.0622  -19.5200  -43.4833 H         1 UNK         0.0600 
    166 H166        2.9812  -21.3980  -44.6968 H         1 UNK         0.0600 
    167 H167        1.8850  -20.8824  -43.4430 H         1 UNK         0.0600 
    168 H168        1.5882  -20.3963  -45.1017 H         1 UNK         0.0600 
    169 H169        3.3758  -17.9101  -45.7038 H         1 UNK         0.3000 
    170 H170        5.8510  -19.3115  -47.9353 H         1 UNK         0.0600 
    171 H171        3.5776  -20.1592  -48.6183 H         1 UNK         0.0600 
    172 H172        2.9035  -18.5668  -48.2946 H         1 UNK         0.0600 
    173 H173        4.0971  -18.7795  -49.5731 H         1 UNK         0.0600 
    174 H174        4.6310  -16.8042  -48.0958 H         1 UNK         0.3000 
    175 H175        6.4410  -14.8087  -46.0842 H         1 UNK         0.0600 
    176 H176        7.8067  -15.4808  -48.7455 H         1 UNK         0.0600 
    177 H177        7.9371  -13.9478  -47.8825 H         1 UNK         0.0600 
    178 H178        8.5902  -15.4135  -47.1718 H         1 UNK         0.0600 
    179 H179        5.5264  -14.6048  -48.8669 H         1 UNK         0.3000 
    180 H180        3.7357  -13.1758  -49.2106 H         1 UNK         0.0600 
    181 H181        1.8873  -15.4363  -48.2638 H         1 UNK         0.0600 
    182 H182        2.9997  -15.4823  -49.6219 H         1 UNK         0.0600 
    183 H183        1.5862  -14.4423  -49.6854 H         1 UNK         0.0600 
    184 H184        1.4708  -13.1315  -47.3202 H         1 UNK         0.3000 
    185 H185        2.0133  -10.5122  -45.7595 H         1 UNK         0.0600 
    186 H186        1.0508   -9.1254  -48.3132 H         1 UNK         0.0600 
    187 H187        0.6964   -8.5752  -46.6754 H         1 UNK         0.0600 
    188 H188        2.3524   -8.6080  -47.2549 H         1 UNK         0.0600 
    189 H189        0.1041  -11.5903  -45.6167 H         1 UNK         0.3000 
    190 H190       -3.6990  -22.4840  -44.9044 H         1 UNK         0.3000 
    191 H191       -5.0114  -23.3879  -47.2221 H         1 UNK         0.0600 
    192 H192       -5.1156  -24.4621  -44.3527 H         1 UNK         0.0600 
    193 H193       -6.2876  -24.8277  -45.6144 H         1 UNK         0.0600 
    194 H194       -6.1254  -23.1815  -45.0235 H         1 UNK         0.0600 
    195 H195       -2.4440  -24.9076  -45.2947 H         1 UNK         0.3000 
    196 H196       -2.4344  -27.3363  -47.0306 H         1 UNK         0.0600 
    197 H197       -0.8458  -28.2080  -45.3220 H         1 UNK         0.0600 
    198 H198       -2.3802  -27.7576  -44.5943 H         1 UNK         0.0600 
    199 H199       -0.9765  -26.7095  -44.4076 H         1 UNK         0.0600 
    200 H200       -0.3046  -24.7263  -45.7527 H         1 UNK         0.3000 
    201 H201        2.0097  -25.5782  -47.1065 H         1 UNK         0.0600 
    202 H202        2.0184  -24.2317  -45.0255 H         1 UNK         0.0600 
    203 H203        1.3277  -22.8577  -45.8842 H         1 UNK         0.0600 
    204 H204        2.9480  -23.4191  -46.2766 H         1 UNK         0.0600 
    205 H205       -0.5211  -23.3429  -48.2042 H         1 UNK         0.3000 
    206 H206        1.0103  -22.8184  -50.7212 H         1 UNK         0.0600 
    207 H207        0.8080  -20.7676  -49.3779 H         1 UNK         0.0600 
    208 H208       -0.2158  -20.6486  -50.7970 H         1 UNK         0.0600 
    209 H209       -0.9304  -20.9847  -49.2267 H         1 UNK         0.0600 
    210 H210       -1.0729  -24.9224  -49.7124 H         1 UNK         0.3000 
    211 H211       -2.6957  -26.1962  -50.5270 H         1 UNK         0.0600 
    212 H212       -1.7034  -25.1444  -53.2308 H         1 UNK         0.0600 
    213 H213       -2.6569  -26.6003  -52.9827 H         1 UNK         0.0600 
    214 H214       -1.0284  -26.5012  -52.3302 H         1 UNK         0.0600 
    215 H215       -4.2718  -24.8868  -49.4313 H         1 UNK         0.3000 
    216 H216       -6.1947  -23.8767  -49.1633 H         1 UNK         0.0600 
    217 H217       -7.9197  -23.8552  -50.9184 H         1 UNK         0.0600 
    218 H218       -7.0890  -25.3998  -50.8790 H         1 UNK         0.0600 
    219 H219       -6.7253  -24.2370  -52.1486 H         1 UNK         0.0600 
    220 H220       -3.7486  -22.3502  -49.8837 H         1 UNK         0.3000 
    221 H221       -3.0243  -20.2503  -49.9405 H         1 UNK         0.0600 
    222 H222       -5.7595  -19.6475  -48.6680 H         1 UNK         0.0600 
    223 H223       -4.3841  -20.3163  -47.8229 H         1 UNK         0.0600 
    224 H224       -4.2818  -18.6978  -48.4868 H         1 UNK         0.0600 
    225 H225       -5.8156  -18.3963  -50.1557 H         1 UNK         0.3000 
    226 H226       -5.1257  -17.0516  -52.5146 H         1 UNK         0.0600 
    227 H227       -6.4639  -16.0521  -50.6903 H         1 UNK         0.0600 
    228 H228       -7.3466  -15.9481  -52.2037 H         1 UNK         0.0600 
    229 H229       -7.7930  -17.1659  -51.0149 H         1 UNK         0.0600 
    230 H230       -6.9958  -20.0205  -52.1930 H         1 UNK         0.3000 
    231 H231       -8.4150  -19.8439  -54.6894 H         1 UNK         0.0600 
    232 H232       -7.5994  -22.3044  -53.0706 H         1 UNK         0.0600 
    233 H233       -8.8261  -22.2527  -54.3273 H         1 UNK         0.0600 
    234 H234       -9.0777  -21.3762  -52.8235 H         1 UNK         0.0600 
    235 H235       -5.1058  -20.7397  -53.8476 H         1 UNK         0.3000 
    236 H236       -4.5315  -21.6692  -56.6271 H         1 UNK         0.0600 
    237 H237       -3.6742  -23.1548  -54.8872 H         1 UNK         0.0600 
    238 H238       -2.3200  -22.3184  -55.6262 H         1 UNK         0.0600 
    239 H239       -2.9011  -21.8149  -54.0427 H         1 UNK         0.0600 
    240 H240       -3.5381  -19.2756  -54.1220 H         1 UNK         0.3000 
    241 H241       -1.6643  -17.9550  -55.8238 H         1 UNK         0.0600 
    242 H242       -5.1114  -15.9594  -56.6322 H         1 UNK         0.3800 
    243 H243       -5.2017  -17.3679  -55.6131 H         1 UNK         0.3800 
    244 H244       -2.8909  -17.1162  -53.1641 H         1 UNK         0.0800 
    245 H245       -1.6387  -16.2064  -53.9760 H         1 UNK         0.0800 
    246 H246        1.0882  -17.4139  -51.8824 H         1 UNK         0.0800 
    247 H247        0.0770  -16.1060  -52.4229 H         1 UNK         0.0800 
@<TRIPOS>BOND
     1    1    2 1    
     2    1  127 1    
     3    1  128 1    
     4    1  129 1    
     5    2    3 2    
     6    2    4 am   BACKBONE|DICT|INTERRES
     7    4    5 1    
     8    4  130 1    
     9    5    6 1    
    10    5   65 1    
    11    5  131 1    
    12    6    7 1    
    13    6  132 1    
    14    6  133 1    
    15    7    8 1    
    16    8    9 1    
    17    8  134 1    
    18    8  135 1    
    19    9   10 ar   
    20    9   14 ar   
    21   10   11 ar   
    22   10  136 1    
    23   11   12 ar   
    24   11  126 1    
    25   12   13 ar   
    26   12  137 1    
    27   13   14 ar   
    28   13   15 1    
    29   14  138 1    
    30   15   16 1    
    31   15  139 1    
    32   15  140 1    
    33   16   17 1    
    34   17   18 1    
    35   17  141 1    
    36   17  142 1    
    37   18   19 1    
    38   18   67 1    
    39   18  143 1    
    40   19   20 am   BACKBONE|DICT|INTERRES
    41   19  144 1    
    42   20   21 2    
    43   20   22 1    
    44   22   23 1    
    45   22   24 1    
    46   22  145 1    
    47   23  146 1    
    48   23  147 1    
    49   23  148 1    
    50   24   25 am   BACKBONE|DICT|INTERRES
    51   24  149 1    
    52   25   26 2    
    53   25   27 1    
    54   27   28 1    
    55   27   29 1    
    56   27  150 1    
    57   28  151 1    
    58   28  152 1    
    59   28  153 1    
    60   29   30 am   BACKBONE|DICT|INTERRES
    61   29  154 1    
    62   30   31 2    
    63   30   32 1    
    64   32   33 1    
    65   32   34 1    
    66   32  155 1    
    67   33  156 1    
    68   33  157 1    
    69   33  158 1    
    70   34   35 am   BACKBONE|DICT|INTERRES
    71   34  159 1    
    72   35   36 2    
    73   35   37 1    
    74   37   38 1    
    75   37   39 1    
    76   37  160 1    
    77   38  161 1    
    78   38  162 1    
    79   38  163 1    
    80   39   40 am   BACKBONE|DICT|INTERRES
    81   39  164 1    
    82   40   41 2    
    83   40   42 1    
    84   42   43 1    
    85   42   44 1    
    86   42  165 1    
    87   43  166 1    
    88   43  167 1    
    89   43  168 1    
    90   44   45 am   BACKBONE|DICT|INTERRES
    91   44  169 1    
    92   45   46 2    
    93   45   47 1    
    94   47   48 1    
    95   47   49 1    
    96   47  170 1    
    97   48  171 1    
    98   48  172 1    
    99   48  173 1    
   100   49   50 am   BACKBONE|DICT|INTERRES
   101   49  174 1    
   102   50   51 2    
   103   50   52 1    
   104   52   53 1    
   105   52   54 1    
   106   52  175 1    
   107   53  176 1    
   108   53  177 1    
   109   53  178 1    
   110   54   55 am   BACKBONE|DICT|INTERRES
   111   54  179 1    
   112   55   56 2    
   113   55   57 1    
   114   57   58 1    
   115   57   59 1    
   116   57  180 1    
   117   58  181 1    
   118   58  182 1    
   119   58  183 1    
   120   59   60 am   BACKBONE|DICT|INTERRES
   121   59  184 1    
   122   60   61 2    
   123   60   62 1    
   124   62   63 1    
   125   62   64 1    
   126   62  185 1    
   127   63  186 1    
   128   63  187 1    
   129   63  188 1    
   130   64   65 am   BACKBONE|DICT|INTERRES
   131   64  189 1    
   132   65   66 2    
   133   67   68 2    
   134   67   69 am   BACKBONE|DICT|INTERRES
   135   69   70 1    
   136   69  190 1    
   137   70   71 1    
   138   70   72 1    
   139   70  191 1    
   140   71  192 1    
   141   71  193 1    
   142   71  194 1    
   143   72   73 2    
   144   72   74 am   BACKBONE|DICT|INTERRES
   145   74   75 1    
   146   74  195 1    
   147   75   76 1    
   148   75   77 1    
   149   75  196 1    
   150   76  197 1    
   151   76  198 1    
   152   76  199 1    
   153   77   78 2    
   154   77   79 am   BACKBONE|DICT|INTERRES
   155   79   80 1    
   156   79  200 1    
   157   80   81 1    
   158   80   82 1    
   159   80  201 1    
   160   81  202 1    
   161   81  203 1    
   162   81  204 1    
   163   82   83 2    
   164   82   84 am   BACKBONE|DICT|INTERRES
   165   84   85 1    
   166   84  205 1    
   167   85   86 1    
   168   85   87 1    
   169   85  206 1    
   170   86  207 1    
   171   86  208 1    
   172   86  209 1    
   173   87   88 2    
   174   87   89 am   BACKBONE|DICT|INTERRES
   175   89   90 1    
   176   89  210 1    
   177   90   91 1    
   178   90   92 1    
   179   90  211 1    
   180   91  212 1    
   181   91  213 1    
   182   91  214 1    
   183   92   93 2    
   184   92   94 am   BACKBONE|DICT|INTERRES
   185   94   95 1    
   186   94  215 1    
   187   95   96 1    
   188   95   97 1    
   189   95  216 1    
   190   96  217 1    
   191   96  218 1    
   192   96  219 1    
   193   97   98 2    
   194   97   99 am   BACKBONE|DICT|INTERRES
   195   99  100 1    
   196   99  220 1    
   197  100  101 1    
   198  100  102 1    
   199  100  221 1    
   200  101  222 1    
   201  101  223 1    
   202  101  224 1    
   203  102  103 2    
   204  102  104 am   BACKBONE|DICT|INTERRES
   205  104  105 1    
   206  104  225 1    
   207  105  106 1    
   208  105  107 1    
   209  105  226 1    
   210  106  227 1    
   211  106  228 1    
   212  106  229 1    
   213  107  108 2    
   214  107  109 am   BACKBONE|DICT|INTERRES
   215  109  110 1    
   216  109  230 1    
   217  110  111 1    
   218  110  112 1    
   219  110  231 1    
   220  111  232 1    
   221  111  233 1    
   222  111  234 1    
   223  112  113 2    
   224  112  114 am   BACKBONE|DICT|INTERRES
   225  114  115 1    
   226  114  235 1    
   227  115  116 1    
   228  115  117 1    
   229  115  236 1    
   230  116  237 1    
   231  116  238 1    
   232  116  239 1    
   233  117  118 2    
   234  117  119 am   BACKBONE|DICT|INTERRES
   235  119  120 1    
   236  119  240 1    
   237  120  121 1    
   238  120  124 1    
   239  120  241 1    
   240  121  122 am   BACKBONE|DICT|INTERRES
   241  121  123 2    
   242  122  242 1    
   243  122  243 1    
   244  124  125 1    
   245  124  244 1    
   246  124  245 1    
   247  125  126 1    
   248  126  246 1    
   249  126  247 1    
@<TRIPOS>SUBSTRUCTURE
     1 UNK         1 GROUP             0       ****    0 ROOT    
