@<TRIPOS>MOLECULE
3R540
247   249    1
SMALL
USER_CHARGES


@<TRIPOS>ATOM
      1 CA          4.0130  -13.2749  -45.9846 C.3       0 UNK        -0.1800 
      2 C           3.0808  -14.3881  -46.4539 C.2       0 UNK         0.5000 
      3 O           2.4381  -15.0237  -45.6233 O.2       0 UNK        -0.5000 
      4 N           2.9639  -14.6922  -47.7534 N.am      1 UNK        -0.5000 
      5 CA          3.5777  -14.0585  -48.9307 C.3       1 UNK         0.1400 
      6 C6          5.1360  -14.0789  -48.9719 C.3       23 UNK        -0.0398 
      7 S7          5.9372  -15.6190  -48.3872 S.3       23 UNK        -0.2404 
      8 C8          6.0324  -16.6515  -49.8865 C.3       23 UNK        -0.0205 
      9 C9          4.7696  -17.4802  -50.0554 C.ar      23 UNK        -0.0193 
     10 C10         3.7536  -17.0480  -50.9079 C.ar      23 UNK        -0.1150 
     11 C11         2.5420  -17.7393  -50.9732 C.ar      23 UNK        -0.0193 
     12 C12         2.3749  -18.9086  -50.2263 C.ar      23 UNK        -0.1150 
     13 C13         3.4031  -19.3821  -49.4015 C.ar      23 UNK        -0.0193 
     14 C14         4.5968  -18.6573  -49.3207 C.ar      23 UNK        -0.1150 
     15 C15         3.2123  -20.6202  -48.5293 C.3       23 UNK        -0.0205 
     16 S16         3.0064  -22.1582  -49.4766 S.3       23 UNK        -0.2404 
     17 C17         1.1880  -22.2755  -49.5905 C.3       23 UNK        -0.0398 
     18 CA          0.5714  -23.2659  -48.5771 C.3       11 UNK         0.1400 
     19 N           0.8152  -22.8971  -47.1794 N.am      11 UNK        -0.5000 
     20 C           0.6169  -23.7214  -46.1417 C.2       10 UNK         0.5000 
     21 O           0.2487  -24.8914  -46.2573 O.2       10 UNK        -0.5000 
     22 CA          0.8208  -23.1198  -44.7408 C.3       10 UNK         0.1400 
     23 CB          2.3133  -23.0651  -44.3820 C.3       10 UNK        -0.1800 
     24 N           0.2311  -21.7840  -44.6230 N.am      10 UNK        -0.5000 
     25 C          -1.0911  -21.5554  -44.5925 C.2       9 UNK         0.5000 
     26 O          -1.9322  -22.4505  -44.6570 O.2       9 UNK        -0.5000 
     27 CA         -1.5704  -20.0917  -44.5044 C.3       9 UNK         0.1400 
     28 CB         -1.7271  -19.6723  -43.0355 C.3       9 UNK        -0.1800 
     29 N          -0.7089  -19.1285  -45.1888 N.am      9 UNK        -0.5000 
     30 C          -0.3454  -19.1880  -46.4776 C.2       8 UNK         0.5000 
     31 O          -0.7267  -20.0572  -47.2611 O.2       8 UNK        -0.5000 
     32 CA          0.6801  -18.1456  -46.9527 C.3       8 UNK         0.1400 
     33 CB         -0.0217  -16.8959  -47.4961 C.3       8 UNK        -0.1800 
     34 N           1.6740  -17.7749  -45.9380 N.am      8 UNK        -0.5000 
     35 C           2.4770  -18.6287  -45.2798 C.2       7 UNK         0.5000 
     36 O           2.4323  -19.8518  -45.4092 O.2       7 UNK        -0.5000 
     37 CA          3.4759  -18.0227  -44.2840 C.3       7 UNK         0.1400 
     38 CB          4.7465  -17.5546  -45.0108 C.3       7 UNK        -0.1800 
     39 N           2.8708  -16.9042  -43.5628 N.am      7 UNK        -0.5000 
     40 C           2.2925  -17.0072  -42.3599 C.2       6 UNK         0.5000 
     41 O           2.2935  -18.0368  -41.6839 O.2       6 UNK        -0.5000 
     42 CA          1.5781  -15.7545  -41.8186 C.3       6 UNK         0.1400 
     43 CB          2.5735  -14.8352  -41.0948 C.3       6 UNK        -0.1800 
     44 N           0.8724  -14.9786  -42.8386 N.am      6 UNK        -0.5000 
     45 C          -0.1510  -15.4042  -43.5874 C.2       5 UNK         0.5000 
     46 O          -0.5802  -16.5584  -43.5399 O.2       5 UNK        -0.5000 
     47 CA         -0.8031  -14.3803  -44.5492 C.3       5 UNK         0.1400 
     48 CB         -2.2183  -14.8112  -44.9854 C.3       5 UNK        -0.1800 
     49 N          -0.9026  -13.0047  -44.0495 N.am      5 UNK        -0.5000 
     50 C           0.0866  -12.1265  -43.8456 C.2       4 UNK         0.5000 
     51 O           1.2834  -12.4109  -43.8983 O.2       4 UNK        -0.5000 
     52 CA         -0.3551  -10.6678  -43.6110 C.3       4 UNK         0.1400 
     53 CB          0.7741   -9.7927  -43.0387 C.3       4 UNK        -0.1800 
     54 N          -0.7966  -10.0968  -44.8821 N.am      4 UNK        -0.5000 
     55 C          -1.9841  -10.3256  -45.4605 C.2       3 UNK         0.5000 
     56 O          -2.9288  -10.8674  -44.8846 O.2       3 UNK        -0.5000 
     57 CA         -2.1138   -9.9449  -46.9507 C.3       3 UNK         0.1400 
     58 CB         -2.6899   -8.5286  -47.0974 C.3       3 UNK        -0.1800 
     59 N          -0.8504  -10.0325  -47.6955 N.am      3 UNK        -0.5000 
     60 C          -0.1165  -11.1461  -47.8387 C.2       2 UNK         0.5000 
     61 O          -0.4475  -12.2423  -47.3768 O.2       2 UNK        -0.5000 
     62 CA          1.2226  -11.0019  -48.5829 C.3       2 UNK         0.1400 
     63 CB          2.1213   -9.9485  -47.8972 C.3       2 UNK        -0.1800 
     64 N           1.8842  -12.3024  -48.5809 N.am      2 UNK        -0.5000 
     65 C           2.9973  -12.6550  -49.2353 C.2       1 UNK         0.5000 
     66 O           3.5729  -11.9190  -50.0379 O.2       1 UNK        -0.5000 
     67 C          -0.9369  -23.4281  -48.8395 C.2       11 UNK         0.5000 
     68 O          -1.3300  -24.3730  -49.5214 O.2       11 UNK        -0.5000 
     69 N          -1.7554  -22.5345  -48.2638 N.am      12 UNK        -0.5000 
     70 CA         -3.2141  -22.5914  -48.3287 C.3       12 UNK         0.1400 
     71 CB         -3.8196  -21.3389  -47.6842 C.3       12 UNK        -0.1800 
     72 C          -3.7840  -23.8654  -47.6852 C.2       12 UNK         0.5000 
     73 O          -4.6688  -24.4839  -48.2716 O.2       12 UNK        -0.5000 
     74 N          -3.2434  -24.2660  -46.5250 N.am      13 UNK        -0.5000 
     75 CA         -3.5887  -25.5137  -45.8416 C.3       13 UNK         0.1400 
     76 CB         -2.9097  -25.5637  -44.4649 C.3       13 UNK        -0.1800 
     77 C          -3.2369  -26.7609  -46.6719 C.2       13 UNK         0.5000 
     78 O          -4.0611  -27.6702  -46.7719 O.2       13 UNK        -0.5000 
     79 N          -2.0499  -26.7609  -47.2969 N.am      14 UNK        -0.5000 
     80 CA         -1.5976  -27.8121  -48.2140 C.3       14 UNK         0.1400 
     81 CB         -0.1203  -27.5833  -48.5673 C.3       14 UNK        -0.1800 
     82 C          -2.4616  -27.9116  -49.4884 C.2       14 UNK         0.5000 
     83 O          -2.7151  -29.0162  -49.9694 O.2       14 UNK        -0.5000 
     84 N          -2.9323  -26.7596  -49.9822 N.am      15 UNK        -0.5000 
     85 CA         -3.8578  -26.6241  -51.1082 C.3       15 UNK         0.1400 
     86 CB         -3.6620  -25.2323  -51.7316 C.3       15 UNK        -0.1800 
     87 C          -5.3384  -26.8455  -50.7269 C.2       15 UNK         0.5000 
     88 O          -6.2022  -26.6945  -51.5914 O.2       15 UNK        -0.5000 
     89 N          -5.6230  -27.1609  -49.4530 N.am      16 UNK        -0.5000 
     90 CA         -6.9516  -27.3790  -48.8646 C.3       16 UNK         0.1400 
     91 CB         -7.5742  -28.6807  -49.4103 C.3       16 UNK        -0.1800 
     92 C          -7.8922  -26.1597  -49.0019 C.2       16 UNK         0.5000 
     93 O          -9.1011  -26.3239  -49.1736 O.2       16 UNK        -0.5000 
     94 N          -7.3026  -24.9569  -48.9448 N.am      17 UNK        -0.5000 
     95 CA         -7.9041  -23.6291  -49.1003 C.3       17 UNK         0.1400 
     96 CB         -8.9258  -23.3531  -47.9784 C.3       17 UNK        -0.1800 
     97 C          -8.4777  -23.3405  -50.5053 C.2       17 UNK         0.5000 
     98 O          -9.1646  -22.3321  -50.6767 O.2       17 UNK        -0.5000 
     99 N          -8.1810  -24.1959  -51.4947 N.am      18 UNK        -0.5000 
    100 CA        -8.6348  -24.0408  -52.8789 C.3       18 UNK         0.1400 
    101 CB        -8.6420  -25.4180  -53.5602 C.3       18 UNK        -0.1800 
    102 C         -7.7749  -23.0482  -53.6849 C.2       18 UNK         0.5000 
    103 O         -8.2267  -22.5656  -54.7245 O.2       18 UNK        -0.5000 
    104 N         -6.5576  -22.7681  -53.2069 N.am      19 UNK        -0.5000 
    105 CA        -5.5639  -21.8999  -53.8270 C.3       19 UNK         0.1400 
    106 CB        -4.9151  -22.6261  -55.0245 C.3       19 UNK        -0.1800 
    107 C         -4.5147  -21.5115  -52.7722 C.2       19 UNK         0.5000 
    108 O         -4.6081  -21.9493  -51.6237 O.2       19 UNK        -0.5000 
    109 N         -3.5298  -20.7061  -53.1937 N.am      20 UNK        -0.5000 
    110 CA        -2.2921  -20.3426  -52.4871 C.3       20 UNK         0.1400 
    111 CB        -1.4507  -21.5951  -52.1816 C.3       20 UNK        -0.1800 
    112 C         -2.4530  -19.4448  -51.2424 C.2       20 UNK         0.5000 
    113 O         -1.4501  -19.1123  -50.6090 O.2       20 UNK        -0.5000 
    114 N         -3.6802  -19.0046  -50.9413 N.am      21 UNK        -0.5000 
    115 CA        -4.0034  -18.0469  -49.8827 C.3       21 UNK         0.1400 
    116 CB        -5.4635  -18.2694  -49.4484 C.3       21 UNK        -0.1800 
    117 C         -3.7294  -16.6010  -50.3482 C.2       21 UNK         0.5000 
    118 O         -4.6509  -15.7873  -50.4314 O.2       21 UNK        -0.5000 
    119 N         -2.4661  -16.3243  -50.6897 N.am      22 UNK        -0.5000 
    120 CA        -1.9943  -15.0396  -51.2305 C.3       22 UNK         0.1400 
    121 C         -1.8809  -13.8805  -50.1948 C.2       22 UNK         0.5000 
    122 N         -1.9479  -14.1461  -48.8966 N.am      22 UNK        -0.7600 
    123 O         -1.7094  -12.7271  -50.5804 O.2       22 UNK        -0.5000 
    124 C124       -0.6755  -15.2213  -52.0280 C.3       23 UNK        -0.0398 
    125 S125        0.7411  -15.6880  -50.9737 S.3       23 UNK        -0.2404 
    126 C126        1.3944  -17.1730  -51.7928 C.3       23 UNK        -0.0205 
    127 H127        5.0464  -13.6198  -45.9964 H         1 UNK         0.0600 
    128 H128        3.9318  -12.3791  -46.5968 H         1 UNK         0.0600 
    129 H129        3.7701  -12.9911  -44.9606 H         1 UNK         0.0600 
    130 H130        2.3578  -15.4620  -47.9931 H         1 UNK         0.3000 
    131 H131        3.2404  -14.6665  -49.7662 H         1 UNK         0.0600 
    132 H132        5.5384  -13.2662  -48.3664 H         1 UNK         0.0800 
    133 H133        5.4814  -13.8745  -49.9865 H         1 UNK         0.0800 
    134 H134        6.2173  -16.0322  -50.7653 H         1 UNK         0.0800 
    135 H135        6.8912  -17.3186  -49.7988 H         1 UNK         0.0800 
    136 H136        3.8791  -16.1374  -51.4765 H         1 UNK         0.1150 
    137 H137        1.4275  -19.4226  -50.2687 H         1 UNK         0.1150 
    138 H138        5.3834  -18.9869  -48.6565 H         1 UNK         0.1150 
    139 H139        4.0650  -20.7470  -47.8605 H         1 UNK         0.0800 
    140 H140        2.3500  -20.4867  -47.8818 H         1 UNK         0.0800 
    141 H141        0.9668  -22.6049  -50.6064 H         1 UNK         0.0800 
    142 H142        0.7296  -21.2934  -49.4782 H         1 UNK         0.0800 
    143 H143        1.0335  -24.2412  -48.7463 H         1 UNK         0.0600 
    144 H144        1.0741  -21.9392  -46.9948 H         1 UNK         0.3000 
    145 H145        0.3261  -23.7751  -44.0205 H         1 UNK         0.0600 
    146 H146        2.4656  -22.6496  -43.3858 H         1 UNK         0.0600 
    147 H147        2.7503  -24.0644  -44.3888 H         1 UNK         0.0600 
    148 H148        2.8793  -22.4578  -45.0890 H         1 UNK         0.0600 
    149 H149        0.8725  -20.9985  -44.6344 H         1 UNK         0.3000 
    150 H150       -2.5524  -20.0385  -44.9759 H         1 UNK         0.0600 
    151 H151       -2.3496  -20.3813  -42.4878 H         1 UNK         0.0600 
    152 H152       -2.2036  -18.6953  -42.9542 H         1 UNK         0.0600 
    153 H153       -0.7627  -19.6180  -42.5286 H         1 UNK         0.0600 
    154 H154       -0.3706  -18.3541  -44.6274 H         1 UNK         0.3000 
    155 H155        1.2193  -18.5881  -47.7850 H         1 UNK         0.0600 
    156 H156        0.6818  -16.2267  -47.9865 H         1 UNK         0.0600 
    157 H157       -0.5150  -16.3404  -46.7045 H         1 UNK         0.0600 
    158 H158       -0.7762  -17.1643  -48.2370 H         1 UNK         0.0600 
    159 H159        1.7986  -16.7819  -45.7642 H         1 UNK         0.3000 
    160 H160        3.7676  -18.8072  -43.5826 H         1 UNK         0.0600 
    161 H161        4.5298  -16.8173  -45.7828 H         1 UNK         0.0600 
    162 H162        5.2444  -18.3936  -45.4985 H         1 UNK         0.0600 
    163 H163        5.4594  -17.1121  -44.3151 H         1 UNK         0.0600 
    164 H164        2.7702  -16.0353  -44.0816 H         1 UNK         0.3000 
    165 H165        0.8349  -16.0908  -41.0929 H         1 UNK         0.0600 
    166 H166        3.3170  -14.4298  -41.7823 H         1 UNK         0.0600 
    167 H167        2.0629  -13.9964  -40.6212 H         1 UNK         0.0600 
    168 H168        3.1076  -15.3749  -40.3117 H         1 UNK         0.0600 
    169 H169        1.2060  -14.0348  -43.0173 H         1 UNK         0.3000 
    170 H170       -0.1736  -14.3529  -45.4399 H         1 UNK         0.0600 
    171 H171       -2.2410  -15.8274  -45.3781 H         1 UNK         0.0600 
    172 H172       -2.9175  -14.7766  -44.1493 H         1 UNK         0.0600 
    173 H173       -2.6016  -14.1567  -45.7689 H         1 UNK         0.0600 
    174 H174       -1.8437  -12.6347  -44.0102 H         1 UNK         0.3000 
    175 H175       -1.1815  -10.6669  -42.8970 H         1 UNK         0.0600 
    176 H176        0.4250   -8.7784  -42.8448 H         1 UNK         0.0600 
    177 H177        1.1390  -10.1973  -42.0938 H         1 UNK         0.0600 
    178 H178        1.6240   -9.7293  -43.7196 H         1 UNK         0.0600 
    179 H179       -0.0785   -9.6694  -45.4472 H         1 UNK         0.3000 
    180 H180       -2.8134  -10.6488  -47.4063 H         1 UNK         0.0600 
    181 H181       -2.0165   -7.7754  -46.6864 H         1 UNK         0.0600 
    182 H182       -3.6425   -8.4383  -46.5737 H         1 UNK         0.0600 
    183 H183       -2.8720   -8.2828  -48.1438 H         1 UNK         0.0600 
    184 H184       -0.5186   -9.1739  -48.1102 H         1 UNK         0.3000 
    185 H185        1.0156  -10.7094  -49.6139 H         1 UNK         0.0600 
    186 H186        3.0795   -9.8427  -48.4050 H         1 UNK         0.0600 
    187 H187        1.6582   -8.9617  -47.9011 H         1 UNK         0.0600 
    188 H188        2.3243  -10.2135  -46.8586 H         1 UNK         0.0600 
    189 H189        1.4216  -12.9815  -47.9872 H         1 UNK         0.3000 
    190 H190       -1.3533  -21.7439  -47.7652 H         1 UNK         0.3000 
    191 H191       -3.4922  -22.5976  -49.3828 H         1 UNK         0.0600 
    192 H192       -3.4150  -20.4332  -48.1334 H         1 UNK         0.0600 
    193 H193       -4.9015  -21.3188  -47.8186 H         1 UNK         0.0600 
    194 H194       -3.6212  -21.3017  -46.6141 H         1 UNK         0.0600 
    195 H195       -2.5622  -23.6706  -46.0640 H         1 UNK         0.3000 
    196 H196       -4.6694  -25.5167  -45.6847 H         1 UNK         0.0600 
    197 H197       -3.1473  -26.4923  -43.9445 H         1 UNK         0.0600 
    198 H198       -3.2454  -24.7426  -43.8315 H         1 UNK         0.0600 
    199 H199       -1.8244  -25.5003  -44.5469 H         1 UNK         0.0600 
    200 H200       -1.4172  -25.9837  -47.1443 H         1 UNK         0.3000 
    201 H201       -1.6751  -28.7660  -47.6883 H         1 UNK         0.0600 
    202 H202        0.5012  -27.5648  -47.6718 H         1 UNK         0.0600 
    203 H203        0.0285  -26.6420  -49.0959 H         1 UNK         0.0600 
    204 H204        0.2551  -28.3818  -49.2084 H         1 UNK         0.0600 
    205 H205       -2.6125  -25.8916  -49.5629 H         1 UNK         0.3000 
    206 H206       -3.6056  -27.3714  -51.8630 H         1 UNK         0.0600 
    207 H207       -2.6314  -25.0831  -52.0538 H         1 UNK         0.0600 
    208 H208       -4.2985  -25.0925  -52.6061 H         1 UNK         0.0600 
    209 H209       -3.9040  -24.4442  -51.0190 H         1 UNK         0.0600 
    210 H210       -4.8508  -27.2219  -48.8012 H         1 UNK         0.3000 
    211 H211       -6.7894  -27.5141  -47.7945 H         1 UNK         0.0600 
    212 H212       -7.8182  -28.5993  -50.4699 H         1 UNK         0.0600 
    213 H213       -8.4948  -28.9273  -48.8803 H         1 UNK         0.0600 
    214 H214       -6.8946  -29.5239  -49.2862 H         1 UNK         0.0600 
    215 H215       -6.2948  -24.9382  -48.7840 H         1 UNK         0.3000 
    216 H216       -7.0823  -22.9232  -48.9714 H         1 UNK         0.0600 
    217 H217       -8.4924  -23.5414  -46.9962 H         1 UNK         0.0600 
    218 H218       -9.8159  -23.9745  -48.0785 H         1 UNK         0.0600 
    219 H219       -9.2522  -22.3127  -47.9922 H         1 UNK         0.0600 
    220 H220       -7.6090  -25.0079  -51.2931 H         1 UNK         0.3000 
    221 H221       -9.6597  -23.6639  -52.8745 H         1 UNK         0.0600 
    222 H222       -7.6343  -25.8217  -53.6630 H         1 UNK         0.0600 
    223 H223       -9.2363  -26.1367  -52.9955 H         1 UNK         0.0600 
    224 H224       -9.0710  -25.3548  -54.5609 H         1 UNK         0.0600 
    225 H225       -6.2735  -23.1478  -52.3127 H         1 UNK         0.3000 
    226 H226       -6.0527  -20.9856  -54.1692 H         1 UNK         0.0600 
    227 H227       -5.6582  -22.9151  -55.7677 H         1 UNK         0.0600 
    228 H228       -4.1908  -21.9909  -55.5349 H         1 UNK         0.0600 
    229 H229       -4.3937  -23.5301  -54.7076 H         1 UNK         0.0600 
    230 H230       -3.5800  -20.3693  -54.1453 H         1 UNK         0.3000 
    231 H231       -1.7221  -19.7425  -53.1979 H         1 UNK         0.0600 
    232 H232       -0.4598  -21.3097  -51.8313 H         1 UNK         0.0600 
    233 H233       -1.3136  -22.2092  -53.0716 H         1 UNK         0.0600 
    234 H234       -1.9113  -22.2156  -51.4132 H         1 UNK         0.0600 
    235 H235       -4.4464  -19.3145  -51.5197 H         1 UNK         0.3000 
    236 H236       -3.3639  -18.2347  -49.0178 H         1 UNK         0.0600 
    237 H237       -5.7330  -17.6031  -48.6281 H         1 UNK         0.0600 
    238 H238       -6.1608  -18.0850  -50.2665 H         1 UNK         0.0600 
    239 H239       -5.6214  -19.2905  -49.1018 H         1 UNK         0.0600 
    240 H240       -1.7735  -17.0601  -50.6032 H         1 UNK         0.3000 
    241 H241       -2.7467  -14.7076  -51.9485 H         1 UNK         0.0600 
    242 H242       -2.0844  -15.0878  -48.5748 H         1 UNK         0.3800 
    243 H243       -1.7417  -13.4026  -48.2388 H         1 UNK         0.3800 
    244 H244       -0.8159  -15.9719  -52.8069 H         1 UNK         0.0800 
    245 H245       -0.4200  -14.2986  -52.5516 H         1 UNK         0.0800 
    246 H246        0.5995  -17.9105  -51.9097 H         1 UNK         0.0800 
    247 H247        1.7436  -16.9191  -52.7946 H         1 UNK         0.0800 
@<TRIPOS>BOND
     1    1    2 1    
     2    1  127 1    
     3    1  128 1    
     4    1  129 1    
     5    2    3 2    
     6    2    4 am   BACKBONE|DICT|INTERRES
     7    4    5 1    
     8    4  130 1    
     9    5    6 1    
    10    5   65 1    
    11    5  131 1    
    12    6    7 1    
    13    6  132 1    
    14    6  133 1    
    15    7    8 1    
    16    8    9 1    
    17    8  134 1    
    18    8  135 1    
    19    9   10 ar   
    20    9   14 ar   
    21   10   11 ar   
    22   10  136 1    
    23   11   12 ar   
    24   11  126 1    
    25   12   13 ar   
    26   12  137 1    
    27   13   14 ar   
    28   13   15 1    
    29   14  138 1    
    30   15   16 1    
    31   15  139 1    
    32   15  140 1    
    33   16   17 1    
    34   17   18 1    
    35   17  141 1    
    36   17  142 1    
    37   18   19 1    
    38   18   67 1    
    39   18  143 1    
    40   19   20 am   BACKBONE|DICT|INTERRES
    41   19  144 1    
    42   20   21 2    
    43   20   22 1    
    44   22   23 1    
    45   22   24 1    
    46   22  145 1    
    47   23  146 1    
    48   23  147 1    
    49   23  148 1    
    50   24   25 am   BACKBONE|DICT|INTERRES
    51   24  149 1    
    52   25   26 2    
    53   25   27 1    
    54   27   28 1    
    55   27   29 1    
    56   27  150 1    
    57   28  151 1    
    58   28  152 1    
    59   28  153 1    
    60   29   30 am   BACKBONE|DICT|INTERRES
    61   29  154 1    
    62   30   31 2    
    63   30   32 1    
    64   32   33 1    
    65   32   34 1    
    66   32  155 1    
    67   33  156 1    
    68   33  157 1    
    69   33  158 1    
    70   34   35 am   BACKBONE|DICT|INTERRES
    71   34  159 1    
    72   35   36 2    
    73   35   37 1    
    74   37   38 1    
    75   37   39 1    
    76   37  160 1    
    77   38  161 1    
    78   38  162 1    
    79   38  163 1    
    80   39   40 am   BACKBONE|DICT|INTERRES
    81   39  164 1    
    82   40   41 2    
    83   40   42 1    
    84   42   43 1    
    85   42   44 1    
    86   42  165 1    
    87   43  166 1    
    88   43  167 1    
    89   43  168 1    
    90   44   45 am   BACKBONE|DICT|INTERRES
    91   44  169 1    
    92   45   46 2    
    93   45   47 1    
    94   47   48 1    
    95   47   49 1    
    96   47  170 1    
    97   48  171 1    
    98   48  172 1    
    99   48  173 1    
   100   49   50 am   BACKBONE|DICT|INTERRES
   101   49  174 1    
   102   50   51 2    
   103   50   52 1    
   104   52   53 1    
   105   52   54 1    
   106   52  175 1    
   107   53  176 1    
   108   53  177 1    
   109   53  178 1    
   110   54   55 am   BACKBONE|DICT|INTERRES
   111   54  179 1    
   112   55   56 2    
   113   55   57 1    
   114   57   58 1    
   115   57   59 1    
   116   57  180 1    
   117   58  181 1    
   118   58  182 1    
   119   58  183 1    
   120   59   60 am   BACKBONE|DICT|INTERRES
   121   59  184 1    
   122   60   61 2    
   123   60   62 1    
   124   62   63 1    
   125   62   64 1    
   126   62  185 1    
   127   63  186 1    
   128   63  187 1    
   129   63  188 1    
   130   64   65 am   BACKBONE|DICT|INTERRES
   131   64  189 1    
   132   65   66 2    
   133   67   68 2    
   134   67   69 am   BACKBONE|DICT|INTERRES
   135   69   70 1    
   136   69  190 1    
   137   70   71 1    
   138   70   72 1    
   139   70  191 1    
   140   71  192 1    
   141   71  193 1    
   142   71  194 1    
   143   72   73 2    
   144   72   74 am   BACKBONE|DICT|INTERRES
   145   74   75 1    
   146   74  195 1    
   147   75   76 1    
   148   75   77 1    
   149   75  196 1    
   150   76  197 1    
   151   76  198 1    
   152   76  199 1    
   153   77   78 2    
   154   77   79 am   BACKBONE|DICT|INTERRES
   155   79   80 1    
   156   79  200 1    
   157   80   81 1    
   158   80   82 1    
   159   80  201 1    
   160   81  202 1    
   161   81  203 1    
   162   81  204 1    
   163   82   83 2    
   164   82   84 am   BACKBONE|DICT|INTERRES
   165   84   85 1    
   166   84  205 1    
   167   85   86 1    
   168   85   87 1    
   169   85  206 1    
   170   86  207 1    
   171   86  208 1    
   172   86  209 1    
   173   87   88 2    
   174   87   89 am   BACKBONE|DICT|INTERRES
   175   89   90 1    
   176   89  210 1    
   177   90   91 1    
   178   90   92 1    
   179   90  211 1    
   180   91  212 1    
   181   91  213 1    
   182   91  214 1    
   183   92   93 2    
   184   92   94 am   BACKBONE|DICT|INTERRES
   185   94   95 1    
   186   94  215 1    
   187   95   96 1    
   188   95   97 1    
   189   95  216 1    
   190   96  217 1    
   191   96  218 1    
   192   96  219 1    
   193   97   98 2    
   194   97   99 am   BACKBONE|DICT|INTERRES
   195   99  100 1    
   196   99  220 1    
   197  100  101 1    
   198  100  102 1    
   199  100  221 1    
   200  101  222 1    
   201  101  223 1    
   202  101  224 1    
   203  102  103 2    
   204  102  104 am   BACKBONE|DICT|INTERRES
   205  104  105 1    
   206  104  225 1    
   207  105  106 1    
   208  105  107 1    
   209  105  226 1    
   210  106  227 1    
   211  106  228 1    
   212  106  229 1    
   213  107  108 2    
   214  107  109 am   BACKBONE|DICT|INTERRES
   215  109  110 1    
   216  109  230 1    
   217  110  111 1    
   218  110  112 1    
   219  110  231 1    
   220  111  232 1    
   221  111  233 1    
   222  111  234 1    
   223  112  113 2    
   224  112  114 am   BACKBONE|DICT|INTERRES
   225  114  115 1    
   226  114  235 1    
   227  115  116 1    
   228  115  117 1    
   229  115  236 1    
   230  116  237 1    
   231  116  238 1    
   232  116  239 1    
   233  117  118 2    
   234  117  119 am   BACKBONE|DICT|INTERRES
   235  119  120 1    
   236  119  240 1    
   237  120  121 1    
   238  120  124 1    
   239  120  241 1    
   240  121  122 am   BACKBONE|DICT|INTERRES
   241  121  123 2    
   242  122  242 1    
   243  122  243 1    
   244  124  125 1    
   245  124  244 1    
   246  124  245 1    
   247  125  126 1    
   248  126  246 1    
   249  126  247 1    
@<TRIPOS>SUBSTRUCTURE
     1 UNK         1 GROUP             0       ****    0 ROOT    
