@<TRIPOS>MOLECULE
3R540
247   249    1
SMALL
USER_CHARGES


@<TRIPOS>ATOM
      1 CA         -1.0021  -12.0738  -45.1034 C.3       0 UNK        -0.1800 
      2 C           0.0268  -11.7896  -46.1889 C.2       0 UNK         0.5000 
      3 O           0.9337  -10.9847  -45.9783 O.2       0 UNK        -0.5000 
      4 N          -0.1177  -12.4280  -47.3577 N.am      1 UNK        -0.5000 
      5 CA          0.7719  -12.2405  -48.5102 C.3       1 UNK         0.1400 
      6 C6          0.0504  -12.5108  -49.8554 C.3       23 UNK        -0.0398 
      7 S7         -0.5730  -14.2169  -50.0605 S.3       23 UNK        -0.2404 
      8 C8          0.5709  -14.8305  -51.3368 C.3       23 UNK        -0.0205 
      9 C9          0.4778  -16.3382  -51.5080 C.ar      23 UNK        -0.0193 
     10 C10        -0.0110  -16.9005  -52.6909 C.ar      23 UNK        -0.1150 
     11 C11        -0.0333  -18.2895  -52.8586 C.ar      23 UNK        -0.0193 
     12 C12         0.4104  -19.1172  -51.8220 C.ar      23 UNK        -0.1150 
     13 C13         0.9032  -18.5647  -50.6366 C.ar      23 UNK        -0.0193 
     14 C14         0.9385  -17.1761  -50.4915 C.ar      23 UNK        -0.1150 
     15 C15         1.4541  -19.4514  -49.5306 C.3       23 UNK        -0.0205 
     16 S16         0.4253  -19.3902  -48.0326 S.3       23 UNK        -0.2404 
     17 C17        -0.7636  -20.7385  -48.3336 C.3       23 UNK        -0.0398 
     18 CA         -0.3740  -22.0357  -47.5876 C.3       11 UNK         0.1400 
     19 N          -0.2255  -21.8215  -46.1458 N.am      11 UNK        -0.5000 
     20 C           0.3018  -22.7088  -45.2936 C.2       10 UNK         0.5000 
     21 O           0.7589  -23.7978  -45.6374 O.2       10 UNK        -0.5000 
     22 CA          0.2584  -22.3350  -43.8035 C.3       10 UNK         0.1400 
     23 CB          1.4540  -21.4485  -43.4235 C.3       10 UNK        -0.1800 
     24 N          -0.9923  -21.6576  -43.4582 N.am      10 UNK        -0.5000 
     25 C          -2.1797  -22.2746  -43.3755 C.2       9 UNK         0.5000 
     26 O          -2.3315  -23.4841  -43.5477 O.2       9 UNK        -0.5000 
     27 CA         -3.4077  -21.3875  -43.0950 C.3       9 UNK         0.1400 
     28 CB         -3.5460  -21.1138  -41.5898 C.3       9 UNK        -0.1800 
     29 N          -3.3693  -20.1135  -43.8142 N.am      9 UNK        -0.5000 
     30 C          -3.4139  -19.9896  -45.1475 C.2       8 UNK         0.5000 
     31 O          -3.5198  -20.9381  -45.9218 O.2       8 UNK        -0.5000 
     32 CA         -3.2657  -18.5732  -45.7249 C.3       8 UNK         0.1400 
     33 CB         -4.6396  -17.9048  -45.8737 C.3       8 UNK        -0.1800 
     34 N          -2.3816  -17.6961  -44.9585 N.am      8 UNK        -0.5000 
     35 C          -1.1002  -17.9318  -44.6531 C.2       7 UNK         0.5000 
     36 O          -0.5337  -19.0052  -44.8571 O.2       7 UNK        -0.5000 
     37 CA         -0.3240  -16.7740  -44.0020 C.3       7 UNK         0.1400 
     38 CB         -0.2373  -15.5600  -44.9478 C.3       7 UNK        -0.1800 
     39 N          -0.8194  -16.3847  -42.6760 N.am      7 UNK        -0.5000 
     40 C          -2.0132  -15.8742  -42.3315 C.2       6 UNK         0.5000 
     41 O          -2.9373  -15.6664  -43.1186 O.2       6 UNK        -0.5000 
     42 CA         -2.1940  -15.5159  -40.8431 C.3       6 UNK         0.1400 
     43 CB         -2.6856  -16.7396  -40.0541 C.3       6 UNK        -0.1800 
     44 N          -0.9669  -14.9996  -40.2268 N.am      6 UNK        -0.5000 
     45 C          -0.3786  -13.8452  -40.5711 C.2       5 UNK         0.5000 
     46 O          -0.8587  -13.0632  -41.3963 O.2       5 UNK        -0.5000 
     47 CA          0.9648  -13.5097  -39.8963 C.3       5 UNK         0.1400 
     48 CB          1.8598  -14.7468  -39.6726 C.3       5 UNK        -0.1800 
     49 N           1.6647  -12.5481  -40.7379 N.am      5 UNK        -0.5000 
     50 C           2.5703  -11.6453  -40.3603 C.2       4 UNK         0.5000 
     51 O           2.9678  -11.5196  -39.2003 O.2       4 UNK        -0.5000 
     52 CA          3.1369  -10.7566  -41.4909 C.3       4 UNK         0.1400 
     53 CB          4.0090   -9.6052  -40.9581 C.3       4 UNK        -0.1800 
     54 N           3.9208  -11.5298  -42.4588 N.am      4 UNK        -0.5000 
     55 C           3.4239  -12.3718  -43.3739 C.2       3 UNK         0.5000 
     56 O           2.2174  -12.5835  -43.5302 O.2       3 UNK        -0.5000 
     57 CA          4.4451  -13.1350  -44.2289 C.3       3 UNK         0.1400 
     58 CB          5.1390  -14.2252  -43.3861 C.3       3 UNK        -0.1800 
     59 N           3.7294  -13.7351  -45.3486 N.am      3 UNK        -0.5000 
     60 C           4.2592  -14.3552  -46.4077 C.2       2 UNK         0.5000 
     61 O           5.4685  -14.4519  -46.6190 O.2       2 UNK        -0.5000 
     62 CA          3.2578  -14.9866  -47.3908 C.3       2 UNK         0.1400 
     63 CB          2.8103  -16.3609  -46.8633 C.3       2 UNK        -0.1800 
     64 N           2.0860  -14.1350  -47.6177 N.am      2 UNK        -0.5000 
     65 C           2.0950  -13.0295  -48.3795 C.2       1 UNK         0.5000 
     66 O           3.0947  -12.6229  -48.9734 O.2       1 UNK        -0.5000 
     67 C          -1.3640  -23.1830  -47.8862 C.2       11 UNK         0.5000 
     68 O          -1.0947  -24.0129  -48.7541 O.2       11 UNK        -0.5000 
     69 N          -2.4721  -23.2433  -47.1334 N.am      12 UNK        -0.5000 
     70 CA         -3.4613  -24.3192  -47.1879 C.3       12 UNK         0.1400 
     71 CB         -4.7093  -23.9219  -46.3871 C.3       12 UNK        -0.1800 
     72 C          -2.9005  -25.6659  -46.7011 C.2       12 UNK         0.5000 
     73 O          -3.1829  -26.6893  -47.3226 O.2       12 UNK        -0.5000 
     74 N          -2.0714  -25.6466  -45.6465 N.am      13 UNK        -0.5000 
     75 CA         -1.3368  -26.8177  -45.1540 C.3       13 UNK         0.1400 
     76 CB         -0.6678  -26.4854  -43.8121 C.3       13 UNK        -0.1800 
     77 C          -0.3040  -27.3480  -46.1707 C.2       13 UNK         0.5000 
     78 O          -0.0963  -28.5587  -46.2523 O.2       13 UNK        -0.5000 
     79 N           0.2795  -26.4386  -46.9636 N.am      14 UNK        -0.5000 
     80 CA          1.1452  -26.7339  -48.1082 C.3       14 UNK         0.1400 
     81 CB          2.0457  -25.5158  -48.3747 C.3       14 UNK        -0.1800 
     82 C           0.3688  -27.1420  -49.3826 C.2       14 UNK         0.5000 
     83 O           1.0025  -27.4285  -50.3991 O.2       14 UNK        -0.5000 
     84 N          -0.9715  -27.1695  -49.3114 N.am      15 UNK        -0.5000 
     85 CA         -1.9254  -27.5470  -50.3587 C.3       15 UNK         0.1400 
     86 CB         -1.7409  -29.0232  -50.7708 C.3       15 UNK        -0.1800 
     87 C          -1.9507  -26.5771  -51.5583 C.2       15 UNK         0.5000 
     88 O          -2.1996  -27.0057  -52.6867 O.2       15 UNK        -0.5000 
     89 N          -1.7218  -25.2845  -51.2977 N.am      16 UNK        -0.5000 
     90 CA         -1.7506  -24.2155  -52.2924 C.3       16 UNK         0.1400 
     91 CB         -0.3655  -24.0775  -52.9540 C.3       16 UNK        -0.1800 
     92 C          -2.2336  -22.9227  -51.6198 C.2       16 UNK         0.5000 
     93 O          -1.4913  -21.9435  -51.5748 O.2       16 UNK        -0.5000 
     94 N          -3.4482  -22.9771  -51.0502 N.am      17 UNK        -0.5000 
     95 CA         -4.1004  -21.9220  -50.2669 C.3       17 UNK         0.1400 
     96 CB         -5.5389  -22.3543  -49.9475 C.3       17 UNK        -0.1800 
     97 C          -4.0884  -20.5396  -50.9473 C.2       17 UNK         0.5000 
     98 O          -4.4969  -20.4297  -52.1066 O.2       17 UNK        -0.5000 
     99 N          -3.6240  -19.5288  -50.1999 N.am      18 UNK        -0.5000 
    100 CA        -3.3623  -18.1613  -50.6483 C.3       18 UNK         0.1400 
    101 CB        -2.8450  -17.3339  -49.4619 C.3       18 UNK        -0.1800 
    102 C         -4.5886  -17.4941  -51.2951 C.2       18 UNK         0.5000 
    103 O         -5.5622  -17.1971  -50.6006 O.2       18 UNK        -0.5000 
    104 N         -4.5120  -17.3110  -52.6198 N.am      19 UNK        -0.5000 
    105 CA        -5.5313  -16.7574  -53.5167 C.3       19 UNK         0.1400 
    106 CB        -5.8128  -15.2788  -53.1770 C.3       19 UNK        -0.1800 
    107 C         -6.8220  -17.6027  -53.6096 C.2       19 UNK         0.5000 
    108 O         -7.8463  -17.0883  -54.0627 O.2       19 UNK        -0.5000 
    109 N         -6.7564  -18.8768  -53.1997 N.am      20 UNK        -0.5000 
    110 CA        -7.8849  -19.8080  -53.1796 C.3       20 UNK         0.1400 
    111 CB        -8.2625  -20.1076  -51.7208 C.3       20 UNK        -0.1800 
    112 C         -7.5794  -21.1048  -53.9459 C.2       20 UNK         0.5000 
    113 O         -8.4899  -21.6603  -54.5621 O.2       20 UNK        -0.5000 
    114 N         -6.3210  -21.5625  -53.9157 N.am      21 UNK        -0.5000 
    115 CA        -5.8640  -22.7841  -54.5793 C.3       21 UNK         0.1400 
    116 CB        -6.0208  -23.9881  -53.6309 C.3       21 UNK        -0.1800 
    117 C         -4.4333  -22.6259  -55.1249 C.2       21 UNK         0.5000 
    118 O         -3.6969  -23.6091  -55.2078 O.2       21 UNK        -0.5000 
    119 N         -4.0627  -21.3957  -55.5033 N.am      22 UNK        -0.5000 
    120 CA        -2.7651  -21.0680  -56.1221 C.3       22 UNK         0.1400 
    121 C         -2.5945  -21.5774  -57.5855 C.2       22 UNK         0.5000 
    122 N         -3.6470  -22.0000  -58.2760 N.am      22 UNK        -0.7600 
    123 O         -1.4813  -21.5926  -58.1033 O.2       22 UNK        -0.5000 
    124 C124       -2.4580  -19.5515  -56.0441 C.3       23 UNK        -0.0398 
    125 S125       -2.2875  -18.9534  -54.3307 S.3       23 UNK        -0.2404 
    126 C126       -0.4785  -18.8896  -54.1827 C.3       23 UNK        -0.0205 
    127 H127       -1.7962  -12.7310  -45.4576 H         1 UNK         0.0600 
    128 H128       -1.4593  -11.1431  -44.7679 H         1 UNK         0.0600 
    129 H129       -0.5241  -12.5444  -44.2442 H         1 UNK         0.0600 
    130 H130       -0.8888  -13.0659  -47.4971 H         1 UNK         0.3000 
    131 H131        1.0587  -11.1866  -48.5333 H         1 UNK         0.0600 
    132 H132       -0.8034  -11.8378  -49.9441 H         1 UNK         0.0800 
    133 H133        0.7037  -12.2519  -50.6905 H         1 UNK         0.0800 
    134 H134        0.3633  -14.3202  -52.2786 H         1 UNK         0.0800 
    135 H135        1.5956  -14.5739  -51.0636 H         1 UNK         0.0800 
    136 H136       -0.3492  -16.2598  -53.4932 H         1 UNK         0.1150 
    137 H137        0.3985  -20.1903  -51.9503 H         1 UNK         0.1150 
    138 H138        1.3317  -16.7402  -49.5860 H         1 UNK         0.1150 
    139 H139        1.5638  -20.4834  -49.8676 H         1 UNK         0.0800 
    140 H140        2.4573  -19.1077  -49.2747 H         1 UNK         0.0800 
    141 H141       -0.8333  -20.9103  -49.4061 H         1 UNK         0.0800 
    142 H142       -1.7465  -20.3963  -48.0122 H         1 UNK         0.0800 
    143 H143        0.5993  -22.3527  -47.9681 H         1 UNK         0.0600 
    144 H144       -0.5219  -20.9212  -45.7852 H         1 UNK         0.3000 
    145 H145        0.3239  -23.2574  -43.2226 H         1 UNK         0.0600 
    146 H146        1.4387  -21.1991  -42.3625 H         1 UNK         0.0600 
    147 H147        2.3953  -21.9620  -43.6235 H         1 UNK         0.0600 
    148 H148        1.4658  -20.5158  -43.9878 H         1 UNK         0.0600 
    149 H149       -0.9580  -20.6486  -43.3993 H         1 UNK         0.3000 
    150 H150       -4.2933  -21.9338  -43.4261 H         1 UNK         0.0600 
    151 H151       -3.5928  -22.0468  -41.0265 H         1 UNK         0.0600 
    152 H152       -4.4584  -20.5583  -41.3723 H         1 UNK         0.0600 
    153 H153       -2.7029  -20.5390  -41.2042 H         1 UNK         0.0600 
    154 H154       -3.2703  -19.2759  -43.2603 H         1 UNK         0.3000 
    155 H155       -2.8265  -18.6744  -46.7180 H         1 UNK         0.0600 
    156 H156       -5.1182  -17.7522  -44.9055 H         1 UNK         0.0600 
    157 H157       -4.5561  -16.9334  -46.3611 H         1 UNK         0.0600 
    158 H158       -5.3090  -18.5159  -46.4808 H         1 UNK         0.0600 
    159 H159       -2.7736  -16.8153  -44.6374 H         1 UNK         0.3000 
    160 H160        0.6942  -17.1360  -43.8492 H         1 UNK         0.0600 
    161 H161        0.4798  -14.8271  -44.5776 H         1 UNK         0.0600 
    162 H162       -1.1987  -15.0610  -45.0626 H         1 UNK         0.0600 
    163 H163        0.0825  -15.8634  -45.9447 H         1 UNK         0.0600 
    164 H164       -0.1582  -16.5217  -41.9254 H         1 UNK         0.3000 
    165 H165       -2.9585  -14.7385  -40.7799 H         1 UNK         0.0600 
    166 H166       -2.8933  -16.4815  -39.0155 H         1 UNK         0.0600 
    167 H167       -3.6095  -17.1334  -40.4802 H         1 UNK         0.0600 
    168 H168       -1.9521  -17.5468  -40.0597 H         1 UNK         0.0600 
    169 H169       -0.5288  -15.5828  -39.5287 H         1 UNK         0.3000 
    170 H170        0.7394  -13.0466  -38.9338 H         1 UNK         0.0600 
    171 H171        2.8263  -14.4637  -39.2554 H         1 UNK         0.0600 
    172 H172        2.0468  -15.2795  -40.6060 H         1 UNK         0.0600 
    173 H173        1.4084  -15.4479  -38.9703 H         1 UNK         0.0600 
    174 H174        1.4023  -12.5736  -41.7204 H         1 UNK         0.3000 
    175 H175        2.2854  -10.3122  -42.0111 H         1 UNK         0.0600 
    176 H176        4.3355   -8.9515  -41.7671 H         1 UNK         0.0600 
    177 H177        4.8981   -9.9751  -40.4459 H         1 UNK         0.0600 
    178 H178        3.4532   -8.9894  -40.2499 H         1 UNK         0.0600 
    179 H179        4.9236  -11.4453  -42.3764 H         1 UNK         0.3000 
    180 H180        5.1826  -12.4281  -44.6138 H         1 UNK         0.0600 
    181 H181        4.4220  -14.9575  -43.0126 H         1 UNK         0.0600 
    182 H182        5.6470  -13.7947  -42.5224 H         1 UNK         0.0600 
    183 H183        5.8936  -14.7608  -43.9617 H         1 UNK         0.0600 
    184 H184        2.7238  -13.6479  -45.2678 H         1 UNK         0.3000 
    185 H185        3.7630  -15.1386  -48.3472 H         1 UNK         0.0600 
    186 H186        3.6453  -17.0624  -46.8622 H         1 UNK         0.0600 
    187 H187        2.4398  -16.3034  -45.8397 H         1 UNK         0.0600 
    188 H188        2.0240  -16.7967  -47.4762 H         1 UNK         0.0600 
    189 H189        1.2230  -14.4014  -47.1698 H         1 UNK         0.3000 
    190 H190       -2.6706  -22.4861  -46.4837 H         1 UNK         0.3000 
    191 H191       -3.7552  -24.4478  -48.2313 H         1 UNK         0.0600 
    192 H192       -5.1606  -23.0134  -46.7861 H         1 UNK         0.0600 
    193 H193       -5.4666  -24.7057  -46.4283 H         1 UNK         0.0600 
    194 H194       -4.4747  -23.7450  -45.3372 H         1 UNK         0.0600 
    195 H195       -1.9322  -24.7760  -45.1455 H         1 UNK         0.3000 
    196 H196       -2.0629  -27.6142  -44.9789 H         1 UNK         0.0600 
    197 H197       -0.1630  -27.3608  -43.4019 H         1 UNK         0.0600 
    198 H198       -1.4018  -26.1584  -43.0754 H         1 UNK         0.0600 
    199 H199        0.0774  -25.6974  -43.9148 H         1 UNK         0.0600 
    200 H200        0.1023  -25.4579  -46.7781 H         1 UNK         0.3000 
    201 H201        1.7901  -27.5745  -47.8449 H         1 UNK         0.0600 
    202 H202        2.6084  -25.2384  -47.4831 H         1 UNK         0.0600 
    203 H203        1.4685  -24.6469  -48.6889 H         1 UNK         0.0600 
    204 H204        2.7700  -25.7281  -49.1618 H         1 UNK         0.0600 
    205 H205       -1.3988  -26.9013  -48.4335 H         1 UNK         0.3000 
    206 H206       -2.9122  -27.4664  -49.9019 H         1 UNK         0.0600 
    207 H207       -1.7411  -29.6783  -49.8996 H         1 UNK         0.0600 
    208 H208       -2.5522  -29.3518  -51.4214 H         1 UNK         0.0600 
    209 H209       -0.8070  -29.1813  -51.3105 H         1 UNK         0.0600 
    210 H210       -1.5134  -24.9905  -50.3450 H         1 UNK         0.3000 
    211 H211       -2.4802  -24.4570  -53.0665 H         1 UNK         0.0600 
    212 H212        0.4081  -23.8519  -52.2189 H         1 UNK         0.0600 
    213 H213       -0.3653  -23.2762  -53.6941 H         1 UNK         0.0600 
    214 H214       -0.0809  -24.9950  -53.4688 H         1 UNK         0.0600 
    215 H215       -3.9633  -23.8396  -51.1377 H         1 UNK         0.3000 
    216 H216       -3.5586  -21.8445  -49.3245 H         1 UNK         0.0600 
    217 H217       -6.0436  -21.6083  -49.3322 H         1 UNK         0.0600 
    218 H218       -5.5610  -23.2937  -49.3961 H         1 UNK         0.0600 
    219 H219       -6.1289  -22.4885  -50.8545 H         1 UNK         0.0600 
    220 H220       -3.3796  -19.7182  -49.2419 H         1 UNK         0.3000 
    221 H221       -2.5600  -18.2126  -51.3859 H         1 UNK         0.0600 
    222 H222       -3.5678  -17.3012  -48.6471 H         1 UNK         0.0600 
    223 H223       -1.9092  -17.7353  -49.0739 H         1 UNK         0.0600 
    224 H224       -2.6518  -16.3053  -49.7655 H         1 UNK         0.0600 
    225 H225       -3.6836  -17.6584  -53.0889 H         1 UNK         0.3000 
    226 H226       -5.0907  -16.7840  -54.5142 H         1 UNK         0.0600 
    227 H227       -4.8886  -14.7030  -53.1263 H         1 UNK         0.0600 
    228 H228       -6.4406  -14.8136  -53.9377 H         1 UNK         0.0600 
    229 H229       -6.3271  -15.1734  -52.2214 H         1 UNK         0.0600 
    230 H230       -5.8749  -19.2241  -52.8355 H         1 UNK         0.3000 
    231 H231       -8.7566  -19.3631  -53.6637 H         1 UNK         0.0600 
    232 H232       -7.4127  -20.4893  -51.1569 H         1 UNK         0.0600 
    233 H233       -9.0611  -20.8484  -51.6626 H         1 UNK         0.0600 
    234 H234       -8.6150  -19.2075  -51.2170 H         1 UNK         0.0600 
    235 H235       -5.6218  -21.0844  -53.3491 H         1 UNK         0.3000 
    236 H236       -6.4851  -22.9691  -55.4580 H         1 UNK         0.0600 
    237 H237       -7.0506  -24.0906  -53.2886 H         1 UNK         0.0600 
    238 H238       -5.7533  -24.9205  -54.1294 H         1 UNK         0.0600 
    239 H239       -5.3849  -23.8910  -52.7535 H         1 UNK         0.0600 
    240 H240       -4.7195  -20.6367  -55.4037 H         1 UNK         0.3000 
    241 H241       -1.9949  -21.5835  -55.5444 H         1 UNK         0.0600 
    242 H242       -4.5680  -21.9919  -57.8690 H         1 UNK         0.3800 
    243 H243       -3.5199  -22.3303  -59.2200 H         1 UNK         0.3800 
    244 H244       -1.5441  -19.3095  -56.5898 H         1 UNK         0.0800 
    245 H245       -3.2514  -18.9806  -56.5290 H         1 UNK         0.0800 
    246 H246       -0.0652  -18.2964  -54.9998 H         1 UNK         0.0800 
    247 H247       -0.0762  -19.8975  -54.2978 H         1 UNK         0.0800 
@<TRIPOS>BOND
     1    1    2 1    
     2    1  127 1    
     3    1  128 1    
     4    1  129 1    
     5    2    3 2    
     6    2    4 am   BACKBONE|DICT|INTERRES
     7    4    5 1    
     8    4  130 1    
     9    5    6 1    
    10    5   65 1    
    11    5  131 1    
    12    6    7 1    
    13    6  132 1    
    14    6  133 1    
    15    7    8 1    
    16    8    9 1    
    17    8  134 1    
    18    8  135 1    
    19    9   10 ar   
    20    9   14 ar   
    21   10   11 ar   
    22   10  136 1    
    23   11   12 ar   
    24   11  126 1    
    25   12   13 ar   
    26   12  137 1    
    27   13   14 ar   
    28   13   15 1    
    29   14  138 1    
    30   15   16 1    
    31   15  139 1    
    32   15  140 1    
    33   16   17 1    
    34   17   18 1    
    35   17  141 1    
    36   17  142 1    
    37   18   19 1    
    38   18   67 1    
    39   18  143 1    
    40   19   20 am   BACKBONE|DICT|INTERRES
    41   19  144 1    
    42   20   21 2    
    43   20   22 1    
    44   22   23 1    
    45   22   24 1    
    46   22  145 1    
    47   23  146 1    
    48   23  147 1    
    49   23  148 1    
    50   24   25 am   BACKBONE|DICT|INTERRES
    51   24  149 1    
    52   25   26 2    
    53   25   27 1    
    54   27   28 1    
    55   27   29 1    
    56   27  150 1    
    57   28  151 1    
    58   28  152 1    
    59   28  153 1    
    60   29   30 am   BACKBONE|DICT|INTERRES
    61   29  154 1    
    62   30   31 2    
    63   30   32 1    
    64   32   33 1    
    65   32   34 1    
    66   32  155 1    
    67   33  156 1    
    68   33  157 1    
    69   33  158 1    
    70   34   35 am   BACKBONE|DICT|INTERRES
    71   34  159 1    
    72   35   36 2    
    73   35   37 1    
    74   37   38 1    
    75   37   39 1    
    76   37  160 1    
    77   38  161 1    
    78   38  162 1    
    79   38  163 1    
    80   39   40 am   BACKBONE|DICT|INTERRES
    81   39  164 1    
    82   40   41 2    
    83   40   42 1    
    84   42   43 1    
    85   42   44 1    
    86   42  165 1    
    87   43  166 1    
    88   43  167 1    
    89   43  168 1    
    90   44   45 am   BACKBONE|DICT|INTERRES
    91   44  169 1    
    92   45   46 2    
    93   45   47 1    
    94   47   48 1    
    95   47   49 1    
    96   47  170 1    
    97   48  171 1    
    98   48  172 1    
    99   48  173 1    
   100   49   50 am   BACKBONE|DICT|INTERRES
   101   49  174 1    
   102   50   51 2    
   103   50   52 1    
   104   52   53 1    
   105   52   54 1    
   106   52  175 1    
   107   53  176 1    
   108   53  177 1    
   109   53  178 1    
   110   54   55 am   BACKBONE|DICT|INTERRES
   111   54  179 1    
   112   55   56 2    
   113   55   57 1    
   114   57   58 1    
   115   57   59 1    
   116   57  180 1    
   117   58  181 1    
   118   58  182 1    
   119   58  183 1    
   120   59   60 am   BACKBONE|DICT|INTERRES
   121   59  184 1    
   122   60   61 2    
   123   60   62 1    
   124   62   63 1    
   125   62   64 1    
   126   62  185 1    
   127   63  186 1    
   128   63  187 1    
   129   63  188 1    
   130   64   65 am   BACKBONE|DICT|INTERRES
   131   64  189 1    
   132   65   66 2    
   133   67   68 2    
   134   67   69 am   BACKBONE|DICT|INTERRES
   135   69   70 1    
   136   69  190 1    
   137   70   71 1    
   138   70   72 1    
   139   70  191 1    
   140   71  192 1    
   141   71  193 1    
   142   71  194 1    
   143   72   73 2    
   144   72   74 am   BACKBONE|DICT|INTERRES
   145   74   75 1    
   146   74  195 1    
   147   75   76 1    
   148   75   77 1    
   149   75  196 1    
   150   76  197 1    
   151   76  198 1    
   152   76  199 1    
   153   77   78 2    
   154   77   79 am   BACKBONE|DICT|INTERRES
   155   79   80 1    
   156   79  200 1    
   157   80   81 1    
   158   80   82 1    
   159   80  201 1    
   160   81  202 1    
   161   81  203 1    
   162   81  204 1    
   163   82   83 2    
   164   82   84 am   BACKBONE|DICT|INTERRES
   165   84   85 1    
   166   84  205 1    
   167   85   86 1    
   168   85   87 1    
   169   85  206 1    
   170   86  207 1    
   171   86  208 1    
   172   86  209 1    
   173   87   88 2    
   174   87   89 am   BACKBONE|DICT|INTERRES
   175   89   90 1    
   176   89  210 1    
   177   90   91 1    
   178   90   92 1    
   179   90  211 1    
   180   91  212 1    
   181   91  213 1    
   182   91  214 1    
   183   92   93 2    
   184   92   94 am   BACKBONE|DICT|INTERRES
   185   94   95 1    
   186   94  215 1    
   187   95   96 1    
   188   95   97 1    
   189   95  216 1    
   190   96  217 1    
   191   96  218 1    
   192   96  219 1    
   193   97   98 2    
   194   97   99 am   BACKBONE|DICT|INTERRES
   195   99  100 1    
   196   99  220 1    
   197  100  101 1    
   198  100  102 1    
   199  100  221 1    
   200  101  222 1    
   201  101  223 1    
   202  101  224 1    
   203  102  103 2    
   204  102  104 am   BACKBONE|DICT|INTERRES
   205  104  105 1    
   206  104  225 1    
   207  105  106 1    
   208  105  107 1    
   209  105  226 1    
   210  106  227 1    
   211  106  228 1    
   212  106  229 1    
   213  107  108 2    
   214  107  109 am   BACKBONE|DICT|INTERRES
   215  109  110 1    
   216  109  230 1    
   217  110  111 1    
   218  110  112 1    
   219  110  231 1    
   220  111  232 1    
   221  111  233 1    
   222  111  234 1    
   223  112  113 2    
   224  112  114 am   BACKBONE|DICT|INTERRES
   225  114  115 1    
   226  114  235 1    
   227  115  116 1    
   228  115  117 1    
   229  115  236 1    
   230  116  237 1    
   231  116  238 1    
   232  116  239 1    
   233  117  118 2    
   234  117  119 am   BACKBONE|DICT|INTERRES
   235  119  120 1    
   236  119  240 1    
   237  120  121 1    
   238  120  124 1    
   239  120  241 1    
   240  121  122 am   BACKBONE|DICT|INTERRES
   241  121  123 2    
   242  122  242 1    
   243  122  243 1    
   244  124  125 1    
   245  124  244 1    
   246  124  245 1    
   247  125  126 1    
   248  126  246 1    
   249  126  247 1    
@<TRIPOS>SUBSTRUCTURE
     1 UNK         1 GROUP             0       ****    0 ROOT    
