@<TRIPOS>MOLECULE
3R540
247   249    1
SMALL
USER_CHARGES


@<TRIPOS>ATOM
      1 CA          2.7543  -10.2660  -50.5717 C.3       0 UNK        -0.1800 
      2 C           2.7894  -11.4685  -49.6394 C.2       0 UNK         0.5000 
      3 O           1.8867  -11.6315  -48.8216 O.2       0 UNK        -0.5000 
      4 N           3.8298  -12.3043  -49.7602 N.am      1 UNK        -0.5000 
      5 CA          4.0602  -13.5276  -48.9731 C.3       1 UNK         0.1400 
      6 C6          2.9623  -14.6207  -49.1465 C.3       23 UNK        -0.0398 
      7 S7          2.5764  -14.9875  -50.8950 S.3       23 UNK        -0.2404 
      8 C8          3.7526  -16.3218  -51.2874 C.3       23 UNK        -0.0205 
      9 C9          3.0529  -17.6532  -51.5244 C.ar      23 UNK        -0.0193 
     10 C10         2.2744  -17.8371  -52.6707 C.ar      23 UNK        -0.1150 
     11 C11         1.6626  -19.0671  -52.9296 C.ar      23 UNK        -0.0193 
     12 C12         1.8453  -20.1266  -52.0348 C.ar      23 UNK        -0.1150 
     13 C13         2.6242  -19.9581  -50.8853 C.ar      23 UNK        -0.0193 
     14 C14         3.2203  -18.7171  -50.6334 C.ar      23 UNK        -0.1150 
     15 C15         2.8740  -21.1254  -49.9406 C.3       23 UNK        -0.0205 
     16 S16         2.0561  -20.8942  -48.3315 S.3       23 UNK        -0.2404 
     17 C17         0.3715  -21.5323  -48.6327 C.3       23 UNK        -0.0398 
     18 CA         -0.0222  -22.5861  -47.5695 C.3       11 UNK         0.1400 
     19 N          -0.1349  -22.0182  -46.2231 N.am      11 UNK        -0.5000 
     20 C          -0.2180  -22.7432  -45.0999 C.2       10 UNK         0.5000 
     21 O          -0.2012  -23.9732  -45.0808 O.2       10 UNK        -0.5000 
     22 CA         -0.3936  -21.9722  -43.7806 C.3       10 UNK         0.1400 
     23 CB          0.9363  -21.3545  -43.3234 C.3       10 UNK        -0.1800 
     24 N          -1.4229  -20.9358  -43.8643 N.am      10 UNK        -0.5000 
     25 C          -2.7232  -21.1752  -44.0867 C.2       9 UNK         0.5000 
     26 O          -3.1958  -22.3030  -44.2262 O.2       9 UNK        -0.5000 
     27 CA         -3.6478  -19.9511  -44.2121 C.3       9 UNK         0.1400 
     28 CB         -3.9932  -19.3786  -42.8294 C.3       9 UNK        -0.1800 
     29 N          -3.0767  -18.8996  -45.0516 N.am      9 UNK        -0.5000 
     30 C          -2.8126  -19.0367  -46.3592 C.2       8 UNK         0.5000 
     31 O          -3.0654  -20.0475  -47.0143 O.2       8 UNK        -0.5000 
     32 CA         -2.0952  -17.8656  -47.0451 C.3       8 UNK         0.1400 
     33 CB         -3.0914  -16.7535  -47.4050 C.3       8 UNK        -0.1800 
     34 N          -0.9960  -17.3243  -46.2474 N.am      8 UNK        -0.5000 
     35 C           0.0763  -18.0340  -45.8674 C.2       7 UNK         0.5000 
     36 O           0.2452  -19.2184  -46.1469 O.2       7 UNK        -0.5000 
     37 CA          1.1028  -17.3274  -44.9703 C.3       7 UNK         0.1400 
     38 CB          1.9793  -16.3681  -45.7853 C.3       7 UNK        -0.1800 
     39 N           0.4711  -16.6053  -43.8701 N.am      7 UNK        -0.5000 
     40 C          -0.2606  -17.1709  -42.9010 C.2       6 UNK         0.5000 
     41 O          -0.4555  -18.3821  -42.8014 O.2       6 UNK        -0.5000 
     42 CA         -0.9258  -16.2114  -41.9024 C.3       6 UNK         0.1400 
     43 CB          0.0785  -15.7356  -40.8415 C.3       6 UNK        -0.1800 
     44 N          -1.5148  -15.0554  -42.5763 N.am      6 UNK        -0.5000 
     45 C          -2.5956  -15.1121  -43.3660 C.2       5 UNK         0.5000 
     46 O          -3.2267  -16.1452  -43.5941 O.2       5 UNK        -0.5000 
     47 CA         -3.0245  -13.7933  -44.0335 C.3       5 UNK         0.1400 
     48 CB         -3.8447  -12.9329  -43.0606 C.3       5 UNK        -0.1800 
     49 N          -1.8943  -13.0115  -44.5409 N.am      5 UNK        -0.5000 
     50 C          -1.1164  -13.3979  -45.5611 C.2       4 UNK         0.5000 
     51 O          -1.2377  -14.4733  -46.1443 O.2       4 UNK        -0.5000 
     52 CA         -0.0054  -12.4284  -45.9976 C.3       4 UNK         0.1400 
     53 CB         -0.6168  -11.1968  -46.6860 C.3       4 UNK        -0.1800 
     54 N           0.9064  -11.9783  -44.9424 N.am      4 UNK        -0.5000 
     55 C           1.4636  -12.7072  -43.9662 C.2       3 UNK         0.5000 
     56 O           1.1474  -13.8647  -43.6914 O.2       3 UNK        -0.5000 
     57 CA          2.6187  -12.0269  -43.2062 C.3       3 UNK         0.1400 
     58 CB          2.9249  -12.7169  -41.8647 C.3       3 UNK        -0.1800 
     59 N           3.8298  -12.0331  -44.0271 N.am      3 UNK        -0.5000 
     60 C           4.0616  -11.2330  -45.0763 C.2       2 UNK         0.5000 
     61 O           3.3109  -10.3123  -45.4057 O.2       2 UNK        -0.5000 
     62 CA          5.3297  -11.5004  -45.9135 C.3       2 UNK         0.1400 
     63 CB          6.3934  -12.3657  -45.1995 C.3       2 UNK        -0.1800 
     64 N           4.9910  -12.0574  -47.2279 N.am      2 UNK        -0.5000 
     65 C           4.3624  -13.2168  -47.4860 C.2       1 UNK         0.5000 
     66 O           4.0382  -14.0216  -46.6136 O.2       1 UNK        -0.5000 
     67 C          -1.2928  -23.3612  -47.9712 C.2       11 UNK         0.5000 
     68 O          -1.1722  -24.4191  -48.5896 O.2       11 UNK        -0.5000 
     69 N          -2.4774  -22.8682  -47.5790 N.am      12 UNK        -0.5000 
     70 CA         -3.7515  -23.5670  -47.7522 C.3       12 UNK         0.1400 
     71 CB         -4.9196  -22.6327  -47.4070 C.3       12 UNK        -0.1800 
     72 C          -3.8254  -24.8721  -46.9394 C.2       12 UNK         0.5000 
     73 O          -4.2168  -25.9020  -47.4879 O.2       12 UNK        -0.5000 
     74 N          -3.4096  -24.8208  -45.6654 N.am      13 UNK        -0.5000 
     75 CA         -3.3473  -25.9735  -44.7617 C.3       13 UNK         0.1400 
     76 CB         -3.0277  -25.4940  -43.3378 C.3       13 UNK        -0.1800 
     77 C          -2.3374  -27.0453  -45.2154 C.2       13 UNK         0.5000 
     78 O          -2.6191  -28.2378  -45.0937 O.2       13 UNK        -0.5000 
     79 N          -1.1968  -26.6023  -45.7603 N.am      14 UNK        -0.5000 
     80 CA         -0.1565  -27.4513  -46.3448 C.3       14 UNK         0.1400 
     81 CB          1.1391  -26.6316  -46.4578 C.3       14 UNK        -0.1800 
     82 C          -0.5323  -28.0368  -47.7221 C.2       14 UNK         0.5000 
     83 O           0.1743  -28.9226  -48.2045 O.2       14 UNK        -0.5000 
     84 N          -1.6045  -27.5168  -48.3399 N.am      15 UNK        -0.5000 
     85 CA         -2.0839  -27.8030  -49.6973 C.3       15 UNK         0.1400 
     86 CB         -2.5239  -29.2749  -49.8397 C.3       15 UNK        -0.1800 
     87 C          -1.0950  -27.3549  -50.7970 C.2       15 UNK         0.5000 
     88 O          -1.1038  -27.9015  -51.9012 O.2       15 UNK        -0.5000 
     89 N          -0.2773  -26.3430  -50.4801 N.am      16 UNK        -0.5000 
     90 CA          0.6073  -25.6400  -51.4091 C.3       16 UNK         0.1400 
     91 CB          1.7927  -25.0682  -50.6152 C.3       16 UNK        -0.1800 
     92 C          -0.1358  -24.5136  -52.1546 C.2       16 UNK         0.5000 
     93 O           0.3455  -24.0423  -53.1851 O.2       16 UNK        -0.5000 
     94 N          -1.2904  -24.1087  -51.6175 N.am      17 UNK        -0.5000 
     95 CA         -2.2070  -23.1157  -52.1542 C.3       17 UNK         0.1400 
     96 CB         -1.8553  -21.7403  -51.5617 C.3       17 UNK        -0.1800 
     97 C          -3.6455  -23.5241  -51.7973 C.2       17 UNK         0.5000 
     98 O          -3.8714  -24.6159  -51.2681 O.2       17 UNK        -0.5000 
     99 N          -4.5844  -22.6133  -52.0599 N.am      18 UNK        -0.5000 
    100 CA        -5.9486  -22.6260  -51.5502 C.3       18 UNK         0.1400 
    101 CB        -6.9269  -22.8362  -52.7161 C.3       18 UNK        -0.1800 
    102 C         -6.1871  -21.2641  -50.8868 C.2       18 UNK         0.5000 
    103 O         -5.6011  -20.2676  -51.3220 O.2       18 UNK        -0.5000 
    104 N         -7.0580  -21.2268  -49.8712 N.am      19 UNK        -0.5000 
    105 CA        -7.3751  -20.0198  -49.0967 C.3       19 UNK         0.1400 
    106 CB        -8.2038  -20.4170  -47.8658 C.3       19 UNK        -0.1800 
    107 C         -8.0994  -18.9292  -49.9126 C.2       19 UNK         0.5000 
    108 O         -8.0015  -17.7499  -49.5743 O.2       19 UNK        -0.5000 
    109 N         -8.7912  -19.3421  -50.9832 N.am      20 UNK        -0.5000 
    110 CA        -9.4191  -18.4616  -51.9699 C.3       20 UNK         0.1400 
    111 CB       -10.5358  -19.2444  -52.6792 C.3       20 UNK        -0.1800 
    112 C         -8.4178  -17.8969  -53.0012 C.2       20 UNK         0.5000 
    113 O         -8.7764  -16.9809  -53.7431 O.2       20 UNK        -0.5000 
    114 N         -7.2022  -18.4569  -53.0463 N.am      21 UNK        -0.5000 
    115 CA        -6.1064  -18.0605  -53.9227 C.3       21 UNK         0.1400 
    116 CB        -5.6487  -19.2958  -54.7272 C.3       21 UNK        -0.1800 
    117 C         -4.9971  -17.4170  -53.0672 C.2       21 UNK         0.5000 
    118 O         -5.2886  -16.5168  -52.2773 O.2       21 UNK        -0.5000 
    119 N         -3.7498  -17.8670  -53.2432 N.am      22 UNK        -0.5000 
    120 CA        -2.5575  -17.3828  -52.5302 C.3       22 UNK         0.1400 
    121 C         -2.3761  -17.9210  -51.0784 C.2       22 UNK         0.5000 
    122 N         -3.2549  -18.7654  -50.5480 N.am      22 UNK        -0.7600 
    123 O         -1.4192  -17.5453  -50.4100 O.2       22 UNK        -0.5000 
    124 C124       -1.2781  -17.5495  -53.3941 C.3       23 UNK        -0.0398 
    125 S125       -0.9487  -19.2749  -53.9012 S.3       23 UNK        -0.2404 
    126 C126        0.8474  -19.2611  -54.2016 C.3       23 UNK        -0.0205 
    127 H127        2.7477   -9.3429  -49.9921 H         1 UNK         0.0600 
    128 H128        1.8522  -10.2928  -51.1829 H         1 UNK         0.0600 
    129 H129        3.6165  -10.2435  -51.2386 H         1 UNK         0.0600 
    130 H130        4.5284  -12.1116  -50.4645 H         1 UNK         0.3000 
    131 H131        4.9865  -13.9502  -49.3648 H         1 UNK         0.0600 
    132 H132        3.2571  -15.5471  -48.6512 H         1 UNK         0.0800 
    133 H133        2.0364  -14.3085  -48.6609 H         1 UNK         0.0800 
    134 H134        4.2977  -16.0465  -52.1913 H         1 UNK         0.0800 
    135 H135        4.5046  -16.4118  -50.5023 H         1 UNK         0.0800 
    136 H136        2.1524  -17.0186  -53.3663 H         1 UNK         0.1150 
    137 H137        1.3966  -21.0867  -52.2466 H         1 UNK         0.1150 
    138 H138        3.8307  -18.5893  -49.7504 H         1 UNK         0.1150 
    139 H139        2.5652  -22.0704  -50.3887 H         1 UNK         0.0800 
    140 H140        3.9482  -21.2118  -49.7712 H         1 UNK         0.0800 
    141 H141        0.3346  -21.9661  -49.6325 H         1 UNK         0.0800 
    142 H142       -0.3292  -20.6951  -48.6314 H         1 UNK         0.0800 
    143 H143        0.7810  -23.3251  -47.5341 H         1 UNK         0.0600 
    144 H144       -0.1082  -21.0012  -46.1578 H         1 UNK         0.3000 
    145 H145       -0.7092  -22.6893  -43.0200 H         1 UNK         0.0600 
    146 H146        0.8359  -20.8843  -42.3451 H         1 UNK         0.0600 
    147 H147        1.7127  -22.1161  -43.2407 H         1 UNK         0.0600 
    148 H148        1.2918  -20.5973  -44.0224 H         1 UNK         0.0600 
    149 H149       -1.1136  -19.9775  -43.7290 H         1 UNK         0.3000 
    150 H150       -4.5756  -20.2840  -44.6819 H         1 UNK         0.0600 
    151 H151       -4.7154  -18.5660  -42.9097 H         1 UNK         0.0600 
    152 H152       -3.1105  -18.9901  -42.3207 H         1 UNK         0.0600 
    153 H153       -4.4331  -20.1436  -42.1884 H         1 UNK         0.0600 
    154 H154       -2.8509  -18.0233  -44.5947 H         1 UNK         0.3000 
    155 H155       -1.6598  -18.2531  -47.9660 H         1 UNK         0.0600 
    156 H156       -3.9274  -17.1475  -47.9845 H         1 UNK         0.0600 
    157 H157       -3.5012  -16.2752  -46.5147 H         1 UNK         0.0600 
    158 H158       -2.6142  -15.9838  -48.0118 H         1 UNK         0.0600 
    159 H159       -1.0521  -16.3368  -46.0098 H         1 UNK         0.3000 
    160 H160        1.7503  -18.0922  -44.5370 H         1 UNK         0.0600 
    161 H161        2.7590  -15.9293  -45.1628 H         1 UNK         0.0600 
    162 H162        1.3982  -15.5510  -46.2140 H         1 UNK         0.0600 
    163 H163        2.4719  -16.8899  -46.6065 H         1 UNK         0.0600 
    164 H164        0.5987  -15.5949  -43.8572 H         1 UNK         0.3000 
    165 H165       -1.7248  -16.7562  -41.3949 H         1 UNK         0.0600 
    166 H166       -0.4031  -15.0965  -40.1013 H         1 UNK         0.0600 
    167 H167        0.5104  -16.5831  -40.3078 H         1 UNK         0.0600 
    168 H168        0.9014  -15.1741  -41.2848 H         1 UNK         0.0600 
    169 H169       -1.0082  -14.1841  -42.5113 H         1 UNK         0.3000 
    170 H170       -3.6644  -14.0477  -44.8813 H         1 UNK         0.0600 
    171 H171       -3.2508  -12.6150  -42.2027 H         1 UNK         0.0600 
    172 H172       -4.2293  -12.0394  -43.5527 H         1 UNK         0.0600 
    173 H173       -4.7031  -13.4871  -42.6786 H         1 UNK         0.0600 
    174 H174       -1.7149  -12.1201  -44.1028 H         1 UNK         0.3000 
    175 H175        0.6098  -12.9543  -46.7303 H         1 UNK         0.0600 
    176 H176        0.1571  -10.5419  -47.0861 H         1 UNK         0.0600 
    177 H177       -1.2249  -10.6079  -45.9986 H         1 UNK         0.0600 
    178 H178       -1.2533  -11.4920  -47.5213 H         1 UNK         0.0600 
    179 H179        1.3195  -11.0670  -45.1007 H         1 UNK         0.3000 
    180 H180        2.3292  -10.9951  -42.9956 H         1 UNK         0.0600 
    181 H181        3.2523  -13.7481  -42.0040 H         1 UNK         0.0600 
    182 H182        2.0409  -12.7363  -41.2261 H         1 UNK         0.0600 
    183 H183        3.7073  -12.1884  -41.3200 H         1 UNK         0.0600 
    184 H184        4.4698  -12.7973  -43.8675 H         1 UNK         0.3000 
    185 H185        5.7792  -10.5239  -46.0998 H         1 UNK         0.0600 
    186 H186        6.0485  -13.3814  -45.0050 H         1 UNK         0.0600 
    187 H187        7.2996  -12.4382  -45.8009 H         1 UNK         0.0600 
    188 H188        6.6790  -11.9243  -44.2438 H         1 UNK         0.0600 
    189 H189        5.1796  -11.4522  -48.0143 H         1 UNK         0.3000 
    190 H190       -2.5157  -21.9665  -47.1134 H         1 UNK         0.3000 
    191 H191       -3.8418  -23.8325  -48.8048 H         1 UNK         0.0600 
    192 H192       -4.9074  -21.7435  -48.0364 H         1 UNK         0.0600 
    193 H193       -5.8775  -23.1299  -47.5629 H         1 UNK         0.0600 
    194 H194       -4.8838  -22.3047  -46.3683 H         1 UNK         0.0600 
    195 H195       -3.1401  -23.9229  -45.2717 H         1 UNK         0.3000 
    196 H196       -4.3356  -26.4377  -44.7482 H         1 UNK         0.0600 
    197 H197       -2.9909  -26.3323  -42.6411 H         1 UNK         0.0600 
    198 H198       -3.7887  -24.8028  -42.9753 H         1 UNK         0.0600 
    199 H199       -2.0649  -24.9844  -43.2912 H         1 UNK         0.0600 
    200 H200       -1.0079  -25.6035  -45.7434 H         1 UNK         0.3000 
    201 H201        0.0259  -28.2901  -45.6701 H         1 UNK         0.0600 
    202 H202        1.4537  -26.2540  -45.4848 H         1 UNK         0.0600 
    203 H203        1.0153  -25.7777  -47.1247 H         1 UNK         0.0600 
    204 H204        1.9565  -27.2381  -46.8497 H         1 UNK         0.0600 
    205 H205       -2.1137  -26.7894  -47.8538 H         1 UNK         0.3000 
    206 H206       -2.9723  -27.1838  -49.8311 H         1 UNK         0.0600 
    207 H207       -3.2158  -29.5572  -49.0461 H         1 UNK         0.0600 
    208 H208       -3.0363  -29.4383  -50.7884 H         1 UNK         0.0600 
    209 H209       -1.6759  -29.9590  -49.8067 H         1 UNK         0.0600 
    210 H210       -0.4018  -25.9066  -49.5715 H         1 UNK         0.3000 
    211 H211        0.9918  -26.3421  -52.1517 H         1 UNK         0.0600 
    212 H212        1.4643  -24.3562  -49.8575 H         1 UNK         0.0600 
    213 H213        2.4914  -24.5507  -51.2738 H         1 UNK         0.0600 
    214 H214        2.3468  -25.8601  -50.1109 H         1 UNK         0.0600 
    215 H215       -1.6234  -24.5780  -50.7836 H         1 UNK         0.3000 
    216 H216       -2.1243  -23.0826  -53.2425 H         1 UNK         0.0600 
    217 H217       -2.4485  -20.9529  -52.0238 H         1 UNK         0.0600 
    218 H218       -0.8103  -21.4895  -51.7322 H         1 UNK         0.0600 
    219 H219       -2.0415  -21.7013  -50.4881 H         1 UNK         0.0600 
    220 H220       -4.2998  -21.7171  -52.4312 H         1 UNK         0.3000 
    221 H221       -6.0825  -23.4139  -50.8058 H         1 UNK         0.0600 
    222 H222       -6.7372  -23.7843  -53.2195 H         1 UNK         0.0600 
    223 H223       -7.9588  -22.8561  -52.3638 H         1 UNK         0.0600 
    224 H224       -6.8478  -22.0422  -53.4600 H         1 UNK         0.0600 
    225 H225       -7.5187  -22.0779  -49.5829 H         1 UNK         0.3000 
    226 H226       -6.4332  -19.5901  -48.7477 H         1 UNK         0.0600 
    227 H227       -7.6594  -21.1175  -47.2324 H         1 UNK         0.0600 
    228 H228       -8.4380  -19.5445  -47.2543 H         1 UNK         0.0600 
    229 H229       -9.1485  -20.8823  -48.1497 H         1 UNK         0.0600 
    230 H230       -8.8302  -20.3326  -51.1722 H         1 UNK         0.3000 
    231 H231       -9.8717  -17.6133  -51.4521 H         1 UNK         0.0600 
    232 H232      -10.1421  -20.1054  -53.2210 H         1 UNK         0.0600 
    233 H233      -11.0590  -18.6146  -53.3999 H         1 UNK         0.0600 
    234 H234      -11.2783  -19.6054  -51.9673 H         1 UNK         0.0600 
    235 H235       -6.9567  -19.1420  -52.3417 H         1 UNK         0.3000 
    236 H236       -6.4369  -17.3003  -54.6329 H         1 UNK         0.0600 
    237 H237       -6.4804  -19.7220  -55.2885 H         1 UNK         0.0600 
    238 H238       -4.8781  -19.0348  -55.4536 H         1 UNK         0.0600 
    239 H239       -5.2533  -20.0811  -54.0820 H         1 UNK         0.0600 
    240 H240       -3.5879  -18.6208  -53.8946 H         1 UNK         0.3000 
    241 H241       -2.6876  -16.3070  -52.3982 H         1 UNK         0.0600 
    242 H242       -3.1075  -19.0971  -49.6103 H         1 UNK         0.3800 
    243 H243       -4.0691  -19.0842  -51.0612 H         1 UNK         0.3800 
    244 H244       -1.3708  -16.9492  -54.2999 H         1 UNK         0.0800 
    245 H245       -0.4146  -17.1457  -52.8649 H         1 UNK         0.0800 
    246 H246        1.0820  -18.4867  -54.9335 H         1 UNK         0.0800 
    247 H247        1.1294  -20.2085  -54.6632 H         1 UNK         0.0800 
@<TRIPOS>BOND
     1    1    2 1    
     2    1  127 1    
     3    1  128 1    
     4    1  129 1    
     5    2    3 2    
     6    2    4 am   BACKBONE|DICT|INTERRES
     7    4    5 1    
     8    4  130 1    
     9    5    6 1    
    10    5   65 1    
    11    5  131 1    
    12    6    7 1    
    13    6  132 1    
    14    6  133 1    
    15    7    8 1    
    16    8    9 1    
    17    8  134 1    
    18    8  135 1    
    19    9   10 ar   
    20    9   14 ar   
    21   10   11 ar   
    22   10  136 1    
    23   11   12 ar   
    24   11  126 1    
    25   12   13 ar   
    26   12  137 1    
    27   13   14 ar   
    28   13   15 1    
    29   14  138 1    
    30   15   16 1    
    31   15  139 1    
    32   15  140 1    
    33   16   17 1    
    34   17   18 1    
    35   17  141 1    
    36   17  142 1    
    37   18   19 1    
    38   18   67 1    
    39   18  143 1    
    40   19   20 am   BACKBONE|DICT|INTERRES
    41   19  144 1    
    42   20   21 2    
    43   20   22 1    
    44   22   23 1    
    45   22   24 1    
    46   22  145 1    
    47   23  146 1    
    48   23  147 1    
    49   23  148 1    
    50   24   25 am   BACKBONE|DICT|INTERRES
    51   24  149 1    
    52   25   26 2    
    53   25   27 1    
    54   27   28 1    
    55   27   29 1    
    56   27  150 1    
    57   28  151 1    
    58   28  152 1    
    59   28  153 1    
    60   29   30 am   BACKBONE|DICT|INTERRES
    61   29  154 1    
    62   30   31 2    
    63   30   32 1    
    64   32   33 1    
    65   32   34 1    
    66   32  155 1    
    67   33  156 1    
    68   33  157 1    
    69   33  158 1    
    70   34   35 am   BACKBONE|DICT|INTERRES
    71   34  159 1    
    72   35   36 2    
    73   35   37 1    
    74   37   38 1    
    75   37   39 1    
    76   37  160 1    
    77   38  161 1    
    78   38  162 1    
    79   38  163 1    
    80   39   40 am   BACKBONE|DICT|INTERRES
    81   39  164 1    
    82   40   41 2    
    83   40   42 1    
    84   42   43 1    
    85   42   44 1    
    86   42  165 1    
    87   43  166 1    
    88   43  167 1    
    89   43  168 1    
    90   44   45 am   BACKBONE|DICT|INTERRES
    91   44  169 1    
    92   45   46 2    
    93   45   47 1    
    94   47   48 1    
    95   47   49 1    
    96   47  170 1    
    97   48  171 1    
    98   48  172 1    
    99   48  173 1    
   100   49   50 am   BACKBONE|DICT|INTERRES
   101   49  174 1    
   102   50   51 2    
   103   50   52 1    
   104   52   53 1    
   105   52   54 1    
   106   52  175 1    
   107   53  176 1    
   108   53  177 1    
   109   53  178 1    
   110   54   55 am   BACKBONE|DICT|INTERRES
   111   54  179 1    
   112   55   56 2    
   113   55   57 1    
   114   57   58 1    
   115   57   59 1    
   116   57  180 1    
   117   58  181 1    
   118   58  182 1    
   119   58  183 1    
   120   59   60 am   BACKBONE|DICT|INTERRES
   121   59  184 1    
   122   60   61 2    
   123   60   62 1    
   124   62   63 1    
   125   62   64 1    
   126   62  185 1    
   127   63  186 1    
   128   63  187 1    
   129   63  188 1    
   130   64   65 am   BACKBONE|DICT|INTERRES
   131   64  189 1    
   132   65   66 2    
   133   67   68 2    
   134   67   69 am   BACKBONE|DICT|INTERRES
   135   69   70 1    
   136   69  190 1    
   137   70   71 1    
   138   70   72 1    
   139   70  191 1    
   140   71  192 1    
   141   71  193 1    
   142   71  194 1    
   143   72   73 2    
   144   72   74 am   BACKBONE|DICT|INTERRES
   145   74   75 1    
   146   74  195 1    
   147   75   76 1    
   148   75   77 1    
   149   75  196 1    
   150   76  197 1    
   151   76  198 1    
   152   76  199 1    
   153   77   78 2    
   154   77   79 am   BACKBONE|DICT|INTERRES
   155   79   80 1    
   156   79  200 1    
   157   80   81 1    
   158   80   82 1    
   159   80  201 1    
   160   81  202 1    
   161   81  203 1    
   162   81  204 1    
   163   82   83 2    
   164   82   84 am   BACKBONE|DICT|INTERRES
   165   84   85 1    
   166   84  205 1    
   167   85   86 1    
   168   85   87 1    
   169   85  206 1    
   170   86  207 1    
   171   86  208 1    
   172   86  209 1    
   173   87   88 2    
   174   87   89 am   BACKBONE|DICT|INTERRES
   175   89   90 1    
   176   89  210 1    
   177   90   91 1    
   178   90   92 1    
   179   90  211 1    
   180   91  212 1    
   181   91  213 1    
   182   91  214 1    
   183   92   93 2    
   184   92   94 am   BACKBONE|DICT|INTERRES
   185   94   95 1    
   186   94  215 1    
   187   95   96 1    
   188   95   97 1    
   189   95  216 1    
   190   96  217 1    
   191   96  218 1    
   192   96  219 1    
   193   97   98 2    
   194   97   99 am   BACKBONE|DICT|INTERRES
   195   99  100 1    
   196   99  220 1    
   197  100  101 1    
   198  100  102 1    
   199  100  221 1    
   200  101  222 1    
   201  101  223 1    
   202  101  224 1    
   203  102  103 2    
   204  102  104 am   BACKBONE|DICT|INTERRES
   205  104  105 1    
   206  104  225 1    
   207  105  106 1    
   208  105  107 1    
   209  105  226 1    
   210  106  227 1    
   211  106  228 1    
   212  106  229 1    
   213  107  108 2    
   214  107  109 am   BACKBONE|DICT|INTERRES
   215  109  110 1    
   216  109  230 1    
   217  110  111 1    
   218  110  112 1    
   219  110  231 1    
   220  111  232 1    
   221  111  233 1    
   222  111  234 1    
   223  112  113 2    
   224  112  114 am   BACKBONE|DICT|INTERRES
   225  114  115 1    
   226  114  235 1    
   227  115  116 1    
   228  115  117 1    
   229  115  236 1    
   230  116  237 1    
   231  116  238 1    
   232  116  239 1    
   233  117  118 2    
   234  117  119 am   BACKBONE|DICT|INTERRES
   235  119  120 1    
   236  119  240 1    
   237  120  121 1    
   238  120  124 1    
   239  120  241 1    
   240  121  122 am   BACKBONE|DICT|INTERRES
   241  121  123 2    
   242  122  242 1    
   243  122  243 1    
   244  124  125 1    
   245  124  244 1    
   246  124  245 1    
   247  125  126 1    
   248  126  246 1    
   249  126  247 1    
@<TRIPOS>SUBSTRUCTURE
     1 UNK         1 GROUP             0       ****    0 ROOT    
