@<TRIPOS>MOLECULE
3R540
247   249    1
SMALL
USER_CHARGES


@<TRIPOS>ATOM
      1 CA         -3.7642  -14.2596  -51.5677 C.3       0 UNK        -0.1800 
      2 C          -2.9407  -14.1760  -50.2920 C.2       0 UNK         0.5000 
      3 O          -3.4216  -13.6656  -49.2805 O.2       0 UNK        -0.5000 
      4 N          -1.7050  -14.6922  -50.3296 N.am      1 UNK        -0.5000 
      5 CA         -0.7268  -14.6750  -49.2311 C.3       1 UNK         0.1400 
      6 C6          0.6914  -15.1241  -49.6727 C.3       23 UNK        -0.0398 
      7 S7          0.7381  -16.5301  -50.8361 S.3       23 UNK        -0.2404 
      8 C8          0.8483  -17.9710  -49.7263 C.3       23 UNK        -0.0205 
      9 C9          1.2386  -19.2209  -50.5044 C.ar      23 UNK        -0.0193 
     10 C10         0.4564  -19.6481  -51.5810 C.ar      23 UNK        -0.1150 
     11 C11         0.8495  -20.7354  -52.3645 C.ar      23 UNK        -0.0193 
     12 C12         2.0084  -21.4387  -52.0256 C.ar      23 UNK        -0.1150 
     13 C13         2.7889  -21.0406  -50.9354 C.ar      23 UNK        -0.0193 
     14 C14         2.4015  -19.9274  -50.1813 C.ar      23 UNK        -0.1150 
     15 C15         4.0781  -21.7837  -50.6147 C.3       23 UNK        -0.0205 
     16 S16         3.7876  -23.2661  -49.5996 S.3       23 UNK        -0.2404 
     17 C17         3.6992  -22.5414  -47.9284 C.3       23 UNK        -0.0398 
     18 CA          2.9946  -23.4643  -46.9047 C.3       11 UNK         0.1400 
     19 N           3.2572  -23.0251  -45.5353 N.am      11 UNK        -0.5000 
     20 C           3.8418  -23.7560  -44.5772 C.2       10 UNK         0.5000 
     21 O           4.3047  -24.8827  -44.7584 O.2       10 UNK        -0.5000 
     22 CA          3.9160  -23.1280  -43.1677 C.3       10 UNK         0.1400 
     23 CB          5.2827  -22.4620  -42.9478 C.3       10 UNK        -0.1800 
     24 N           2.8639  -22.1402  -42.9175 N.am      10 UNK        -0.5000 
     25 C           1.5530  -22.4128  -42.8772 C.2       9 UNK         0.5000 
     26 O           1.0987  -23.5555  -42.9118 O.2       9 UNK        -0.5000 
     27 CA          0.5779  -21.2200  -42.8172 C.3       9 UNK         0.1400 
     28 CB         -0.0082  -21.0962  -41.4035 C.3       9 UNK        -0.1800 
     29 N           1.1226  -19.9178  -43.2249 N.am      9 UNK        -0.5000 
     30 C           1.7065  -19.6136  -44.3941 C.2       8 UNK         0.5000 
     31 O           1.9631  -20.4440  -45.2663 O.2       8 UNK        -0.5000 
     32 CA          2.0784  -18.1439  -44.6412 C.3       8 UNK         0.1400 
     33 CB          0.9921  -17.4614  -45.4821 C.3       8 UNK        -0.1800 
     34 N           2.2599  -17.3965  -43.3955 N.am      8 UNK        -0.5000 
     35 C           3.4489  -17.0756  -42.8665 C.2       7 UNK         0.5000 
     36 O           4.5278  -17.3692  -43.3828 O.2       7 UNK        -0.5000 
     37 CA          3.4446  -16.2953  -41.5361 C.3       7 UNK         0.1400 
     38 CB          3.5392  -14.7853  -41.7975 C.3       7 UNK        -0.1800 
     39 N           2.2664  -16.5615  -40.7109 N.am      7 UNK        -0.5000 
     40 C           2.0386  -17.7152  -40.0679 C.2       6 UNK         0.5000 
     41 O           2.8275  -18.6604  -40.0629 O.2       6 UNK        -0.5000 
     42 CA          0.6933  -17.8539  -39.3267 C.3       6 UNK         0.1400 
     43 CB          0.8646  -17.4997  -37.8420 C.3       6 UNK        -0.1800 
     44 N          -0.4089  -17.0591  -39.8788 N.am      6 UNK        -0.5000 
     45 C          -0.8481  -17.0770  -41.1451 C.2       5 UNK         0.5000 
     46 O          -0.3116  -17.7274  -42.0429 O.2       5 UNK        -0.5000 
     47 CA         -2.0776  -16.2146  -41.4859 C.3       5 UNK         0.1400 
     48 CB         -2.7386  -15.5301  -40.2680 C.3       5 UNK        -0.1800 
     49 N          -1.7731  -15.2286  -42.5228 N.am      5 UNK        -0.5000 
     50 C          -0.8559  -14.2483  -42.4761 C.2       4 UNK         0.5000 
     51 O          -0.0796  -14.0859  -41.5329 O.2       4 UNK        -0.5000 
     52 CA         -0.7867  -13.2781  -43.6769 C.3       4 UNK         0.1400 
     53 CB          0.5660  -13.3961  -44.3956 C.3       4 UNK        -0.1800 
     54 N          -1.8655  -13.4799  -44.6487 N.am      4 UNK        -0.5000 
     55 C          -3.1388  -13.0930  -44.4677 C.2       3 UNK         0.5000 
     56 O          -3.5112  -12.4293  -43.4997 O.2       3 UNK        -0.5000 
     57 CA         -4.1846  -13.5409  -45.5131 C.3       3 UNK         0.1400 
     58 CB         -4.5615  -12.3669  -46.4289 C.3       3 UNK        -0.1800 
     59 N          -3.7606  -14.6731  -46.3411 N.am      3 UNK        -0.5000 
     60 C          -3.4746  -15.9047  -45.8883 C.2       2 UNK         0.5000 
     61 O          -3.6162  -16.2432  -44.7130 O.2       2 UNK        -0.5000 
     62 CA         -2.8668  -16.9070  -46.8949 C.3       2 UNK         0.1400 
     63 CB         -3.9477  -17.8674  -47.4112 C.3       2 UNK        -0.1800 
     64 N          -2.1950  -16.2744  -48.0365 N.am      2 UNK        -0.5000 
     65 C          -1.1816  -15.3991  -47.9465 C.2       1 UNK         0.5000 
     66 O          -0.6510  -15.0958  -46.8794 O.2       1 UNK        -0.5000 
     67 C           1.4718  -23.5189  -47.1304 C.2       11 UNK         0.5000 
     68 O           0.9439  -24.5549  -47.5368 O.2       11 UNK        -0.5000 
     69 N           0.7785  -22.4162  -46.8190 N.am      12 UNK        -0.5000 
     70 CA         -0.6562  -22.2257  -47.0114 C.3       12 UNK         0.1400 
     71 CB         -0.9164  -20.7322  -47.2841 C.3       12 UNK        -0.1800 
     72 C          -1.4719  -22.7656  -45.8202 C.2       12 UNK         0.5000 
     73 O          -2.3222  -22.0551  -45.2826 O.2       12 UNK        -0.5000 
     74 N          -1.2021  -24.0176  -45.4270 N.am      13 UNK        -0.5000 
     75 CA         -1.7992  -24.6958  -44.2698 C.3       13 UNK         0.1400 
     76 CB         -1.1241  -26.0634  -44.0867 C.3       13 UNK        -0.1800 
     77 C          -3.3297  -24.8553  -44.3599 C.2       13 UNK         0.5000 
     78 O          -4.0152  -24.7479  -43.3429 O.2       13 UNK        -0.5000 
     79 N          -3.8299  -25.0692  -45.5825 N.am      14 UNK        -0.5000 
     80 CA         -5.2513  -25.0988  -45.9317 C.3       14 UNK         0.1400 
     81 CB         -5.5957  -26.4831  -46.5111 C.3       14 UNK        -0.1800 
     82 C          -5.5597  -23.9499  -46.9110 C.2       14 UNK         0.5000 
     83 O          -6.2158  -24.1622  -47.9326 O.2       14 UNK        -0.5000 
     84 N          -4.9992  -22.7625  -46.6245 N.am      15 UNK        -0.5000 
     85 CA         -5.0503  -21.5281  -47.4247 C.3       15 UNK         0.1400 
     86 CB         -6.4832  -20.9601  -47.4618 C.3       15 UNK        -0.1800 
     87 C          -4.4438  -21.6778  -48.8383 C.2       15 UNK         0.5000 
     88 O          -4.7746  -20.9013  -49.7355 O.2       15 UNK        -0.5000 
     89 N          -3.5916  -22.7035  -49.0049 N.am      16 UNK        -0.5000 
     90 CA         -2.9960  -23.1947  -50.2528 C.3       16 UNK         0.1400 
     91 CB         -1.9706  -22.1832  -50.7983 C.3       16 UNK        -0.1800 
     92 C          -4.0538  -23.5884  -51.3075 C.2       16 UNK         0.5000 
     93 O          -3.8033  -23.4496  -52.5060 O.2       16 UNK        -0.5000 
     94 N          -5.2408  -24.0101  -50.8395 N.am      17 UNK        -0.5000 
     95 CA         -6.5029  -24.2040  -51.5656 C.3       17 UNK         0.1400 
     96 CB         -6.3763  -25.2577  -52.6827 C.3       17 UNK        -0.1800 
     97 C          -7.1055  -22.8835  -52.0891 C.2       17 UNK         0.5000 
     98 O          -8.2843  -22.6181  -51.8512 O.2       17 UNK        -0.5000 
     99 N          -6.2826  -22.0720  -52.7588 N.am      18 UNK        -0.5000 
    100 CA        -6.5846  -20.7356  -53.2437 C.3       18 UNK         0.1400 
    101 CB        -7.4345  -20.8095  -54.5282 C.3       18 UNK        -0.1800 
    102 C         -5.2530  -20.0030  -53.4593 C.2       18 UNK         0.5000 
    103 O         -4.7570  -19.9529  -54.5859 O.2       18 UNK        -0.5000 
    104 N         -4.6848  -19.4488  -52.3775 N.am      19 UNK        -0.5000 
    105 CA        -3.4150  -18.7057  -52.3609 C.3       19 UNK         0.1400 
    106 CB        -3.1156  -18.2220  -50.9345 C.3       19 UNK        -0.1800 
    107 C         -3.3153  -17.5251  -53.3472 C.2       19 UNK         0.5000 
    108 O         -2.2044  -17.1370  -53.7090 O.2       19 UNK        -0.5000 
    109 N         -4.4625  -17.0038  -53.8020 N.am      20 UNK        -0.5000 
    110 CA        -4.5820  -16.0107  -54.8719 C.3       20 UNK         0.1400 
    111 CB        -6.0562  -15.5989  -54.9997 C.3       20 UNK        -0.1800 
    112 C         -4.0292  -16.4820  -56.2350 C.2       20 UNK         0.5000 
    113 O         -3.6798  -15.6370  -57.0598 O.2       20 UNK        -0.5000 
    114 N         -3.9361  -17.8045  -56.4479 N.am      21 UNK        -0.5000 
    115 CA        -3.2869  -18.4063  -57.6142 C.3       21 UNK         0.1400 
    116 CB        -3.6764  -19.8896  -57.7053 C.3       21 UNK        -0.1800 
    117 C         -1.7528  -18.2530  -57.5835 C.2       21 UNK         0.5000 
    118 O         -1.1380  -18.1421  -58.6452 O.2       21 UNK        -0.5000 
    119 N         -1.1691  -18.2396  -56.3782 N.am      22 UNK        -0.5000 
    120 CA         0.2552  -17.9614  -56.1441 C.3       22 UNK         0.1400 
    121 C          0.5237  -16.4399  -55.9960 C.2       22 UNK         0.5000 
    122 N         -0.2996  -15.7070  -55.2561 N.am      22 UNK        -0.7600 
    123 O          1.4825  -15.9201  -56.5601 O.2       22 UNK        -0.5000 
    124 C124        0.8031  -18.7231  -54.9132 C.3       23 UNK        -0.0398 
    125 S125        0.7980  -20.5365  -55.1386 S.3       23 UNK        -0.2404 
    126 C126        0.0377  -21.1290  -53.5919 C.3       23 UNK        -0.0205 
    127 H127       -4.2187  -13.2937  -51.7876 H         1 UNK         0.0600 
    128 H128       -4.5599  -14.9960  -51.4560 H         1 UNK         0.0600 
    129 H129       -3.1470  -14.5437  -52.4196 H         1 UNK         0.0600 
    130 H130       -1.3682  -15.1138  -51.1848 H         1 UNK         0.3000 
    131 H131       -0.6385  -13.6276  -48.9341 H         1 UNK         0.0600 
    132 H132        1.1667  -14.2900  -50.1904 H         1 UNK         0.0800 
    133 H133        1.3407  -15.3265  -48.8183 H         1 UNK         0.0800 
    134 H134        1.5744  -17.7684  -48.9376 H         1 UNK         0.0800 
    135 H135       -0.1138  -18.1315  -49.2384 H         1 UNK         0.0800 
    136 H136       -0.4343  -19.0954  -51.8382 H         1 UNK         0.1150 
    137 H137        2.3168  -22.2822  -52.6273 H         1 UNK         0.1150 
    138 H138        3.0175  -19.5977  -49.3568 H         1 UNK         0.1150 
    139 H139        4.5582  -22.0892  -51.5457 H         1 UNK         0.0800 
    140 H140        4.7892  -21.1249  -50.1137 H         1 UNK         0.0800 
    141 H141        3.2204  -21.5622  -47.9658 H         1 UNK         0.0800 
    142 H142        4.7259  -22.3579  -47.6084 H         1 UNK         0.0800 
    143 H143        3.3766  -24.4778  -47.0445 H         1 UNK         0.0600 
    144 H144        2.8911  -22.1113  -45.2854 H         1 UNK         0.3000 
    145 H145        3.8035  -23.9344  -42.4402 H         1 UNK         0.0600 
    146 H146        5.3758  -22.0777  -41.9318 H         1 UNK         0.0600 
    147 H147        6.0941  -23.1750  -43.1001 H         1 UNK         0.0600 
    148 H148        5.4410  -21.6317  -43.6374 H         1 UNK         0.0600 
    149 H149        3.1484  -21.1729  -42.8691 H         1 UNK         0.3000 
    150 H150       -0.2408  -21.4459  -43.5009 H         1 UNK         0.0600 
    151 H151       -0.4714  -22.0320  -41.0874 H         1 UNK         0.0600 
    152 H152       -0.7785  -20.3267  -41.3574 H         1 UNK         0.0600 
    153 H153        0.7649  -20.8512  -40.6750 H         1 UNK         0.0600 
    154 H154        0.8831  -19.1422  -42.6165 H         1 UNK         0.3000 
    155 H155        3.0003  -18.1409  -45.2263 H         1 UNK         0.0600 
    156 H156        1.3160  -16.4674  -45.7872 H         1 UNK         0.0600 
    157 H157        0.0555  -17.3579  -44.9325 H         1 UNK         0.0600 
    158 H158        0.7817  -18.0224  -46.3935 H         1 UNK         0.0600 
    159 H159        1.4152  -17.1672  -42.8828 H         1 UNK         0.3000 
    160 H160        4.3312  -16.5979  -40.9746 H         1 UNK         0.0600 
    161 H161        2.6631  -14.4182  -42.3309 H         1 UNK         0.0600 
    162 H162        4.4166  -14.5449  -42.3993 H         1 UNK         0.0600 
    163 H163        3.6216  -14.2274  -40.8646 H         1 UNK         0.0600 
    164 H164        1.5582  -15.8398  -40.6776 H         1 UNK         0.3000 
    165 H165        0.3956  -18.9011  -39.3896 H         1 UNK         0.0600 
    166 H166       -0.0482  -17.6982  -37.2799 H         1 UNK         0.0600 
    167 H167        1.6591  -18.0927  -37.3866 H         1 UNK         0.0600 
    168 H168        1.1213  -16.4481  -37.7074 H         1 UNK         0.0600 
    169 H169       -0.8955  -16.4649  -39.2235 H         1 UNK         0.3000 
    170 H170       -2.8113  -16.8958  -41.9191 H         1 UNK         0.0600 
    171 H171       -3.0556  -16.2637  -39.5257 H         1 UNK         0.0600 
    172 H172       -2.0706  -14.8216  -39.7768 H         1 UNK         0.0600 
    173 H173       -3.6301  -14.9809  -40.5716 H         1 UNK         0.0600 
    174 H174       -2.3294  -15.3201  -43.3654 H         1 UNK         0.3000 
    175 H175       -0.8685  -12.2639  -43.2810 H         1 UNK         0.0600 
    176 H176        0.7804  -14.4254  -44.6824 H         1 UNK         0.0600 
    177 H177        0.5940  -12.7828  -45.2965 H         1 UNK         0.0600 
    178 H178        1.3777  -13.0583  -43.7514 H         1 UNK         0.0600 
    179 H179       -1.6247  -14.0259  -45.4701 H         1 UNK         0.3000 
    180 H180       -5.0779  -13.8486  -44.9660 H         1 UNK         0.0600 
    181 H181       -5.3442  -12.6500  -47.1330 H         1 UNK         0.0600 
    182 H182       -3.7036  -12.0173  -47.0048 H         1 UNK         0.0600 
    183 H183       -4.9355  -11.5216  -45.8500 H         1 UNK         0.0600 
    184 H184       -3.6094  -14.4701  -47.3235 H         1 UNK         0.3000 
    185 H185       -2.1192  -17.4921  -46.3554 H         1 UNK         0.0600 
    186 H186       -4.6868  -17.3514  -48.0250 H         1 UNK         0.0600 
    187 H187       -3.5110  -18.6667  -48.0075 H         1 UNK         0.0600 
    188 H188       -4.4804  -18.3372  -46.5834 H         1 UNK         0.0600 
    189 H189       -2.5965  -16.4376  -48.9467 H         1 UNK         0.3000 
    190 H190        1.2677  -21.6295  -46.3975 H         1 UNK         0.3000 
    191 H191       -0.9685  -22.7873  -47.8924 H         1 UNK         0.0600 
    192 H192       -1.9626  -20.5511  -47.5264 H         1 UNK         0.0600 
    193 H193       -0.3251  -20.3792  -48.1286 H         1 UNK         0.0600 
    194 H194       -0.6689  -20.1154  -46.4198 H         1 UNK         0.0600 
    195 H195       -0.4840  -24.5239  -45.9318 H         1 UNK         0.3000 
    196 H196       -1.5868  -24.0886  -43.3875 H         1 UNK         0.0600 
    197 H197       -1.2733  -26.7066  -44.9547 H         1 UNK         0.0600 
    198 H198       -0.0506  -25.9541  -43.9303 H         1 UNK         0.0600 
    199 H199       -1.5262  -26.5846  -43.2169 H         1 UNK         0.0600 
    200 H200       -3.1776  -25.1605  -46.3474 H         1 UNK         0.3000 
    201 H201       -5.8727  -24.9350  -45.0492 H         1 UNK         0.0600 
    202 H202       -5.0363  -26.6891  -47.4245 H         1 UNK         0.0600 
    203 H203       -6.6575  -26.5556  -46.7503 H         1 UNK         0.0600 
    204 H204       -5.3711  -27.2743  -45.7956 H         1 UNK         0.0600 
    205 H205       -4.4304  -22.6993  -45.7879 H         1 UNK         0.3000 
    206 H206       -4.4213  -20.8076  -46.9016 H         1 UNK         0.0600 
    207 H207       -6.8920  -20.8553  -46.4570 H         1 UNK         0.0600 
    208 H208       -6.5009  -19.9713  -47.9219 H         1 UNK         0.0600 
    209 H209       -7.1568  -21.5983  -48.0347 H         1 UNK         0.0600 
    210 H210       -3.4385  -23.2859  -48.1973 H         1 UNK         0.3000 
    211 H211       -2.4586  -24.1101  -50.0015 H         1 UNK         0.0600 
    212 H212       -1.4091  -22.6185  -51.6240 H         1 UNK         0.0600 
    213 H213       -1.2461  -21.8867  -50.0417 H         1 UNK         0.0600 
    214 H214       -2.4549  -21.2815  -51.1690 H         1 UNK         0.0600 
    215 H215       -5.3500  -24.0498  -49.8316 H         1 UNK         0.3000 
    216 H216       -7.2032  -24.5969  -50.8265 H         1 UNK         0.0600 
    217 H217       -7.3520  -25.4752  -53.1187 H         1 UNK         0.0600 
    218 H218       -5.7286  -24.9246  -53.4937 H         1 UNK         0.0600 
    219 H219       -5.9763  -26.1950  -52.2964 H         1 UNK         0.0600 
    220 H220       -5.3209  -22.3812  -52.8826 H         1 UNK         0.3000 
    221 H221       -7.1479  -20.1942  -52.4808 H         1 UNK         0.0600 
    222 H222       -8.4090  -21.2575  -54.3347 H         1 UNK         0.0600 
    223 H223       -6.9435  -21.4005  -55.3024 H         1 UNK         0.0600 
    224 H224       -7.6114  -19.8136  -54.9363 H         1 UNK         0.0600 
    225 H225       -5.0933  -19.6389  -51.4688 H         1 UNK         0.3000 
    226 H226       -2.6361  -19.4091  -52.6522 H         1 UNK         0.0600 
    227 H227       -3.9378  -17.6297  -50.5323 H         1 UNK         0.0600 
    228 H228       -2.9406  -19.0628  -50.2652 H         1 UNK         0.0600 
    229 H229       -2.2170  -17.6052  -50.9065 H         1 UNK         0.0600 
    230 H230       -5.3258  -17.3881  -53.4489 H         1 UNK         0.3000 
    231 H231       -4.0050  -15.1318  -54.5796 H         1 UNK         0.0600 
    232 H232       -6.6881  -16.4468  -55.2672 H         1 UNK         0.0600 
    233 H233       -6.1845  -14.8373  -55.7701 H         1 UNK         0.0600 
    234 H234       -6.4311  -15.1799  -54.0656 H         1 UNK         0.0600 
    235 H235       -4.2618  -18.4492  -55.7328 H         1 UNK         0.3000 
    236 H236       -3.6562  -17.9030  -58.5102 H         1 UNK         0.0600 
    237 H237       -3.2624  -20.3465  -58.6050 H         1 UNK         0.0600 
    238 H238       -3.3056  -20.4560  -56.8501 H         1 UNK         0.0600 
    239 H239       -4.7589  -20.0129  -57.7447 H         1 UNK         0.0600 
    240 H240       -1.7538  -18.2745  -55.5553 H         1 UNK         0.3000 
    241 H241        0.8269  -18.2993  -57.0110 H         1 UNK         0.0600 
    242 H242       -0.1340  -14.7185  -55.1602 H         1 UNK         0.3800 
    243 H243       -1.0514  -16.1491  -54.7325 H         1 UNK         0.3800 
    244 H244        0.2259  -18.4515  -54.0299 H         1 UNK         0.0800 
    245 H245        1.8330  -18.4282  -54.7034 H         1 UNK         0.0800 
    246 H246       -0.0451  -22.2157  -53.6382 H         1 UNK         0.0800 
    247 H247       -0.9819  -20.7503  -53.5248 H         1 UNK         0.0800 
@<TRIPOS>BOND
     1    1    2 1    
     2    1  127 1    
     3    1  128 1    
     4    1  129 1    
     5    2    3 2    
     6    2    4 am   BACKBONE|DICT|INTERRES
     7    4    5 1    
     8    4  130 1    
     9    5    6 1    
    10    5   65 1    
    11    5  131 1    
    12    6    7 1    
    13    6  132 1    
    14    6  133 1    
    15    7    8 1    
    16    8    9 1    
    17    8  134 1    
    18    8  135 1    
    19    9   10 ar   
    20    9   14 ar   
    21   10   11 ar   
    22   10  136 1    
    23   11   12 ar   
    24   11  126 1    
    25   12   13 ar   
    26   12  137 1    
    27   13   14 ar   
    28   13   15 1    
    29   14  138 1    
    30   15   16 1    
    31   15  139 1    
    32   15  140 1    
    33   16   17 1    
    34   17   18 1    
    35   17  141 1    
    36   17  142 1    
    37   18   19 1    
    38   18   67 1    
    39   18  143 1    
    40   19   20 am   BACKBONE|DICT|INTERRES
    41   19  144 1    
    42   20   21 2    
    43   20   22 1    
    44   22   23 1    
    45   22   24 1    
    46   22  145 1    
    47   23  146 1    
    48   23  147 1    
    49   23  148 1    
    50   24   25 am   BACKBONE|DICT|INTERRES
    51   24  149 1    
    52   25   26 2    
    53   25   27 1    
    54   27   28 1    
    55   27   29 1    
    56   27  150 1    
    57   28  151 1    
    58   28  152 1    
    59   28  153 1    
    60   29   30 am   BACKBONE|DICT|INTERRES
    61   29  154 1    
    62   30   31 2    
    63   30   32 1    
    64   32   33 1    
    65   32   34 1    
    66   32  155 1    
    67   33  156 1    
    68   33  157 1    
    69   33  158 1    
    70   34   35 am   BACKBONE|DICT|INTERRES
    71   34  159 1    
    72   35   36 2    
    73   35   37 1    
    74   37   38 1    
    75   37   39 1    
    76   37  160 1    
    77   38  161 1    
    78   38  162 1    
    79   38  163 1    
    80   39   40 am   BACKBONE|DICT|INTERRES
    81   39  164 1    
    82   40   41 2    
    83   40   42 1    
    84   42   43 1    
    85   42   44 1    
    86   42  165 1    
    87   43  166 1    
    88   43  167 1    
    89   43  168 1    
    90   44   45 am   BACKBONE|DICT|INTERRES
    91   44  169 1    
    92   45   46 2    
    93   45   47 1    
    94   47   48 1    
    95   47   49 1    
    96   47  170 1    
    97   48  171 1    
    98   48  172 1    
    99   48  173 1    
   100   49   50 am   BACKBONE|DICT|INTERRES
   101   49  174 1    
   102   50   51 2    
   103   50   52 1    
   104   52   53 1    
   105   52   54 1    
   106   52  175 1    
   107   53  176 1    
   108   53  177 1    
   109   53  178 1    
   110   54   55 am   BACKBONE|DICT|INTERRES
   111   54  179 1    
   112   55   56 2    
   113   55   57 1    
   114   57   58 1    
   115   57   59 1    
   116   57  180 1    
   117   58  181 1    
   118   58  182 1    
   119   58  183 1    
   120   59   60 am   BACKBONE|DICT|INTERRES
   121   59  184 1    
   122   60   61 2    
   123   60   62 1    
   124   62   63 1    
   125   62   64 1    
   126   62  185 1    
   127   63  186 1    
   128   63  187 1    
   129   63  188 1    
   130   64   65 am   BACKBONE|DICT|INTERRES
   131   64  189 1    
   132   65   66 2    
   133   67   68 2    
   134   67   69 am   BACKBONE|DICT|INTERRES
   135   69   70 1    
   136   69  190 1    
   137   70   71 1    
   138   70   72 1    
   139   70  191 1    
   140   71  192 1    
   141   71  193 1    
   142   71  194 1    
   143   72   73 2    
   144   72   74 am   BACKBONE|DICT|INTERRES
   145   74   75 1    
   146   74  195 1    
   147   75   76 1    
   148   75   77 1    
   149   75  196 1    
   150   76  197 1    
   151   76  198 1    
   152   76  199 1    
   153   77   78 2    
   154   77   79 am   BACKBONE|DICT|INTERRES
   155   79   80 1    
   156   79  200 1    
   157   80   81 1    
   158   80   82 1    
   159   80  201 1    
   160   81  202 1    
   161   81  203 1    
   162   81  204 1    
   163   82   83 2    
   164   82   84 am   BACKBONE|DICT|INTERRES
   165   84   85 1    
   166   84  205 1    
   167   85   86 1    
   168   85   87 1    
   169   85  206 1    
   170   86  207 1    
   171   86  208 1    
   172   86  209 1    
   173   87   88 2    
   174   87   89 am   BACKBONE|DICT|INTERRES
   175   89   90 1    
   176   89  210 1    
   177   90   91 1    
   178   90   92 1    
   179   90  211 1    
   180   91  212 1    
   181   91  213 1    
   182   91  214 1    
   183   92   93 2    
   184   92   94 am   BACKBONE|DICT|INTERRES
   185   94   95 1    
   186   94  215 1    
   187   95   96 1    
   188   95   97 1    
   189   95  216 1    
   190   96  217 1    
   191   96  218 1    
   192   96  219 1    
   193   97   98 2    
   194   97   99 am   BACKBONE|DICT|INTERRES
   195   99  100 1    
   196   99  220 1    
   197  100  101 1    
   198  100  102 1    
   199  100  221 1    
   200  101  222 1    
   201  101  223 1    
   202  101  224 1    
   203  102  103 2    
   204  102  104 am   BACKBONE|DICT|INTERRES
   205  104  105 1    
   206  104  225 1    
   207  105  106 1    
   208  105  107 1    
   209  105  226 1    
   210  106  227 1    
   211  106  228 1    
   212  106  229 1    
   213  107  108 2    
   214  107  109 am   BACKBONE|DICT|INTERRES
   215  109  110 1    
   216  109  230 1    
   217  110  111 1    
   218  110  112 1    
   219  110  231 1    
   220  111  232 1    
   221  111  233 1    
   222  111  234 1    
   223  112  113 2    
   224  112  114 am   BACKBONE|DICT|INTERRES
   225  114  115 1    
   226  114  235 1    
   227  115  116 1    
   228  115  117 1    
   229  115  236 1    
   230  116  237 1    
   231  116  238 1    
   232  116  239 1    
   233  117  118 2    
   234  117  119 am   BACKBONE|DICT|INTERRES
   235  119  120 1    
   236  119  240 1    
   237  120  121 1    
   238  120  124 1    
   239  120  241 1    
   240  121  122 am   BACKBONE|DICT|INTERRES
   241  121  123 2    
   242  122  242 1    
   243  122  243 1    
   244  124  125 1    
   245  124  244 1    
   246  124  245 1    
   247  125  126 1    
   248  126  246 1    
   249  126  247 1    
@<TRIPOS>SUBSTRUCTURE
     1 UNK         1 GROUP             0       ****    0 ROOT    
