@<TRIPOS>MOLECULE
3R540
247   249    1
SMALL
USER_CHARGES


@<TRIPOS>ATOM
      1 CA         -2.1649  -11.6709  -49.7097 C.3       0 UNK        -0.1800 
      2 C          -0.6442  -11.6803  -49.6351 C.2       0 UNK         0.5000 
      3 O           0.0213  -11.3432  -50.6148 O.2       0 UNK        -0.5000 
      4 N          -0.0952  -12.0695  -48.4792 N.am      1 UNK        -0.5000 
      5 CA          1.3439  -12.1117  -48.2046 C.3       1 UNK         0.1400 
      6 C6          1.6704  -12.9535  -46.9434 C.3       23 UNK        -0.0398 
      7 S7          1.0641  -14.6645  -47.0469 S.3       23 UNK        -0.2404 
      8 C8          2.3403  -15.4374  -48.0901 C.3       23 UNK        -0.0205 
      9 C9          1.7095  -16.3330  -49.1420 C.ar      23 UNK        -0.0193 
     10 C10         1.0160  -15.7591  -50.2090 C.ar      23 UNK        -0.1150 
     11 C11         0.4225  -16.5598  -51.1868 C.ar      23 UNK        -0.0193 
     12 C12         0.5478  -17.9504  -51.1045 C.ar      23 UNK        -0.1150 
     13 C13         1.2490  -18.5386  -50.0465 C.ar      23 UNK        -0.0193 
     14 C14         1.8220  -17.7241  -49.0639 C.ar      23 UNK        -0.1150 
     15 C15         1.4219  -20.0490  -49.9775 C.3       23 UNK        -0.0205 
     16 S16         0.0764  -20.8468  -49.0486 S.3       23 UNK        -0.2404 
     17 C17         0.9118  -22.3659  -48.4834 C.3       23 UNK        -0.0398 
     18 CA          0.1656  -23.1943  -47.4078 C.3       11 UNK         0.1400 
     19 N           0.0705  -22.5486  -46.0923 N.am      11 UNK        -0.5000 
     20 C          -0.1966  -23.2398  -44.9708 C.2       10 UNK         0.5000 
     21 O          -0.3738  -24.4586  -44.9519 O.2       10 UNK        -0.5000 
     22 CA         -0.3189  -22.4576  -43.6528 C.3       10 UNK         0.1400 
     23 CB          1.0651  -22.0518  -43.1247 C.3       10 UNK        -0.1800 
     24 N          -1.1814  -21.2835  -43.7596 N.am      10 UNK        -0.5000 
     25 C          -2.4906  -21.3178  -44.0462 C.2       9 UNK         0.5000 
     26 O          -3.1220  -22.3557  -44.2389 O.2       9 UNK        -0.5000 
     27 CA         -3.2065  -19.9610  -44.1893 C.3       9 UNK         0.1400 
     28 CB         -3.5867  -19.3863  -42.8171 C.3       9 UNK        -0.1800 
     29 N          -2.4061  -18.9876  -44.9324 N.am      9 UNK        -0.5000 
     30 C          -2.0309  -19.1525  -46.2091 C.2       8 UNK         0.5000 
     31 O          -2.3802  -20.1065  -46.9028 O.2       8 UNK        -0.5000 
     32 CA         -1.0652  -18.1047  -46.7823 C.3       8 UNK         0.1400 
     33 CB         -1.8297  -16.8743  -47.2954 C.3       8 UNK        -0.1800 
     34 N          -0.0405  -17.7247  -45.8060 N.am      8 UNK        -0.5000 
     35 C           0.9490  -18.5394  -45.4062 C.2       7 UNK         0.5000 
     36 O           1.1334  -19.6664  -45.8679 O.2       7 UNK        -0.5000 
     37 CA          1.8536  -18.0437  -44.2594 C.3       7 UNK         0.1400 
     38 CB          3.0216  -17.1980  -44.7837 C.3       7 UNK        -0.1800 
     39 N           1.1228  -17.2864  -43.2435 N.am      7 UNK        -0.5000 
     40 C           0.2169  -17.8284  -42.4155 C.2       6 UNK         0.5000 
     41 O          -0.0430  -19.0296  -42.3916 O.2       6 UNK        -0.5000 
     42 CA         -0.5653  -16.8766  -41.4882 C.3       6 UNK         0.1400 
     43 CB          0.1204  -16.7804  -40.1175 C.3       6 UNK        -0.1800 
     44 N          -0.7243  -15.5306  -42.0359 N.am      6 UNK        -0.5000 
     45 C          -1.3035  -15.2274  -43.2058 C.2       5 UNK         0.5000 
     46 O          -1.8763  -16.0583  -43.9117 O.2       5 UNK        -0.5000 
     47 CA         -1.1803  -13.7677  -43.6907 C.3       5 UNK         0.1400 
     48 CB         -2.5390  -13.0563  -43.6091 C.3       5 UNK        -0.1800 
     49 N          -0.1790  -12.9707  -42.9679 N.am      5 UNK        -0.5000 
     50 C           1.1426  -13.1946  -42.9704 C.2       4 UNK         0.5000 
     51 O           1.6773  -14.1392  -43.5557 O.2       4 UNK        -0.5000 
     52 CA          2.0006  -12.2414  -42.1176 C.3       4 UNK         0.1400 
     53 CB          2.3331  -12.8931  -40.7662 C.3       4 UNK        -0.1800 
     54 N           3.2469  -11.8838  -42.7948 N.am      4 UNK        -0.5000 
     55 C           3.3158  -11.1272  -43.8973 C.2       3 UNK         0.5000 
     56 O           2.3273  -10.5852  -44.3967 O.2       3 UNK        -0.5000 
     57 CA          4.7090  -10.9500  -44.5443 C.3       3 UNK         0.1400 
     58 CB          5.5940  -12.2045  -44.4031 C.3       3 UNK        -0.1800 
     59 N           4.5732  -10.6436  -45.9671 N.am      3 UNK        -0.5000 
     60 C           4.4179   -9.4239  -46.5015 C.2       2 UNK         0.5000 
     61 O           4.5412   -8.3724  -45.8720 O.2       2 UNK        -0.5000 
     62 CA          4.0325   -9.3850  -47.9957 C.3       2 UNK         0.1400 
     63 CB          5.2883   -9.3350  -48.8796 C.3       2 UNK        -0.1800 
     64 N           3.2202  -10.5475  -48.3718 N.am      2 UNK        -0.5000 
     65 C           1.9301  -10.6952  -48.0373 C.2       1 UNK         0.5000 
     66 O           1.2392   -9.7926  -47.5575 O.2       1 UNK        -0.5000 
     67 C          -1.1933  -23.7432  -47.8865 C.2       11 UNK         0.5000 
     68 O          -1.2295  -24.8496  -48.4245 O.2       11 UNK        -0.5000 
     69 N          -2.2879  -23.0118  -47.6233 N.am      12 UNK        -0.5000 
     70 CA         -3.6541  -23.4624  -47.8888 C.3       12 UNK         0.1400 
     71 CB         -4.6485  -22.3218  -47.6334 C.3       12 UNK        -0.1800 
     72 C          -4.0402  -24.7073  -47.0718 C.2       12 UNK         0.5000 
     73 O          -4.6501  -25.6197  -47.6261 O.2       12 UNK        -0.5000 
     74 N          -3.6608  -24.7480  -45.7878 N.am      13 UNK        -0.5000 
     75 CA         -3.8712  -25.9004  -44.9108 C.3       13 UNK         0.1400 
     76 CB         -3.5364  -25.5192  -43.4608 C.3       13 UNK        -0.1800 
     77 C          -3.0655  -27.1361  -45.3519 C.2       13 UNK         0.5000 
     78 O          -3.6007  -28.2449  -45.3338 O.2       13 UNK        -0.5000 
     79 N          -1.8056  -26.9213  -45.7546 N.am      14 UNK        -0.5000 
     80 CA         -0.8960  -27.9660  -46.2230 C.3       14 UNK         0.1400 
     81 CB          0.5327  -27.4049  -46.2938 C.3       14 UNK        -0.1800 
     82 C          -1.3117  -28.5667  -47.5783 C.2       14 UNK         0.5000 
     83 O          -1.3124  -29.7897  -47.7246 O.2       14 UNK        -0.5000 
     84 N          -1.6474  -27.7022  -48.5444 N.am      15 UNK        -0.5000 
     85 CA         -1.9806  -28.0909  -49.9168 C.3       15 UNK         0.1400 
     86 CB         -1.6273  -26.9279  -50.8540 C.3       15 UNK        -0.1800 
     87 C          -3.4504  -28.5112  -50.1104 C.2       15 UNK         0.5000 
     88 O          -3.7674  -29.0751  -51.1586 O.2       15 UNK        -0.5000 
     89 N          -4.3087  -28.2313  -49.1173 N.am      16 UNK        -0.5000 
     90 CA         -5.7693  -28.3713  -49.1357 C.3       16 UNK         0.1400 
     91 CB         -6.2049  -29.8391  -49.3328 C.3       16 UNK        -0.1800 
     92 C          -6.3934  -27.3942  -50.1525 C.2       16 UNK         0.5000 
     93 O          -6.9859  -27.8115  -51.1498 O.2       16 UNK        -0.5000 
     94 N          -6.2027  -26.1000  -49.8642 N.am      17 UNK        -0.5000 
     95 CA         -6.4916  -24.9264  -50.6914 C.3       17 UNK         0.1400 
     96 CB         -7.9900  -24.8438  -51.0586 C.3       17 UNK        -0.1800 
     97 C          -5.5433  -24.8381  -51.9060 C.2       17 UNK         0.5000 
     98 O          -4.4577  -25.4201  -51.8776 O.2       17 UNK        -0.5000 
     99 N          -5.9389  -24.0647  -52.9267 N.am      18 UNK        -0.5000 
    100 CA        -5.2748  -23.8232  -54.2179 C.3       18 UNK         0.1400 
    101 CB        -5.1134  -25.1329  -55.0132 C.3       18 UNK        -0.1800 
    102 C         -3.9392  -23.0510  -54.1571 C.2       18 UNK         0.5000 
    103 O         -3.7002  -22.2126  -55.0264 O.2       18 UNK        -0.5000 
    104 N         -3.0969  -23.3313  -53.1538 N.am      19 UNK        -0.5000 
    105 CA        -1.7816  -22.7161  -52.9526 C.3       19 UNK         0.1400 
    106 CB        -1.0424  -23.4389  -51.8184 C.3       19 UNK        -0.1800 
    107 C         -1.8545  -21.2060  -52.6721 C.2       19 UNK         0.5000 
    108 O         -1.0524  -20.4451  -53.2143 O.2       19 UNK        -0.5000 
    109 N         -2.8500  -20.7906  -51.8786 N.am      20 UNK        -0.5000 
    110 CA        -3.1508  -19.3939  -51.5634 C.3       20 UNK         0.1400 
    111 CB        -3.8437  -19.3266  -50.1934 C.3       20 UNK        -0.1800 
    112 C         -3.9729  -18.7306  -52.6876 C.2       20 UNK         0.5000 
    113 O         -5.0412  -18.1700  -52.4349 O.2       20 UNK        -0.5000 
    114 N         -3.4542  -18.8019  -53.9215 N.am      21 UNK        -0.5000 
    115 CA        -4.0588  -18.2666  -55.1477 C.3       21 UNK         0.1400 
    116 CB        -3.2000  -18.6933  -56.3476 C.3       21 UNK        -0.1800 
    117 C         -4.2472  -16.7356  -55.1351 C.2       21 UNK         0.5000 
    118 O         -5.0820  -16.2137  -55.8749 O.2       21 UNK        -0.5000 
    119 N         -3.4816  -16.0564  -54.2753 N.am      22 UNK        -0.5000 
    120 CA        -3.6243  -14.6421  -53.9143 C.3       22 UNK         0.1400 
    121 C         -4.9025  -14.2973  -53.0893 C.2       22 UNK         0.5000 
    122 N         -5.6358  -15.2619  -52.5435 N.am      22 UNK        -0.7600 
    123 O         -5.2427  -13.1251  -52.9539 O.2       22 UNK        -0.5000 
    124 C124       -2.3379  -14.1227  -53.2226 C.3       23 UNK        -0.0398 
    125 S125       -1.8519  -15.0948  -51.7478 S.3       23 UNK        -0.2404 
    126 C126       -0.3298  -15.9046  -52.3341 C.3       23 UNK        -0.0205 
    127 H127       -2.5249  -10.6600  -49.9007 H         1 UNK         0.0600 
    128 H128       -2.6184  -12.0249  -48.7836 H         1 UNK         0.0600 
    129 H129       -2.5071  -12.3137  -50.5202 H         1 UNK         0.0600 
    130 H130       -0.6920  -12.3257  -47.7070 H         1 UNK         0.3000 
    131 H131        1.8301  -12.5758  -49.0650 H         1 UNK         0.0600 
    132 H132        2.7439  -12.9852  -46.7514 H         1 UNK         0.0800 
    133 H133        1.2202  -12.5003  -46.0584 H         1 UNK         0.0800 
    134 H134        2.9395  -14.6777  -48.5927 H         1 UNK         0.0800 
    135 H135        3.0316  -16.0011  -47.4643 H         1 UNK         0.0800 
    136 H136        0.9225  -14.6836  -50.2704 H         1 UNK         0.1150 
    137 H137        0.1114  -18.5768  -51.8680 H         1 UNK         0.1150 
    138 H138        2.3582  -18.1757  -48.2411 H         1 UNK         0.1150 
    139 H139        1.4595  -20.4715  -50.9828 H         1 UNK         0.0800 
    140 H140        2.3821  -20.2778  -49.5130 H         1 UNK         0.0800 
    141 H141        1.8925  -22.0927  -48.0921 H         1 UNK         0.0800 
    142 H142        1.1062  -22.9883  -49.3584 H         1 UNK         0.0800 
    143 H143        0.7920  -24.0765  -47.2561 H         1 UNK         0.0600 
    144 H144        0.2178  -21.5448  -46.0532 H         1 UNK         0.3000 
    145 H145       -0.7715  -23.1262  -42.9176 H         1 UNK         0.0600 
    146 H146        0.9909  -21.5876  -42.1413 H         1 UNK         0.0600 
    147 H147        1.7147  -22.9222  -43.0240 H         1 UNK         0.0600 
    148 H148        1.5621  -21.3475  -43.7911 H         1 UNK         0.0600 
    149 H149       -0.7515  -20.3877  -43.5487 H         1 UNK         0.3000 
    150 H150       -4.1272  -20.1285  -44.7520 H         1 UNK         0.0600 
    151 H151       -4.2647  -20.0593  -42.2910 H         1 UNK         0.0600 
    152 H152       -4.0920  -18.4253  -42.9157 H         1 UNK         0.0600 
    153 H153       -2.7136  -19.2436  -42.1817 H         1 UNK         0.0600 
    154 H154       -2.1006  -18.1565  -44.4401 H         1 UNK         0.3000 
    155 H155       -0.5645  -18.5478  -47.6406 H         1 UNK         0.0600 
    156 H156       -2.2502  -16.2811  -46.4845 H         1 UNK         0.0600 
    157 H157       -2.6538  -17.1729  -47.9446 H         1 UNK         0.0600 
    158 H158       -1.1836  -16.2304  -47.8898 H         1 UNK         0.0600 
    159 H159       -0.1514  -16.8262  -45.3582 H         1 UNK         0.3000 
    160 H160        2.2778  -18.9283  -43.7798 H         1 UNK         0.0600 
    161 H161        2.6832  -16.2263  -45.1403 H         1 UNK         0.0600 
    162 H162        3.5346  -17.6985  -45.6060 H         1 UNK         0.0600 
    163 H163        3.7577  -17.0209  -43.9997 H         1 UNK         0.0600 
    164 H164        1.2768  -16.2846  -43.2229 H         1 UNK         0.3000 
    165 H165       -1.5628  -17.2957  -41.3464 H         1 UNK         0.0600 
    166 H166       -0.4653  -16.1767  -39.4240 H         1 UNK         0.0600 
    167 H167        0.2361  -17.7680  -39.6688 H         1 UNK         0.0600 
    168 H168        1.1137  -16.3361  -40.1948 H         1 UNK         0.0600 
    169 H169       -0.2837  -14.7817  -41.5242 H         1 UNK         0.3000 
    170 H170       -0.8792  -13.8068  -44.7393 H         1 UNK         0.0600 
    171 H171       -3.3014  -13.6034  -44.1657 H         1 UNK         0.0600 
    172 H172       -2.8851  -12.9675  -42.5787 H         1 UNK         0.0600 
    173 H173       -2.4862  -12.0541  -44.0350 H         1 UNK         0.0600 
    174 H174       -0.5361  -12.1829  -42.4462 H         1 UNK         0.3000 
    175 H175        1.4375  -11.3244  -41.9310 H         1 UNK         0.0600 
    176 H176        2.9045  -13.8138  -40.8923 H         1 UNK         0.0600 
    177 H177        2.9153  -12.2203  -40.1362 H         1 UNK         0.0600 
    178 H178        1.4243  -13.1438  -40.2176 H         1 UNK         0.0600 
    179 H179        4.0862  -12.3302  -42.4562 H         1 UNK         0.3000 
    180 H180        5.2052  -10.1193  -44.0385 H         1 UNK         0.0600 
    181 H181        5.0964  -13.0955  -44.7893 H         1 UNK         0.0600 
    182 H182        5.8571  -12.3940  -43.3620 H         1 UNK         0.0600 
    183 H183        6.5317  -12.0857  -44.9466 H         1 UNK         0.0600 
    184 H184        4.4473  -11.4370  -46.5746 H         1 UNK         0.3000 
    185 H185        3.4543   -8.4752  -48.1716 H         1 UNK         0.0600 
    186 H186        5.9017   -8.4668  -48.6350 H         1 UNK         0.0600 
    187 H187        5.9097  -10.2222  -48.7513 H         1 UNK         0.0600 
    188 H188        5.0247   -9.2585  -49.9347 H         1 UNK         0.0600 
    189 H189        3.7108  -11.3139  -48.8099 H         1 UNK         0.3000 
    190 H190       -2.1823  -22.0889  -47.2110 H         1 UNK         0.3000 
    191 H191       -3.7123  -23.7314  -48.9458 H         1 UNK         0.0600 
    192 H192       -4.4416  -21.4687  -48.2770 H         1 UNK         0.0600 
    193 H193       -4.6076  -21.9762  -46.6000 H         1 UNK         0.0600 
    194 H194       -5.6720  -22.6401  -47.8343 H         1 UNK         0.0600 
    195 H195       -3.2168  -23.9331  -45.3738 H         1 UNK         0.3000 
    196 H196       -4.9301  -26.1640  -44.9531 H         1 UNK         0.0600 
    197 H197       -3.6886  -26.3645  -42.7886 H         1 UNK         0.0600 
    198 H198       -4.1739  -24.7072  -43.1109 H         1 UNK         0.0600 
    199 H199       -2.4997  -25.1981  -43.3568 H         1 UNK         0.0600 
    200 H200       -1.4266  -25.9812  -45.6906 H         1 UNK         0.3000 
    201 H201       -0.9034  -28.7721  -45.4864 H         1 UNK         0.0600 
    202 H202        0.8656  -27.0511  -45.3179 H         1 UNK         0.0600 
    203 H203        0.6038  -26.5711  -46.9929 H         1 UNK         0.0600 
    204 H204        1.2379  -28.1699  -46.6210 H         1 UNK         0.0600 
    205 H205       -1.5920  -26.7025  -48.3610 H         1 UNK         0.3000 
    206 H206       -1.3620  -28.9444  -50.2024 H         1 UNK         0.0600 
    207 H207       -0.5712  -26.6684  -50.7808 H         1 UNK         0.0600 
    208 H208       -1.8317  -27.1806  -51.8951 H         1 UNK         0.0600 
    209 H209       -2.2085  -26.0376  -50.6140 H         1 UNK         0.0600 
    210 H210       -3.9392  -27.7256  -48.3228 H         1 UNK         0.3000 
    211 H211       -6.1172  -28.0633  -48.1483 H         1 UNK         0.0600 
    212 H212       -5.9481  -30.2194  -50.3214 H         1 UNK         0.0600 
    213 H213       -7.2851  -29.9372  -49.2208 H         1 UNK         0.0600 
    214 H214       -5.7404  -30.4897  -48.5919 H         1 UNK         0.0600 
    215 H215       -5.6517  -25.9040  -49.0288 H         1 UNK         0.3000 
    216 H216       -6.2593  -24.0642  -50.0652 H         1 UNK         0.0600 
    217 H217       -8.2499  -23.8593  -51.4481 H         1 UNK         0.0600 
    218 H218       -8.6180  -25.0133  -50.1838 H         1 UNK         0.0600 
    219 H219       -8.2663  -25.5798  -51.8143 H         1 UNK         0.0600 
    220 H220       -6.8293  -23.5978  -52.8261 H         1 UNK         0.3000 
    221 H221       -5.9640  -23.1905  -54.7797 H         1 UNK         0.0600 
    222 H222       -4.4233  -25.8235  -54.5276 H         1 UNK         0.0600 
    223 H223       -6.0696  -25.6426  -55.1317 H         1 UNK         0.0600 
    224 H224       -4.7244  -24.9354  -56.0129 H         1 UNK         0.0600 
    225 H225       -3.3693  -24.0778  -52.5186 H         1 UNK         0.3000 
    226 H226       -1.2071  -22.8505  -53.8714 H         1 UNK         0.0600 
    227 H227       -0.8467  -24.4776  -52.0811 H         1 UNK         0.0600 
    228 H228       -0.0784  -22.9703  -51.6171 H         1 UNK         0.0600 
    229 H229       -1.6159  -23.4254  -50.8912 H         1 UNK         0.0600 
    230 H230       -3.4897  -21.4817  -51.5176 H         1 UNK         0.3000 
    231 H231       -2.2173  -18.8356  -51.4789 H         1 UNK         0.0600 
    232 H232       -4.7896  -19.8691  -50.1902 H         1 UNK         0.0600 
    233 H233       -4.0522  -18.2943  -49.9094 H         1 UNK         0.0600 
    234 H234       -3.2053  -19.7493  -49.4182 H         1 UNK         0.0600 
    235 H235       -2.5762  -19.2981  -54.0288 H         1 UNK         0.3000 
    236 H236       -5.0479  -18.7165  -55.2531 H         1 UNK         0.0600 
    237 H237       -3.1276  -19.7791  -56.4141 H         1 UNK         0.0600 
    238 H238       -3.6322  -18.3396  -57.2847 H         1 UNK         0.0600 
    239 H239       -2.1878  -18.2927  -56.2795 H         1 UNK         0.0600 
    240 H240       -2.8408  -16.5835  -53.7024 H         1 UNK         0.3000 
    241 H241       -3.7289  -14.0887  -54.8494 H         1 UNK         0.0600 
    242 H242       -6.4604  -15.0147  -52.0207 H         1 UNK         0.3800 
    243 H243       -5.3706  -16.2387  -52.6206 H         1 UNK         0.3800 
    244 H244       -1.5188  -14.1267  -53.9427 H         1 UNK         0.0800 
    245 H245       -2.4519  -13.0781  -52.9279 H         1 UNK         0.0800 
    246 H246        0.3221  -15.1650  -52.8014 H         1 UNK         0.0800 
    247 H247       -0.5780  -16.6357  -53.1050 H         1 UNK         0.0800 
@<TRIPOS>BOND
     1    1    2 1    
     2    1  127 1    
     3    1  128 1    
     4    1  129 1    
     5    2    3 2    
     6    2    4 am   BACKBONE|DICT|INTERRES
     7    4    5 1    
     8    4  130 1    
     9    5    6 1    
    10    5   65 1    
    11    5  131 1    
    12    6    7 1    
    13    6  132 1    
    14    6  133 1    
    15    7    8 1    
    16    8    9 1    
    17    8  134 1    
    18    8  135 1    
    19    9   10 ar   
    20    9   14 ar   
    21   10   11 ar   
    22   10  136 1    
    23   11   12 ar   
    24   11  126 1    
    25   12   13 ar   
    26   12  137 1    
    27   13   14 ar   
    28   13   15 1    
    29   14  138 1    
    30   15   16 1    
    31   15  139 1    
    32   15  140 1    
    33   16   17 1    
    34   17   18 1    
    35   17  141 1    
    36   17  142 1    
    37   18   19 1    
    38   18   67 1    
    39   18  143 1    
    40   19   20 am   BACKBONE|DICT|INTERRES
    41   19  144 1    
    42   20   21 2    
    43   20   22 1    
    44   22   23 1    
    45   22   24 1    
    46   22  145 1    
    47   23  146 1    
    48   23  147 1    
    49   23  148 1    
    50   24   25 am   BACKBONE|DICT|INTERRES
    51   24  149 1    
    52   25   26 2    
    53   25   27 1    
    54   27   28 1    
    55   27   29 1    
    56   27  150 1    
    57   28  151 1    
    58   28  152 1    
    59   28  153 1    
    60   29   30 am   BACKBONE|DICT|INTERRES
    61   29  154 1    
    62   30   31 2    
    63   30   32 1    
    64   32   33 1    
    65   32   34 1    
    66   32  155 1    
    67   33  156 1    
    68   33  157 1    
    69   33  158 1    
    70   34   35 am   BACKBONE|DICT|INTERRES
    71   34  159 1    
    72   35   36 2    
    73   35   37 1    
    74   37   38 1    
    75   37   39 1    
    76   37  160 1    
    77   38  161 1    
    78   38  162 1    
    79   38  163 1    
    80   39   40 am   BACKBONE|DICT|INTERRES
    81   39  164 1    
    82   40   41 2    
    83   40   42 1    
    84   42   43 1    
    85   42   44 1    
    86   42  165 1    
    87   43  166 1    
    88   43  167 1    
    89   43  168 1    
    90   44   45 am   BACKBONE|DICT|INTERRES
    91   44  169 1    
    92   45   46 2    
    93   45   47 1    
    94   47   48 1    
    95   47   49 1    
    96   47  170 1    
    97   48  171 1    
    98   48  172 1    
    99   48  173 1    
   100   49   50 am   BACKBONE|DICT|INTERRES
   101   49  174 1    
   102   50   51 2    
   103   50   52 1    
   104   52   53 1    
   105   52   54 1    
   106   52  175 1    
   107   53  176 1    
   108   53  177 1    
   109   53  178 1    
   110   54   55 am   BACKBONE|DICT|INTERRES
   111   54  179 1    
   112   55   56 2    
   113   55   57 1    
   114   57   58 1    
   115   57   59 1    
   116   57  180 1    
   117   58  181 1    
   118   58  182 1    
   119   58  183 1    
   120   59   60 am   BACKBONE|DICT|INTERRES
   121   59  184 1    
   122   60   61 2    
   123   60   62 1    
   124   62   63 1    
   125   62   64 1    
   126   62  185 1    
   127   63  186 1    
   128   63  187 1    
   129   63  188 1    
   130   64   65 am   BACKBONE|DICT|INTERRES
   131   64  189 1    
   132   65   66 2    
   133   67   68 2    
   134   67   69 am   BACKBONE|DICT|INTERRES
   135   69   70 1    
   136   69  190 1    
   137   70   71 1    
   138   70   72 1    
   139   70  191 1    
   140   71  192 1    
   141   71  193 1    
   142   71  194 1    
   143   72   73 2    
   144   72   74 am   BACKBONE|DICT|INTERRES
   145   74   75 1    
   146   74  195 1    
   147   75   76 1    
   148   75   77 1    
   149   75  196 1    
   150   76  197 1    
   151   76  198 1    
   152   76  199 1    
   153   77   78 2    
   154   77   79 am   BACKBONE|DICT|INTERRES
   155   79   80 1    
   156   79  200 1    
   157   80   81 1    
   158   80   82 1    
   159   80  201 1    
   160   81  202 1    
   161   81  203 1    
   162   81  204 1    
   163   82   83 2    
   164   82   84 am   BACKBONE|DICT|INTERRES
   165   84   85 1    
   166   84  205 1    
   167   85   86 1    
   168   85   87 1    
   169   85  206 1    
   170   86  207 1    
   171   86  208 1    
   172   86  209 1    
   173   87   88 2    
   174   87   89 am   BACKBONE|DICT|INTERRES
   175   89   90 1    
   176   89  210 1    
   177   90   91 1    
   178   90   92 1    
   179   90  211 1    
   180   91  212 1    
   181   91  213 1    
   182   91  214 1    
   183   92   93 2    
   184   92   94 am   BACKBONE|DICT|INTERRES
   185   94   95 1    
   186   94  215 1    
   187   95   96 1    
   188   95   97 1    
   189   95  216 1    
   190   96  217 1    
   191   96  218 1    
   192   96  219 1    
   193   97   98 2    
   194   97   99 am   BACKBONE|DICT|INTERRES
   195   99  100 1    
   196   99  220 1    
   197  100  101 1    
   198  100  102 1    
   199  100  221 1    
   200  101  222 1    
   201  101  223 1    
   202  101  224 1    
   203  102  103 2    
   204  102  104 am   BACKBONE|DICT|INTERRES
   205  104  105 1    
   206  104  225 1    
   207  105  106 1    
   208  105  107 1    
   209  105  226 1    
   210  106  227 1    
   211  106  228 1    
   212  106  229 1    
   213  107  108 2    
   214  107  109 am   BACKBONE|DICT|INTERRES
   215  109  110 1    
   216  109  230 1    
   217  110  111 1    
   218  110  112 1    
   219  110  231 1    
   220  111  232 1    
   221  111  233 1    
   222  111  234 1    
   223  112  113 2    
   224  112  114 am   BACKBONE|DICT|INTERRES
   225  114  115 1    
   226  114  235 1    
   227  115  116 1    
   228  115  117 1    
   229  115  236 1    
   230  116  237 1    
   231  116  238 1    
   232  116  239 1    
   233  117  118 2    
   234  117  119 am   BACKBONE|DICT|INTERRES
   235  119  120 1    
   236  119  240 1    
   237  120  121 1    
   238  120  124 1    
   239  120  241 1    
   240  121  122 am   BACKBONE|DICT|INTERRES
   241  121  123 2    
   242  122  242 1    
   243  122  243 1    
   244  124  125 1    
   245  124  244 1    
   246  124  245 1    
   247  125  126 1    
   248  126  246 1    
   249  126  247 1    
@<TRIPOS>SUBSTRUCTURE
     1 UNK         1 GROUP             0       ****    0 ROOT    
