@<TRIPOS>MOLECULE
3R540
247   249    1
SMALL
USER_CHARGES


@<TRIPOS>ATOM
      1 CA          7.7656  -10.8911  -46.7251 C.3       0 UNK        -0.1800 
      2 C           6.3040  -10.7508  -46.3240 C.2       0 UNK         0.5000 
      3 O           5.8841   -9.6708  -45.9083 O.2       0 UNK        -0.5000 
      4 N           5.5325  -11.8386  -46.4428 N.am      1 UNK        -0.5000 
      5 CA          4.0941  -11.8966  -46.1542 C.3       1 UNK         0.1400 
      6 C6          3.5721  -13.3536  -46.0632 C.3       23 UNK        -0.0398 
      7 S7          4.0642  -14.4133  -47.4692 S.3       23 UNK        -0.2404 
      8 C8          2.4610  -14.7504  -48.2723 C.3       23 UNK        -0.0205 
      9 C9          2.5385  -15.8708  -49.3075 C.ar      23 UNK        -0.0193 
     10 C10         1.8315  -15.7624  -50.5091 C.ar      23 UNK        -0.1150 
     11 C11         1.8589  -16.7975  -51.4520 C.ar      23 UNK        -0.0193 
     12 C12         2.6234  -17.9412  -51.1938 C.ar      23 UNK        -0.1150 
     13 C13         3.3427  -18.0615  -50.0015 C.ar      23 UNK        -0.0193 
     14 C14         3.2854  -17.0294  -49.0625 C.ar      23 UNK        -0.1150 
     15 C15         4.2134  -19.2831  -49.7351 C.3       23 UNK        -0.0205 
     16 S16         3.5983  -20.2946  -48.3500 S.3       23 UNK        -0.2404 
     17 C17         2.1515  -21.1069  -49.1038 C.3       23 UNK        -0.0398 
     18 CA          1.9302  -22.5364  -48.5567 C.3       11 UNK         0.1400 
     19 N           1.6192  -22.5427  -47.1226 N.am      11 UNK        -0.5000 
     20 C           1.7839  -23.6080  -46.3240 C.2       10 UNK         0.5000 
     21 O           2.3103  -24.6549  -46.6991 O.2       10 UNK        -0.5000 
     22 CA          1.2639  -23.5132  -44.8729 C.3       10 UNK         0.1400 
     23 CB          2.4267  -23.2554  -43.9030 C.3       10 UNK        -0.1800 
     24 N           0.2445  -22.4826  -44.6694 N.am      10 UNK        -0.5000 
     25 C          -0.9648  -22.4541  -45.2462 C.2       9 UNK         0.5000 
     26 O          -1.3949  -23.3608  -45.9598 O.2       9 UNK        -0.5000 
     27 CA         -1.8010  -21.1718  -45.0534 C.3       9 UNK         0.1400 
     28 CB         -2.8956  -21.3866  -43.9994 C.3       9 UNK        -0.1800 
     29 N          -1.0156  -19.9817  -44.7038 N.am      9 UNK        -0.5000 
     30 C          -0.0507  -19.4421  -45.4617 C.2       8 UNK         0.5000 
     31 O           0.3180  -19.9484  -46.5224 O.2       8 UNK        -0.5000 
     32 CA          0.6402  -18.1664  -44.9297 C.3       8 UNK         0.1400 
     33 CB          1.4567  -17.4466  -46.0142 C.3       8 UNK        -0.1800 
     34 N          -0.2900  -17.2057  -44.3339 N.am      8 UNK        -0.5000 
     35 C          -0.7912  -17.2657  -43.0936 C.2       7 UNK         0.5000 
     36 O          -0.5551  -18.1845  -42.3090 O.2       7 UNK        -0.5000 
     37 CA         -1.7415  -16.1304  -42.6763 C.3       7 UNK         0.1400 
     38 CB         -0.9485  -14.9052  -42.1957 C.3       7 UNK        -0.1800 
     39 N          -2.6267  -15.7418  -43.7738 N.am      7 UNK        -0.5000 
     40 C          -3.7237  -16.4258  -44.1308 C.2       6 UNK         0.5000 
     41 O          -4.1426  -17.4106  -43.5220 O.2       6 UNK        -0.5000 
     42 CA         -4.4791  -15.9366  -45.3830 C.3       6 UNK         0.1400 
     43 CB         -5.5961  -14.9576  -44.9930 C.3       6 UNK        -0.1800 
     44 N          -3.6132  -15.3008  -46.3782 N.am      6 UNK        -0.5000 
     45 C          -2.6434  -15.9304  -47.0569 C.2       5 UNK         0.5000 
     46 O          -2.3930  -17.1252  -46.9248 O.2       5 UNK        -0.5000 
     47 CA         -1.7846  -15.0677  -48.0003 C.3       5 UNK         0.1400 
     48 CB         -2.4361  -14.9608  -49.3868 C.3       5 UNK        -0.1800 
     49 N          -1.5698  -13.7168  -47.4841 N.am      5 UNK        -0.5000 
     50 C          -0.9299  -13.3987  -46.3536 C.2       4 UNK         0.5000 
     51 O          -0.3981  -14.2374  -45.6234 O.2       4 UNK        -0.5000 
     52 CA         -0.9211  -11.9007  -45.9730 C.3       4 UNK         0.1400 
     53 CB         -0.0403  -11.6031  -44.7469 C.3       4 UNK        -0.1800 
     54 N          -0.5311  -11.0232  -47.0843 N.am      4 UNK        -0.5000 
     55 C          -1.3212  -10.6758  -48.1129 C.2       3 UNK         0.5000 
     56 O          -2.4720  -11.0957  -48.2434 O.2       3 UNK        -0.5000 
     57 CA         -0.7569   -9.7187  -49.1821 C.3       3 UNK         0.1400 
     58 CB         -1.3138   -8.3015  -48.9774 C.3       3 UNK        -0.1800 
     59 N           0.7027   -9.6492  -49.2091 N.am      3 UNK        -0.5000 
     60 C           1.5168  -10.6140  -49.6559 C.2       2 UNK         0.5000 
     61 O           1.1208  -11.6834  -50.1204 O.2       2 UNK        -0.5000 
     62 CA          3.0341  -10.3512  -49.5455 C.3       2 UNK         0.1400 
     63 CB          3.4039   -8.8531  -49.4666 C.3       2 UNK        -0.1800 
     64 N           3.6404  -11.0759  -48.4254 N.am      2 UNK        -0.5000 
     65 C           3.2588  -11.0528  -47.1385 C.2       1 UNK         0.5000 
     66 O           2.3101  -10.3939  -46.7109 O.2       1 UNK        -0.5000 
     67 C           0.8513  -23.2814  -49.3754 C.2       11 UNK         0.5000 
     68 O           1.1636  -23.7740  -50.4597 O.2       11 UNK        -0.5000 
     69 N          -0.3800  -23.3752  -48.8477 N.am      12 UNK        -0.5000 
     70 CA         -1.4522  -24.1919  -49.4151 C.3       12 UNK         0.1400 
     71 CB         -2.8177  -23.5627  -49.1015 C.3       12 UNK        -0.1800 
     72 C          -1.3753  -25.6235  -48.8646 C.2       12 UNK         0.5000 
     73 O          -1.3564  -26.5720  -49.6498 O.2       12 UNK        -0.5000 
     74 N          -1.3187  -25.7426  -47.5275 N.am      13 UNK        -0.5000 
     75 CA         -1.2213  -26.9748  -46.7389 C.3       13 UNK         0.1400 
     76 CB          0.2161  -27.5347  -46.7988 C.3       13 UNK        -0.1800 
     77 C          -2.2999  -28.0063  -47.1270 C.2       13 UNK         0.5000 
     78 O          -3.4595  -27.8400  -46.7465 O.2       13 UNK        -0.5000 
     79 N          -1.9067  -29.0227  -47.9080 N.am      14 UNK        -0.5000 
     80 CA         -2.7633  -30.0778  -48.4516 C.3       14 UNK         0.1400 
     81 CB         -1.8884  -31.0907  -49.2051 C.3       14 UNK        -0.1800 
     82 C          -3.8987  -29.5657  -49.3599 C.2       14 UNK         0.5000 
     83 O          -4.9252  -30.2384  -49.4699 O.2       14 UNK        -0.5000 
     84 N          -3.7345  -28.3747  -49.9558 N.am      15 UNK        -0.5000 
     85 CA         -4.7703  -27.6552  -50.7005 C.3       15 UNK         0.1400 
     86 CB         -4.1046  -26.6520  -51.6595 C.3       15 UNK        -0.1800 
     87 C          -5.7907  -26.9913  -49.7487 C.2       15 UNK         0.5000 
     88 O          -5.9303  -25.7672  -49.7385 O.2       15 UNK        -0.5000 
     89 N          -6.4612  -27.8263  -48.9410 N.am      16 UNK        -0.5000 
     90 CA         -7.5622  -27.5255  -48.0165 C.3       16 UNK         0.1400 
     91 CB         -8.8283  -27.1699  -48.8235 C.3       16 UNK        -0.1800 
     92 C          -7.2524  -26.4637  -46.9367 C.2       16 UNK         0.5000 
     93 O          -8.1869  -25.8850  -46.3793 O.2       16 UNK        -0.5000 
     94 N          -5.9609  -26.2122  -46.6684 N.am      17 UNK        -0.5000 
     95 CA         -5.4263  -25.1355  -45.8258 C.3       17 UNK         0.1400 
     96 CB         -5.6678  -25.4438  -44.3344 C.3       17 UNK        -0.1800 
     97 C          -5.9275  -23.7345  -46.2487 C.2       17 UNK         0.5000 
     98 O          -6.2339  -22.9004  -45.3940 O.2       17 UNK        -0.5000 
     99 N          -6.0295  -23.5201  -47.5693 N.am      18 UNK        -0.5000 
    100 CA        -6.4554  -22.2723  -48.2046 C.3       18 UNK         0.1400 
    101 CB        -6.6583  -22.5445  -49.7059 C.3       18 UNK        -0.1800 
    102 C         -5.4672  -21.1073  -47.9848 C.2       18 UNK         0.5000 
    103 O         -4.3995  -21.2893  -47.3965 O.2       18 UNK        -0.5000 
    104 N         -5.8253  -19.9213  -48.4940 N.am      19 UNK        -0.5000 
    105 CA        -5.0050  -18.7093  -48.4641 C.3       19 UNK         0.1400 
    106 CB        -5.8930  -17.4922  -48.7776 C.3       19 UNK        -0.1800 
    107 C         -3.7930  -18.8099  -49.4130 C.2       19 UNK         0.5000 
    108 O         -3.7934  -18.2104  -50.4908 O.2       19 UNK        -0.5000 
    109 N         -2.8048  -19.6170  -49.0073 N.am      20 UNK        -0.5000 
    110 CA        -1.4672  -19.7992  -49.5832 C.3       20 UNK         0.1400 
    111 CB        -0.6477  -18.5094  -49.4026 C.3       20 UNK        -0.1800 
    112 C         -1.4256  -20.3014  -51.0427 C.2       20 UNK         0.5000 
    113 O         -0.3557  -20.3040  -51.6516 O.2       20 UNK        -0.5000 
    114 N         -2.5876  -20.7120  -51.5717 N.am      21 UNK        -0.5000 
    115 CA        -2.8680  -21.0222  -52.9754 C.3       21 UNK         0.1400 
    116 CB        -2.0727  -22.2585  -53.4452 C.3       21 UNK        -0.1800 
    117 C         -2.7052  -19.7928  -53.9004 C.2       21 UNK         0.5000 
    118 O         -2.3824  -19.9510  -55.0794 O.2       21 UNK        -0.5000 
    119 N         -2.9484  -18.5920  -53.3574 N.am      22 UNK        -0.5000 
    120 CA        -2.8587  -17.3081  -54.0710 C.3       22 UNK         0.1400 
    121 C         -3.8930  -16.2416  -53.6094 C.2       22 UNK         0.5000 
    122 N         -4.5544  -16.3842  -52.4670 N.am      22 UNK        -0.7600 
    123 O         -4.1253  -15.2704  -54.3247 O.2       22 UNK        -0.5000 
    124 C124       -1.4114  -16.7467  -54.1123 C.3       23 UNK        -0.0398 
    125 S125       -0.7075  -16.4421  -52.4544 S.3       23 UNK        -0.2404 
    126 C126        1.0721  -16.6841  -52.7525 C.3       23 UNK        -0.0205 
    127 H127        7.9973  -11.9000  -47.0674 H         1 UNK         0.0600 
    128 H128        8.4112  -10.6632  -45.8770 H         1 UNK         0.0600 
    129 H129        8.0014  -10.1962  -47.5312 H         1 UNK         0.0600 
    130 H130        5.9352  -12.6993  -46.7875 H         1 UNK         0.3000 
    131 H131        3.9494  -11.4458  -45.1697 H         1 UNK         0.0600 
    132 H132        2.4886  -13.3783  -45.9375 H         1 UNK         0.0800 
    133 H133        3.9735  -13.8159  -45.1605 H         1 UNK         0.0800 
    134 H134        2.1047  -13.8286  -48.7340 H         1 UNK         0.0800 
    135 H135        1.7223  -15.0225  -47.5196 H         1 UNK         0.0800 
    136 H136        1.2421  -14.8775  -50.7071 H         1 UNK         0.1150 
    137 H137        2.6556  -18.7408  -51.9205 H         1 UNK         0.1150 
    138 H138        3.8320  -17.1336  -48.1362 H         1 UNK         0.1150 
    139 H139        4.3083  -19.9013  -50.6291 H         1 UNK         0.0800 
    140 H140        5.2222  -18.9449  -49.4947 H         1 UNK         0.0800 
    141 H141        2.2803  -21.1261  -50.1877 H         1 UNK         0.0800 
    142 H142        1.2830  -20.4844  -48.9096 H         1 UNK         0.0800 
    143 H143        2.8622  -23.0869  -48.7041 H         1 UNK         0.0600 
    144 H144        1.2069  -21.6908  -46.7527 H         1 UNK         0.3000 
    145 H145        0.8157  -24.4779  -44.6257 H         1 UNK         0.0600 
    146 H146        2.0876  -23.2669  -42.8670 H         1 UNK         0.0600 
    147 H147        3.1949  -24.0238  -44.0001 H         1 UNK         0.0600 
    148 H148        2.9009  -22.2915  -44.0922 H         1 UNK         0.0600 
    149 H149        0.5137  -21.6893  -44.1069 H         1 UNK         0.3000 
    150 H150       -2.2812  -20.9633  -46.0093 H         1 UNK         0.0600 
    151 H151       -3.5225  -22.2415  -44.2576 H         1 UNK         0.0600 
    152 H152       -3.5502  -20.5173  -43.9308 H         1 UNK         0.0600 
    153 H153       -2.4730  -21.5709  -43.0111 H         1 UNK         0.0600 
    154 H154       -1.2318  -19.5289  -43.8243 H         1 UNK         0.3000 
    155 H155        1.3414  -18.4928  -44.1593 H         1 UNK         0.0600 
    156 H156        0.8182  -17.1017  -46.8270 H         1 UNK         0.0600 
    157 H157        1.9800  -16.5816  -45.6063 H         1 UNK         0.0600 
    158 H158        2.2106  -18.1066  -46.4445 H         1 UNK         0.0600 
    159 H159       -0.5546  -16.4239  -44.9195 H         1 UNK         0.3000 
    160 H160       -2.3480  -16.4865  -41.8407 H         1 UNK         0.0600 
    161 H161       -0.3299  -15.1581  -41.3338 H         1 UNK         0.0600 
    162 H162       -1.6142  -14.0972  -41.8919 H         1 UNK         0.0600 
    163 H163       -0.2847  -14.5206  -42.9702 H         1 UNK         0.0600 
    164 H164       -2.3267  -14.9665  -44.3469 H         1 UNK         0.3000 
    165 H165       -4.9411  -16.8099  -45.8467 H         1 UNK         0.0600 
    166 H166       -6.1918  -14.6730  -45.8606 H         1 UNK         0.0600 
    167 H167       -6.2753  -15.4087  -44.2683 H         1 UNK         0.0600 
    168 H168       -5.1958  -14.0471  -44.5453 H         1 UNK         0.0600 
    169 H169       -3.7551  -14.3153  -46.5435 H         1 UNK         0.3000 
    170 H170       -0.8122  -15.5526  -48.1083 H         1 UNK         0.0600 
    171 H171       -2.6323  -15.9442  -49.8103 H         1 UNK         0.0600 
    172 H172       -3.3875  -14.4294  -49.3475 H         1 UNK         0.0600 
    173 H173       -1.7861  -14.4346  -50.0865 H         1 UNK         0.0600 
    174 H174       -1.9904  -12.9538  -48.0059 H         1 UNK         0.3000 
    175 H175       -1.9462  -11.6506  -45.6922 H         1 UNK         0.0600 
    176 H176        0.9977  -11.8863  -44.9130 H         1 UNK         0.0600 
    177 H177       -0.0608  -10.5430  -44.4940 H         1 UNK         0.0600 
    178 H178       -0.3915  -12.1502  -43.8715 H         1 UNK         0.0600 
    179 H179        0.4211  -10.6682  -47.0584 H         1 UNK         0.3000 
    180 H180       -1.0979  -10.0813  -50.1541 H         1 UNK         0.0600 
    181 H181       -2.4047   -8.3043  -48.9853 H         1 UNK         0.0600 
    182 H182       -0.9870   -7.6301  -49.7717 H         1 UNK         0.0600 
    183 H183       -0.9937   -7.8774  -48.0248 H         1 UNK         0.0600 
    184 H184        1.1216   -8.8239  -48.8054 H         1 UNK         0.3000 
    185 H185        3.4806  -10.7527  -50.4564 H         1 UNK         0.0600 
    186 H186        3.0693   -8.3903  -48.5377 H         1 UNK         0.0600 
    187 H187        4.4842   -8.7190  -49.5252 H         1 UNK         0.0600 
    188 H188        2.9666   -8.2950  -50.2956 H         1 UNK         0.0600 
    189 H189        4.4177  -11.6745  -48.6658 H         1 UNK         0.3000 
    190 H190       -0.5393  -23.0101  -47.9177 H         1 UNK         0.3000 
    191 H191       -1.3492  -24.2360  -50.5016 H         1 UNK         0.0600 
    192 H192       -3.0046  -23.5007  -48.0300 H         1 UNK         0.0600 
    193 H193       -3.6281  -24.1474  -49.5357 H         1 UNK         0.0600 
    194 H194       -2.8937  -22.5571  -49.5085 H         1 UNK         0.0600 
    195 H195       -1.3751  -24.8889  -46.9758 H         1 UNK         0.3000 
    196 H196       -1.4241  -26.6979  -45.7032 H         1 UNK         0.0600 
    197 H197        0.2970  -28.4791  -46.2589 H         1 UNK         0.0600 
    198 H198        0.9169  -26.8454  -46.3307 H         1 UNK         0.0600 
    199 H199        0.5544  -27.7018  -47.8220 H         1 UNK         0.0600 
    200 H200       -0.9413  -29.0389  -48.2029 H         1 UNK         0.3000 
    201 H201       -3.2303  -30.5883  -47.6070 H         1 UNK         0.0600 
    202 H202       -1.1372  -31.5299  -48.5484 H         1 UNK         0.0600 
    203 H203       -1.3712  -30.6268  -50.0460 H         1 UNK         0.0600 
    204 H204       -2.4904  -31.9098  -49.6010 H         1 UNK         0.0600 
    205 H205       -2.8650  -27.8729  -49.8003 H         1 UNK         0.3000 
    206 H206       -5.3225  -28.3708  -51.3131 H         1 UNK         0.0600 
    207 H207       -3.4240  -27.1557  -52.3458 H         1 UNK         0.0600 
    208 H208       -4.8515  -26.1351  -52.2634 H         1 UNK         0.0600 
    209 H209       -3.5360  -25.8932  -51.1245 H         1 UNK         0.0600 
    210 H210       -6.2049  -28.8073  -49.0039 H         1 UNK         0.3000 
    211 H211       -7.7627  -28.4511  -47.4754 H         1 UNK         0.0600 
    212 H212       -8.7163  -26.2194  -49.3467 H         1 UNK         0.0600 
    213 H213       -9.7014  -27.0869  -48.1754 H         1 UNK         0.0600 
    214 H214       -9.0520  -27.9366  -49.5653 H         1 UNK         0.0600 
    215 H215       -5.2601  -26.7851  -47.1251 H         1 UNK         0.3000 
    216 H216       -4.3473  -25.1287  -45.9889 H         1 UNK         0.0600 
    217 H217       -5.1699  -24.7110  -43.6983 H         1 UNK         0.0600 
    218 H218       -5.2734  -26.4244  -44.0680 H         1 UNK         0.0600 
    219 H219       -6.7290  -25.4287  -44.0847 H         1 UNK         0.0600 
    220 H220       -5.8028  -24.2811  -48.1994 H         1 UNK         0.3000 
    221 H221       -7.4128  -21.9830  -47.7674 H         1 UNK         0.0600 
    222 H222       -5.7232  -22.8232  -50.1934 H         1 UNK         0.0600 
    223 H223       -7.3690  -23.3561  -49.8643 H         1 UNK         0.0600 
    224 H224       -7.0533  -21.6715  -50.2260 H         1 UNK         0.0600 
    225 H225       -6.7056  -19.8473  -48.9827 H         1 UNK         0.3000 
    226 H226       -4.6172  -18.5847  -47.4513 H         1 UNK         0.0600 
    227 H227       -6.6867  -17.3827  -48.0384 H         1 UNK         0.0600 
    228 H228       -5.3099  -16.5704  -48.7640 H         1 UNK         0.0600 
    229 H229       -6.3576  -17.5722  -49.7611 H         1 UNK         0.0600 
    230 H230       -2.9902  -20.1488  -48.1622 H         1 UNK         0.3000 
    231 H231       -0.9994  -20.5804  -48.9857 H         1 UNK         0.0600 
    232 H232        0.3597  -18.6113  -49.7983 H         1 UNK         0.0600 
    233 H233       -0.5483  -18.2523  -48.3514 H         1 UNK         0.0600 
    234 H234       -1.1085  -17.6650  -49.9081 H         1 UNK         0.0600 
    235 H235       -3.3987  -20.6420  -50.9748 H         1 UNK         0.3000 
    236 H236       -3.9260  -21.2843  -53.0163 H         1 UNK         0.0600 
    237 H237       -2.4061  -22.5851  -54.4307 H         1 UNK         0.0600 
    238 H238       -1.0044  -22.0534  -53.5154 H         1 UNK         0.0600 
    239 H239       -2.2093  -23.0975  -52.7628 H         1 UNK         0.0600 
    240 H240       -3.1851  -18.5345  -52.3733 H         1 UNK         0.3000 
    241 H241       -3.1450  -17.5029  -55.1063 H         1 UNK         0.0600 
    242 H242       -5.2288  -15.6823  -52.2107 H         1 UNK         0.3800 
    243 H243       -4.3284  -17.1192  -51.8012 H         1 UNK         0.3800 
    244 H244       -0.7729  -17.4519  -54.6452 H         1 UNK         0.0800 
    245 H245       -1.3714  -15.8192  -54.6856 H         1 UNK         0.0800 
    246 H246        1.2120  -17.5825  -53.3555 H         1 UNK         0.0800 
    247 H247        1.4580  -15.8486  -53.3377 H         1 UNK         0.0800 
@<TRIPOS>BOND
     1    1    2 1    
     2    1  127 1    
     3    1  128 1    
     4    1  129 1    
     5    2    3 2    
     6    2    4 am   BACKBONE|DICT|INTERRES
     7    4    5 1    
     8    4  130 1    
     9    5    6 1    
    10    5   65 1    
    11    5  131 1    
    12    6    7 1    
    13    6  132 1    
    14    6  133 1    
    15    7    8 1    
    16    8    9 1    
    17    8  134 1    
    18    8  135 1    
    19    9   10 ar   
    20    9   14 ar   
    21   10   11 ar   
    22   10  136 1    
    23   11   12 ar   
    24   11  126 1    
    25   12   13 ar   
    26   12  137 1    
    27   13   14 ar   
    28   13   15 1    
    29   14  138 1    
    30   15   16 1    
    31   15  139 1    
    32   15  140 1    
    33   16   17 1    
    34   17   18 1    
    35   17  141 1    
    36   17  142 1    
    37   18   19 1    
    38   18   67 1    
    39   18  143 1    
    40   19   20 am   BACKBONE|DICT|INTERRES
    41   19  144 1    
    42   20   21 2    
    43   20   22 1    
    44   22   23 1    
    45   22   24 1    
    46   22  145 1    
    47   23  146 1    
    48   23  147 1    
    49   23  148 1    
    50   24   25 am   BACKBONE|DICT|INTERRES
    51   24  149 1    
    52   25   26 2    
    53   25   27 1    
    54   27   28 1    
    55   27   29 1    
    56   27  150 1    
    57   28  151 1    
    58   28  152 1    
    59   28  153 1    
    60   29   30 am   BACKBONE|DICT|INTERRES
    61   29  154 1    
    62   30   31 2    
    63   30   32 1    
    64   32   33 1    
    65   32   34 1    
    66   32  155 1    
    67   33  156 1    
    68   33  157 1    
    69   33  158 1    
    70   34   35 am   BACKBONE|DICT|INTERRES
    71   34  159 1    
    72   35   36 2    
    73   35   37 1    
    74   37   38 1    
    75   37   39 1    
    76   37  160 1    
    77   38  161 1    
    78   38  162 1    
    79   38  163 1    
    80   39   40 am   BACKBONE|DICT|INTERRES
    81   39  164 1    
    82   40   41 2    
    83   40   42 1    
    84   42   43 1    
    85   42   44 1    
    86   42  165 1    
    87   43  166 1    
    88   43  167 1    
    89   43  168 1    
    90   44   45 am   BACKBONE|DICT|INTERRES
    91   44  169 1    
    92   45   46 2    
    93   45   47 1    
    94   47   48 1    
    95   47   49 1    
    96   47  170 1    
    97   48  171 1    
    98   48  172 1    
    99   48  173 1    
   100   49   50 am   BACKBONE|DICT|INTERRES
   101   49  174 1    
   102   50   51 2    
   103   50   52 1    
   104   52   53 1    
   105   52   54 1    
   106   52  175 1    
   107   53  176 1    
   108   53  177 1    
   109   53  178 1    
   110   54   55 am   BACKBONE|DICT|INTERRES
   111   54  179 1    
   112   55   56 2    
   113   55   57 1    
   114   57   58 1    
   115   57   59 1    
   116   57  180 1    
   117   58  181 1    
   118   58  182 1    
   119   58  183 1    
   120   59   60 am   BACKBONE|DICT|INTERRES
   121   59  184 1    
   122   60   61 2    
   123   60   62 1    
   124   62   63 1    
   125   62   64 1    
   126   62  185 1    
   127   63  186 1    
   128   63  187 1    
   129   63  188 1    
   130   64   65 am   BACKBONE|DICT|INTERRES
   131   64  189 1    
   132   65   66 2    
   133   67   68 2    
   134   67   69 am   BACKBONE|DICT|INTERRES
   135   69   70 1    
   136   69  190 1    
   137   70   71 1    
   138   70   72 1    
   139   70  191 1    
   140   71  192 1    
   141   71  193 1    
   142   71  194 1    
   143   72   73 2    
   144   72   74 am   BACKBONE|DICT|INTERRES
   145   74   75 1    
   146   74  195 1    
   147   75   76 1    
   148   75   77 1    
   149   75  196 1    
   150   76  197 1    
   151   76  198 1    
   152   76  199 1    
   153   77   78 2    
   154   77   79 am   BACKBONE|DICT|INTERRES
   155   79   80 1    
   156   79  200 1    
   157   80   81 1    
   158   80   82 1    
   159   80  201 1    
   160   81  202 1    
   161   81  203 1    
   162   81  204 1    
   163   82   83 2    
   164   82   84 am   BACKBONE|DICT|INTERRES
   165   84   85 1    
   166   84  205 1    
   167   85   86 1    
   168   85   87 1    
   169   85  206 1    
   170   86  207 1    
   171   86  208 1    
   172   86  209 1    
   173   87   88 2    
   174   87   89 am   BACKBONE|DICT|INTERRES
   175   89   90 1    
   176   89  210 1    
   177   90   91 1    
   178   90   92 1    
   179   90  211 1    
   180   91  212 1    
   181   91  213 1    
   182   91  214 1    
   183   92   93 2    
   184   92   94 am   BACKBONE|DICT|INTERRES
   185   94   95 1    
   186   94  215 1    
   187   95   96 1    
   188   95   97 1    
   189   95  216 1    
   190   96  217 1    
   191   96  218 1    
   192   96  219 1    
   193   97   98 2    
   194   97   99 am   BACKBONE|DICT|INTERRES
   195   99  100 1    
   196   99  220 1    
   197  100  101 1    
   198  100  102 1    
   199  100  221 1    
   200  101  222 1    
   201  101  223 1    
   202  101  224 1    
   203  102  103 2    
   204  102  104 am   BACKBONE|DICT|INTERRES
   205  104  105 1    
   206  104  225 1    
   207  105  106 1    
   208  105  107 1    
   209  105  226 1    
   210  106  227 1    
   211  106  228 1    
   212  106  229 1    
   213  107  108 2    
   214  107  109 am   BACKBONE|DICT|INTERRES
   215  109  110 1    
   216  109  230 1    
   217  110  111 1    
   218  110  112 1    
   219  110  231 1    
   220  111  232 1    
   221  111  233 1    
   222  111  234 1    
   223  112  113 2    
   224  112  114 am   BACKBONE|DICT|INTERRES
   225  114  115 1    
   226  114  235 1    
   227  115  116 1    
   228  115  117 1    
   229  115  236 1    
   230  116  237 1    
   231  116  238 1    
   232  116  239 1    
   233  117  118 2    
   234  117  119 am   BACKBONE|DICT|INTERRES
   235  119  120 1    
   236  119  240 1    
   237  120  121 1    
   238  120  124 1    
   239  120  241 1    
   240  121  122 am   BACKBONE|DICT|INTERRES
   241  121  123 2    
   242  122  242 1    
   243  122  243 1    
   244  124  125 1    
   245  124  244 1    
   246  124  245 1    
   247  125  126 1    
   248  126  246 1    
   249  126  247 1    
@<TRIPOS>SUBSTRUCTURE
     1 UNK         1 GROUP             0       ****    0 ROOT    
