@<TRIPOS>MOLECULE
3R540
247   249    1
SMALL
USER_CHARGES


@<TRIPOS>ATOM
      1 CA         -2.3128  -12.7276  -46.3035 C.3       0 UNK        -0.1800 
      2 C          -1.4861  -12.3720  -47.5290 C.2       0 UNK         0.5000 
      3 O          -1.9605  -11.6405  -48.3980 O.2       0 UNK        -0.5000 
      4 N          -0.2495  -12.8755  -47.5900 N.am      1 UNK        -0.5000 
      5 CA          0.7140  -12.5915  -48.6553 C.3       1 UNK         0.1400 
      6 C6          0.3799  -13.2527  -50.0198 C.3       23 UNK        -0.0398 
      7 S7          0.2192  -15.0759  -49.9941 S.3       23 UNK        -0.2404 
      8 C8          1.8143  -15.5720  -50.7173 C.3       23 UNK        -0.0205 
      9 C9          1.7848  -17.0121  -51.2000 C.ar      23 UNK        -0.0193 
     10 C10         1.4391  -17.2918  -52.5243 C.ar      23 UNK        -0.1150 
     11 C11         1.4195  -18.6076  -52.9932 C.ar      23 UNK        -0.0193 
     12 C12         1.7683  -19.6477  -52.1260 C.ar      23 UNK        -0.1150 
     13 C13         2.1143  -19.3829  -50.7957 C.ar      23 UNK        -0.0193 
     14 C14         2.1182  -18.0617  -50.3386 C.ar      23 UNK        -0.1150 
     15 C15         2.5239  -20.5214  -49.8704 C.3       23 UNK        -0.0205 
     16 S16         1.1615  -21.6909  -49.5654 S.3       23 UNK        -0.2404 
     17 C17         0.4535  -21.1383  -47.9759 C.3       23 UNK        -0.0398 
     18 CA         -0.1264  -22.3242  -47.1671 C.3       11 UNK         0.1400 
     19 N          -0.2983  -21.9958  -45.7487 N.am      11 UNK        -0.5000 
     20 C          -0.5887  -22.8930  -44.7953 C.2       10 UNK         0.5000 
     21 O          -0.6878  -24.1008  -45.0047 O.2       10 UNK        -0.5000 
     22 CA         -0.8772  -22.3527  -43.3842 C.3       10 UNK         0.1400 
     23 CB          0.4280  -22.0672  -42.6275 C.3       10 UNK        -0.1800 
     24 N          -1.7194  -21.1567  -43.4083 N.am      10 UNK        -0.5000 
     25 C          -2.9818  -21.1320  -43.8600 C.2       9 UNK         0.5000 
     26 O          -3.5890  -22.1342  -44.2347 O.2       9 UNK        -0.5000 
     27 CA         -3.6660  -19.7561  -43.9578 C.3       9 UNK         0.1400 
     28 CB         -4.2551  -19.3421  -42.6017 C.3       9 UNK        -0.1800 
     29 N          -2.7699  -18.7090  -44.4521 N.am      9 UNK        -0.5000 
     30 C          -2.2016  -18.7060  -45.6666 C.2       8 UNK         0.5000 
     31 O          -2.4063  -19.5725  -46.5148 O.2       8 UNK        -0.5000 
     32 CA         -1.1862  -17.5864  -45.9617 C.3       8 UNK         0.1400 
     33 CB         -1.8918  -16.2784  -46.3438 C.3       8 UNK        -0.1800 
     34 N          -0.2779  -17.3539  -44.8376 N.am      8 UNK        -0.5000 
     35 C           0.6150  -18.2555  -44.4032 C.2       7 UNK         0.5000 
     36 O           0.8180  -19.3356  -44.9590 O.2       7 UNK        -0.5000 
     37 CA          1.3618  -17.9204  -43.1001 C.3       7 UNK         0.1400 
     38 CB          2.5659  -17.0086  -43.3648 C.3       7 UNK        -0.1800 
     39 N           0.4863  -17.2919  -42.1120 N.am      7 UNK        -0.5000 
     40 C          -0.4826  -17.9364  -41.4476 C.2       6 UNK         0.5000 
     41 O          -0.7218  -19.1347  -41.5837 O.2       6 UNK        -0.5000 
     42 CA         -1.3545  -17.0923  -40.5008 C.3       6 UNK         0.1400 
     43 CB         -0.6960  -16.9802  -39.1179 C.3       6 UNK        -0.1800 
     44 N          -1.6196  -15.7503  -41.0200 N.am      6 UNK        -0.5000 
     45 C          -2.3177  -15.4870  -42.1341 C.2       5 UNK         0.5000 
     46 O          -2.8363  -16.3518  -42.8375 O.2       5 UNK        -0.5000 
     47 CA         -2.4004  -14.0123  -42.5614 C.3       5 UNK         0.1400 
     48 CB         -3.5810  -13.3120  -41.8735 C.3       5 UNK        -0.1800 
     49 N          -1.1635  -13.2813  -42.2756 N.am      5 UNK        -0.5000 
     50 C           0.0125  -13.5095  -42.8742 C.2       4 UNK         0.5000 
     51 O           0.1759  -14.3148  -43.7966 O.2       4 UNK        -0.5000 
     52 CA          1.2137  -12.7564  -42.2927 C.3       4 UNK         0.1400 
     53 CB          1.8218  -13.5493  -41.1200 C.3       4 UNK        -0.1800 
     54 N           2.2135  -12.5574  -43.3343 N.am      4 UNK        -0.5000 
     55 C           3.1988  -11.6524  -43.3004 C.2       3 UNK         0.5000 
     56 O           3.3554  -10.8678  -42.3631 O.2       3 UNK        -0.5000 
     57 CA          4.1564  -11.5655  -44.5103 C.3       3 UNK         0.1400 
     58 CB          5.6338  -11.6562  -44.0758 C.3       3 UNK        -0.1800 
     59 N           3.8726  -12.5012  -45.6069 N.am      3 UNK        -0.5000 
     60 C           3.9791  -13.8366  -45.6223 C.2       2 UNK         0.5000 
     61 O           4.3371  -14.5024  -44.6513 O.2       2 UNK        -0.5000 
     62 CA          3.5854  -14.5334  -46.9443 C.3       2 UNK         0.1400 
     63 CB          3.5038  -16.0649  -46.8173 C.3       2 UNK        -0.1800 
     64 N           2.3131  -14.0453  -47.4871 N.am      2 UNK        -0.5000 
     65 C           2.1396  -12.9069  -48.1750 C.2       1 UNK         0.5000 
     66 O           3.0453  -12.0997  -48.3855 O.2       1 UNK        -0.5000 
     67 C          -1.4295  -22.8768  -47.7908 C.2       11 UNK         0.5000 
     68 O          -1.3838  -23.8789  -48.5051 O.2       11 UNK        -0.5000 
     69 N          -2.5749  -22.2611  -47.4701 N.am      12 UNK        -0.5000 
     70 CA         -3.9020  -22.7112  -47.8949 C.3       12 UNK         0.1400 
     71 CB         -4.9445  -21.6407  -47.5419 C.3       12 UNK        -0.1800 
     72 C          -4.2964  -24.0868  -47.3267 C.2       12 UNK         0.5000 
     73 O          -4.9824  -24.8452  -48.0110 O.2       12 UNK        -0.5000 
     74 N          -3.8419  -24.3979  -46.1077 N.am      13 UNK        -0.5000 
     75 CA         -4.0326  -25.6962  -45.4693 C.3       13 UNK         0.1400 
     76 CB         -3.8473  -25.5515  -43.9501 C.3       13 UNK        -0.1800 
     77 C          -3.0918  -26.7737  -46.0399 C.2       13 UNK         0.5000 
     78 O          -3.5588  -27.8544  -46.4017 O.2       13 UNK        -0.5000 
     79 N          -1.7854  -26.4783  -46.0771 N.am      14 UNK        -0.5000 
     80 CA         -0.7373  -27.4534  -46.3770 C.3       14 UNK         0.1400 
     81 CB          0.5744  -27.0122  -45.7076 C.3       14 UNK        -0.1800 
     82 C          -0.5179  -27.6820  -47.8806 C.2       14 UNK         0.5000 
     83 O          -0.4351  -28.8344  -48.3082 O.2       14 UNK        -0.5000 
     84 N          -0.3891  -26.5925  -48.6473 N.am      15 UNK        -0.5000 
     85 CA         -0.0125  -26.6222  -50.0635 C.3       15 UNK         0.1400 
     86 CB          1.0475  -25.5376  -50.3131 C.3       15 UNK        -0.1800 
     87 C          -1.2114  -26.4133  -51.0031 C.2       15 UNK         0.5000 
     88 O          -1.0948  -26.7171  -52.1908 O.2       15 UNK        -0.5000 
     89 N          -2.3239  -25.8929  -50.4644 N.am      16 UNK        -0.5000 
     90 CA         -3.5390  -25.4819  -51.1723 C.3       16 UNK         0.1400 
     91 CB         -4.2540  -26.6885  -51.8157 C.3       16 UNK        -0.1800 
     92 C          -3.2636  -24.3274  -52.1557 C.2       16 UNK         0.5000 
     93 O          -3.6626  -24.3925  -53.3185 O.2       16 UNK        -0.5000 
     94 N          -2.5851  -23.2884  -51.6547 N.am      17 UNK        -0.5000 
     95 CA         -2.2608  -22.0613  -52.3776 C.3       17 UNK         0.1400 
     96 CB         -0.8188  -22.1563  -52.9049 C.3       17 UNK        -0.1800 
     97 C          -2.5334  -20.8382  -51.4808 C.2       17 UNK         0.5000 
     98 O          -3.3349  -20.9431  -50.5496 O.2       17 UNK        -0.5000 
     99 N          -1.9166  -19.6927  -51.7988 N.am      18 UNK        -0.5000 
    100 CA        -2.0331  -18.3717  -51.1655 C.3       18 UNK         0.1400 
    101 CB        -1.5319  -18.3975  -49.7111 C.3       18 UNK        -0.1800 
    102 C         -3.4416  -17.7581  -51.2623 C.2       18 UNK         0.5000 
    103 O         -3.6323  -16.7660  -51.9662 O.2       18 UNK        -0.5000 
    104 N         -4.3914  -18.3568  -50.5383 N.am      19 UNK        -0.5000 
    105 CA        -5.8079  -18.0045  -50.5279 C.3       19 UNK         0.1400 
    106 CB        -6.2573  -17.8156  -49.0703 C.3       19 UNK        -0.1800 
    107 C         -6.6614  -19.0850  -51.2152 C.2       19 UNK         0.5000 
    108 O         -7.7423  -18.7666  -51.7120 O.2       19 UNK        -0.5000 
    109 N         -6.1795  -20.3371  -51.2345 N.am      20 UNK        -0.5000 
    110 CA        -6.8818  -21.4809  -51.8220 C.3       20 UNK         0.1400 
    111 CB        -6.4643  -22.7533  -51.0694 C.3       20 UNK        -0.1800 
    112 C         -6.6430  -21.6279  -53.3384 C.2       20 UNK         0.5000 
    113 O         -7.4316  -22.2950  -54.0089 O.2       20 UNK        -0.5000 
    114 N         -5.5818  -20.9973  -53.8523 N.am      21 UNK        -0.5000 
    115 CA        -5.1796  -20.9412  -55.2561 C.3       21 UNK         0.1400 
    116 CB        -4.6694  -22.3123  -55.7507 C.3       21 UNK        -0.1800 
    117 C         -4.1083  -19.8448  -55.3939 C.2       21 UNK         0.5000 
    118 O         -3.8647  -19.1234  -54.4260 O.2       21 UNK        -0.5000 
    119 N         -3.5059  -19.7444  -56.5863 N.am      22 UNK        -0.5000 
    120 CA        -2.4242  -18.8230  -56.9971 C.3       22 UNK         0.1400 
    121 C         -2.7622  -17.2989  -57.0110 C.2       22 UNK         0.5000 
    122 N         -3.9965  -16.8860  -56.7534 N.am      22 UNK        -0.7600 
    123 O         -1.9026  -16.4767  -57.3174 O.2       22 UNK        -0.5000 
    124 C124       -1.0312  -19.1630  -56.3801 C.3       23 UNK        -0.0398 
    125 S125       -0.7595  -18.5881  -54.6703 S.3       23 UNK        -0.2404 
    126 C126        1.0160  -18.8943  -54.4327 C.3       23 UNK        -0.0205 
    127 H127       -2.6932  -11.8245  -45.8264 H         1 UNK         0.0600 
    128 H128       -1.7134  -13.2693  -45.5743 H         1 UNK         0.0600 
    129 H129       -3.1597  -13.3525  -46.5866 H         1 UNK         0.0600 
    130 H130        0.0990  -13.4239  -46.8174 H         1 UNK         0.3000 
    131 H131        0.6946  -11.5107  -48.8135 H         1 UNK         0.0600 
    132 H132       -0.5668  -12.8558  -50.3871 H         1 UNK         0.0800 
    133 H133        1.1146  -12.9541  -50.7690 H         1 UNK         0.0800 
    134 H134        2.0608  -14.9181  -51.5550 H         1 UNK         0.0800 
    135 H135        2.6091  -15.4399  -49.9828 H         1 UNK         0.0800 
    136 H136        1.1717  -16.4845  -53.1919 H         1 UNK         0.1150 
    137 H137        1.7705  -20.6680  -52.4820 H         1 UNK         0.1150 
    138 H138        2.3826  -17.8508  -49.3137 H         1 UNK         0.1150 
    139 H139        3.3437  -21.0665  -50.3400 H         1 UNK         0.0800 
    140 H140        2.9181  -20.1426  -48.9265 H         1 UNK         0.0800 
    141 H141       -0.3050  -20.3776  -48.1498 H         1 UNK         0.0800 
    142 H142        1.2417  -20.6536  -47.3986 H         1 UNK         0.0800 
    143 H143        0.6063  -23.1339  -47.2002 H         1 UNK         0.0600 
    144 H144       -0.1986  -21.0199  -45.4884 H         1 UNK         0.3000 
    145 H145       -1.4186  -23.1281  -42.8383 H         1 UNK         0.0600 
    146 H146        0.2286  -21.7632  -41.5999 H         1 UNK         0.0600 
    147 H147        1.0572  -22.9571  -42.5864 H         1 UNK         0.0600 
    148 H148        1.0082  -21.2772  -43.1035 H         1 UNK         0.0600 
    149 H149       -1.3103  -20.3030  -43.0415 H         1 UNK         0.3000 
    150 H150       -4.4893  -19.8461  -44.6690 H         1 UNK         0.0600 
    151 H151       -4.9541  -20.0943  -42.2342 H         1 UNK         0.0600 
    152 H152       -4.8004  -18.4013  -42.6793 H         1 UNK         0.0600 
    153 H153       -3.4793  -19.2183  -41.8466 H         1 UNK         0.0600 
    154 H154       -2.5988  -17.9255  -43.8268 H         1 UNK         0.3000 
    155 H155       -0.5865  -17.9051  -46.8171 H         1 UNK         0.0600 
    156 H156       -2.4532  -15.8609  -45.5080 H         1 UNK         0.0600 
    157 H157       -2.5932  -16.4359  -47.1641 H         1 UNK         0.0600 
    158 H158       -1.1704  -15.5321  -46.6737 H         1 UNK         0.0600 
    159 H159       -0.3760  -16.4803  -44.3361 H         1 UNK         0.3000 
    160 H160        1.7356  -18.8569  -42.6806 H         1 UNK         0.0600 
    161 H161        2.2598  -16.0462  -43.7745 H         1 UNK         0.0600 
    162 H162        3.2549  -17.4673  -44.0747 H         1 UNK         0.0600 
    163 H163        3.1266  -16.8175  -42.4498 H         1 UNK         0.0600 
    164 H164        0.5953  -16.2995  -41.9709 H         1 UNK         0.3000 
    165 H165       -2.3119  -17.6039  -40.3835 H         1 UNK         0.0600 
    166 H166       -1.3406  -16.4510  -38.4158 H         1 UNK         0.0600 
    167 H167       -0.5017  -17.9679  -38.6975 H         1 UNK         0.0600 
    168 H168        0.2563  -16.4503  -39.1653 H         1 UNK         0.0600 
    169 H169       -1.2347  -14.9768  -40.4992 H         1 UNK         0.3000 
    170 H170       -2.5782  -13.9945  -43.6363 H         1 UNK         0.0600 
    171 H171       -4.5176  -13.8307  -42.0830 H         1 UNK         0.0600 
    172 H172       -3.4582  -13.2807  -40.7902 H         1 UNK         0.0600 
    173 H173       -3.6923  -12.2875  -42.2292 H         1 UNK         0.0600 
    174 H174       -1.2097  -12.5991  -41.5322 H         1 UNK         0.3000 
    175 H175        0.8710  -11.7822  -41.9376 H         1 UNK         0.0600 
    176 H176        2.2159  -14.5116  -41.4489 H         1 UNK         0.0600 
    177 H177        2.6383  -13.0005  -40.6508 H         1 UNK         0.0600 
    178 H178        1.0796  -13.7430  -40.3448 H         1 UNK         0.0600 
    179 H179        2.1276  -13.1742  -44.1308 H         1 UNK         0.3000 
    180 H180        4.0042  -10.5712  -44.9324 H         1 UNK         0.0600 
    181 H181        5.8542  -12.6004  -43.5772 H         1 UNK         0.0600 
    182 H182        5.8865  -10.8562  -43.3790 H         1 UNK         0.0600 
    183 H183        6.3035  -11.5624  -44.9306 H         1 UNK         0.0600 
    184 H184        3.5734  -12.0698  -46.4761 H         1 UNK         0.3000 
    185 H185        4.3804  -14.3085  -47.6584 H         1 UNK         0.0600 
    186 H186        4.4071  -16.4796  -46.3681 H         1 UNK         0.0600 
    187 H187        2.6545  -16.3742  -46.2086 H         1 UNK         0.0600 
    188 H188        3.3977  -16.5278  -47.7963 H         1 UNK         0.0600 
    189 H189        1.5265  -14.6685  -47.3829 H         1 UNK         0.3000 
    190 H190       -2.5361  -21.4014  -46.9279 H         1 UNK         0.3000 
    191 H191       -3.8849  -22.8214  -48.9785 H         1 UNK         0.0600 
    192 H192       -4.6945  -20.6857  -48.0038 H         1 UNK         0.0600 
    193 H193       -5.9355  -21.9257  -47.8955 H         1 UNK         0.0600 
    194 H194       -5.0120  -21.4847  -46.4657 H         1 UNK         0.0600 
    195 H195       -3.3482  -23.6891  -45.5763 H         1 UNK         0.3000 
    196 H196       -5.0598  -26.0223  -45.6464 H         1 UNK         0.0600 
    197 H197       -3.9973  -26.5067  -43.4455 H         1 UNK         0.0600 
    198 H198       -4.5662  -24.8461  -43.5329 H         1 UNK         0.0600 
    199 H199       -2.8486  -25.1974  -43.6938 H         1 UNK         0.0600 
    200 H200       -1.4732  -25.5663  -45.7480 H         1 UNK         0.3000 
    201 H201       -1.0199  -28.4119  -45.9358 H         1 UNK         0.0600 
    202 H202        0.4508  -26.9091  -44.6293 H         1 UNK         0.0600 
    203 H203        0.9251  -26.0551  -46.0958 H         1 UNK         0.0600 
    204 H204        1.3652  -27.7443  -45.8762 H         1 UNK         0.0600 
    205 H205       -0.5370  -25.6732  -48.2445 H         1 UNK         0.3000 
    206 H206        0.4346  -27.5859  -50.3159 H         1 UNK         0.0600 
    207 H207        1.9116  -25.6693  -49.6618 H         1 UNK         0.0600 
    208 H208        1.4069  -25.5709  -51.3423 H         1 UNK         0.0600 
    209 H209        0.6463  -24.5393  -50.1418 H         1 UNK         0.0600 
    210 H210       -2.2726  -25.6235  -49.4902 H         1 UNK         0.3000 
    211 H211       -4.2138  -25.0762  -50.4210 H         1 UNK         0.0600 
    212 H212       -3.6742  -27.1236  -52.6299 H         1 UNK         0.0600 
    213 H213       -5.2191  -26.3912  -52.2276 H         1 UNK         0.0600 
    214 H214       -4.4424  -27.4712  -51.0809 H         1 UNK         0.0600 
    215 H215       -2.3115  -23.3022  -50.6802 H         1 UNK         0.3000 
    216 H216       -2.9288  -21.9512  -53.2312 H         1 UNK         0.0600 
    217 H217       -0.6870  -23.0483  -53.5175 H         1 UNK         0.0600 
    218 H218       -0.0980  -22.2087  -52.0911 H         1 UNK         0.0600 
    219 H219       -0.5608  -21.3047  -53.5314 H         1 UNK         0.0600 
    220 H220       -1.3360  -19.6885  -52.6272 H         1 UNK         0.3000 
    221 H221       -1.3673  -17.7112  -51.7225 H         1 UNK         0.0600 
    222 H222       -2.0957  -19.0945  -49.0927 H         1 UNK         0.0600 
    223 H223       -0.4836  -18.6828  -49.6710 H         1 UNK         0.0600 
    224 H224       -1.6154  -17.4122  -49.2529 H         1 UNK         0.0600 
    225 H225       -4.1191  -19.1986  -50.0425 H         1 UNK         0.3000 
    226 H226       -5.9725  -17.0661  -51.0614 H         1 UNK         0.0600 
    227 H227       -5.6812  -17.0304  -48.5801 H         1 UNK         0.0600 
    228 H228       -7.3082  -17.5279  -49.0198 H         1 UNK         0.0600 
    229 H229       -6.1387  -18.7301  -48.4882 H         1 UNK         0.0600 
    230 H230       -5.2661  -20.5268  -50.8373 H         1 UNK         0.3000 
    231 H231       -7.9575  -21.3543  -51.6815 H         1 UNK         0.0600 
    232 H232       -5.3822  -22.8522  -51.0287 H         1 UNK         0.0600 
    233 H233       -6.8638  -23.6499  -51.5454 H         1 UNK         0.0600 
    234 H234       -6.8332  -22.7400  -50.0441 H         1 UNK         0.0600 
    235 H235       -5.0337  -20.3895  -53.2561 H         1 UNK         0.3000 
    236 H236       -6.0464  -20.6416  -55.8480 H         1 UNK         0.0600 
    237 H237       -5.3642  -23.1175  -55.5138 H         1 UNK         0.0600 
    238 H238       -4.5432  -22.3169  -56.8334 H         1 UNK         0.0600 
    239 H239       -3.7055  -22.5690  -55.3125 H         1 UNK         0.0600 
    240 H240       -3.8119  -20.3728  -57.3152 H         1 UNK         0.3000 
    241 H241       -2.3201  -19.0464  -58.0595 H         1 UNK         0.0600 
    242 H242       -4.2068  -15.9008  -56.7818 H         1 UNK         0.3800 
    243 H243       -4.7069  -17.5444  -56.4787 H         1 UNK         0.3800 
    244 H244       -0.8671  -20.2408  -56.4106 H         1 UNK         0.0800 
    245 H245       -0.2472  -18.7289  -57.0026 H         1 UNK         0.0800 
    246 H246        1.5894  -18.2574  -55.1078 H         1 UNK         0.0800 
    247 H247        1.2481  -19.9260  -54.7012 H         1 UNK         0.0800 
@<TRIPOS>BOND
     1    1    2 1    
     2    1  127 1    
     3    1  128 1    
     4    1  129 1    
     5    2    3 2    
     6    2    4 am   BACKBONE|DICT|INTERRES
     7    4    5 1    
     8    4  130 1    
     9    5    6 1    
    10    5   65 1    
    11    5  131 1    
    12    6    7 1    
    13    6  132 1    
    14    6  133 1    
    15    7    8 1    
    16    8    9 1    
    17    8  134 1    
    18    8  135 1    
    19    9   10 ar   
    20    9   14 ar   
    21   10   11 ar   
    22   10  136 1    
    23   11   12 ar   
    24   11  126 1    
    25   12   13 ar   
    26   12  137 1    
    27   13   14 ar   
    28   13   15 1    
    29   14  138 1    
    30   15   16 1    
    31   15  139 1    
    32   15  140 1    
    33   16   17 1    
    34   17   18 1    
    35   17  141 1    
    36   17  142 1    
    37   18   19 1    
    38   18   67 1    
    39   18  143 1    
    40   19   20 am   BACKBONE|DICT|INTERRES
    41   19  144 1    
    42   20   21 2    
    43   20   22 1    
    44   22   23 1    
    45   22   24 1    
    46   22  145 1    
    47   23  146 1    
    48   23  147 1    
    49   23  148 1    
    50   24   25 am   BACKBONE|DICT|INTERRES
    51   24  149 1    
    52   25   26 2    
    53   25   27 1    
    54   27   28 1    
    55   27   29 1    
    56   27  150 1    
    57   28  151 1    
    58   28  152 1    
    59   28  153 1    
    60   29   30 am   BACKBONE|DICT|INTERRES
    61   29  154 1    
    62   30   31 2    
    63   30   32 1    
    64   32   33 1    
    65   32   34 1    
    66   32  155 1    
    67   33  156 1    
    68   33  157 1    
    69   33  158 1    
    70   34   35 am   BACKBONE|DICT|INTERRES
    71   34  159 1    
    72   35   36 2    
    73   35   37 1    
    74   37   38 1    
    75   37   39 1    
    76   37  160 1    
    77   38  161 1    
    78   38  162 1    
    79   38  163 1    
    80   39   40 am   BACKBONE|DICT|INTERRES
    81   39  164 1    
    82   40   41 2    
    83   40   42 1    
    84   42   43 1    
    85   42   44 1    
    86   42  165 1    
    87   43  166 1    
    88   43  167 1    
    89   43  168 1    
    90   44   45 am   BACKBONE|DICT|INTERRES
    91   44  169 1    
    92   45   46 2    
    93   45   47 1    
    94   47   48 1    
    95   47   49 1    
    96   47  170 1    
    97   48  171 1    
    98   48  172 1    
    99   48  173 1    
   100   49   50 am   BACKBONE|DICT|INTERRES
   101   49  174 1    
   102   50   51 2    
   103   50   52 1    
   104   52   53 1    
   105   52   54 1    
   106   52  175 1    
   107   53  176 1    
   108   53  177 1    
   109   53  178 1    
   110   54   55 am   BACKBONE|DICT|INTERRES
   111   54  179 1    
   112   55   56 2    
   113   55   57 1    
   114   57   58 1    
   115   57   59 1    
   116   57  180 1    
   117   58  181 1    
   118   58  182 1    
   119   58  183 1    
   120   59   60 am   BACKBONE|DICT|INTERRES
   121   59  184 1    
   122   60   61 2    
   123   60   62 1    
   124   62   63 1    
   125   62   64 1    
   126   62  185 1    
   127   63  186 1    
   128   63  187 1    
   129   63  188 1    
   130   64   65 am   BACKBONE|DICT|INTERRES
   131   64  189 1    
   132   65   66 2    
   133   67   68 2    
   134   67   69 am   BACKBONE|DICT|INTERRES
   135   69   70 1    
   136   69  190 1    
   137   70   71 1    
   138   70   72 1    
   139   70  191 1    
   140   71  192 1    
   141   71  193 1    
   142   71  194 1    
   143   72   73 2    
   144   72   74 am   BACKBONE|DICT|INTERRES
   145   74   75 1    
   146   74  195 1    
   147   75   76 1    
   148   75   77 1    
   149   75  196 1    
   150   76  197 1    
   151   76  198 1    
   152   76  199 1    
   153   77   78 2    
   154   77   79 am   BACKBONE|DICT|INTERRES
   155   79   80 1    
   156   79  200 1    
   157   80   81 1    
   158   80   82 1    
   159   80  201 1    
   160   81  202 1    
   161   81  203 1    
   162   81  204 1    
   163   82   83 2    
   164   82   84 am   BACKBONE|DICT|INTERRES
   165   84   85 1    
   166   84  205 1    
   167   85   86 1    
   168   85   87 1    
   169   85  206 1    
   170   86  207 1    
   171   86  208 1    
   172   86  209 1    
   173   87   88 2    
   174   87   89 am   BACKBONE|DICT|INTERRES
   175   89   90 1    
   176   89  210 1    
   177   90   91 1    
   178   90   92 1    
   179   90  211 1    
   180   91  212 1    
   181   91  213 1    
   182   91  214 1    
   183   92   93 2    
   184   92   94 am   BACKBONE|DICT|INTERRES
   185   94   95 1    
   186   94  215 1    
   187   95   96 1    
   188   95   97 1    
   189   95  216 1    
   190   96  217 1    
   191   96  218 1    
   192   96  219 1    
   193   97   98 2    
   194   97   99 am   BACKBONE|DICT|INTERRES
   195   99  100 1    
   196   99  220 1    
   197  100  101 1    
   198  100  102 1    
   199  100  221 1    
   200  101  222 1    
   201  101  223 1    
   202  101  224 1    
   203  102  103 2    
   204  102  104 am   BACKBONE|DICT|INTERRES
   205  104  105 1    
   206  104  225 1    
   207  105  106 1    
   208  105  107 1    
   209  105  226 1    
   210  106  227 1    
   211  106  228 1    
   212  106  229 1    
   213  107  108 2    
   214  107  109 am   BACKBONE|DICT|INTERRES
   215  109  110 1    
   216  109  230 1    
   217  110  111 1    
   218  110  112 1    
   219  110  231 1    
   220  111  232 1    
   221  111  233 1    
   222  111  234 1    
   223  112  113 2    
   224  112  114 am   BACKBONE|DICT|INTERRES
   225  114  115 1    
   226  114  235 1    
   227  115  116 1    
   228  115  117 1    
   229  115  236 1    
   230  116  237 1    
   231  116  238 1    
   232  116  239 1    
   233  117  118 2    
   234  117  119 am   BACKBONE|DICT|INTERRES
   235  119  120 1    
   236  119  240 1    
   237  120  121 1    
   238  120  124 1    
   239  120  241 1    
   240  121  122 am   BACKBONE|DICT|INTERRES
   241  121  123 2    
   242  122  242 1    
   243  122  243 1    
   244  124  125 1    
   245  124  244 1    
   246  124  245 1    
   247  125  126 1    
   248  126  246 1    
   249  126  247 1    
@<TRIPOS>SUBSTRUCTURE
     1 UNK         1 GROUP             0       ****    0 ROOT    
