@<TRIPOS>MOLECULE
3R540
247   249    1
SMALL
USER_CHARGES


@<TRIPOS>ATOM
      1 CA         -0.0638  -11.6931  -42.6288 C.3       0 UNK        -0.1800 
      2 C           1.0983  -11.6767  -43.6126 C.2       0 UNK         0.5000 
      3 O           2.1301  -11.0682  -43.3293 O.2       0 UNK        -0.5000 
      4 N           0.9271  -12.3286  -44.7696 N.am      1 UNK        -0.5000 
      5 CA          1.9237  -12.4349  -45.8388 C.3       1 UNK         0.1400 
      6 C6          1.3250  -13.0511  -47.1264 C.3       23 UNK        -0.0398 
      7 S7          0.0159  -11.9993  -47.8384 S.3       23 UNK        -0.2404 
      8 C8         -0.0287  -12.5947  -49.5579 C.3       23 UNK        -0.0205 
      9 C9         -0.6199  -13.9925  -49.6494 C.ar      23 UNK        -0.0193 
     10 C10        -2.0064  -14.1681  -49.6125 C.ar      23 UNK        -0.1150 
     11 C11        -2.5644  -15.4480  -49.6788 C.ar      23 UNK        -0.0193 
     12 C12        -1.7172  -16.5563  -49.7731 C.ar      23 UNK        -0.1150 
     13 C13        -0.3307  -16.3938  -49.8240 C.ar      23 UNK        -0.0193 
     14 C14         0.2140  -15.1083  -49.7669 C.ar      23 UNK        -0.1150 
     15 C15         0.5716  -17.6144  -49.9216 C.3       23 UNK        -0.0205 
     16 S16         1.4944  -17.9268  -48.3827 S.3       23 UNK        -0.2404 
     17 C17         0.1806  -17.9716  -47.1204 C.3       23 UNK        -0.0398 
     18 CA         -0.2943  -19.4059  -46.7960 C.3       11 UNK         0.1400 
     19 N          -0.7018  -19.5248  -45.3967 N.am      11 UNK        -0.5000 
     20 C          -1.0083  -20.6732  -44.7807 C.2       10 UNK         0.5000 
     21 O          -0.9131  -21.7812  -45.3062 O.2       10 UNK        -0.5000 
     22 CA         -1.5629  -20.5483  -43.3528 C.3       10 UNK         0.1400 
     23 CB         -0.4183  -20.4871  -42.3333 C.3       10 UNK        -0.1800 
     24 N          -2.4132  -19.3646  -43.2119 N.am      10 UNK        -0.5000 
     25 C          -3.6370  -19.2552  -43.7488 C.2       9 UNK         0.5000 
     26 O          -4.1947  -20.1653  -44.3624 O.2       9 UNK        -0.5000 
     27 CA         -4.3292  -17.8847  -43.6194 C.3       9 UNK         0.1400 
     28 CB         -5.0012  -17.7441  -42.2456 C.3       9 UNK        -0.1800 
     29 N          -3.4084  -16.7641  -43.8265 N.am      9 UNK        -0.5000 
     30 C          -2.8032  -16.4873  -44.9904 C.2       8 UNK         0.5000 
     31 O          -2.9990  -17.1224  -46.0230 O.2       8 UNK        -0.5000 
     32 CA         -1.7750  -15.3401  -45.0051 C.3       8 UNK         0.1400 
     33 CB         -2.4431  -14.0371  -45.4684 C.3       8 UNK        -0.1800 
     34 N          -1.1038  -15.1168  -43.7206 N.am      8 UNK        -0.5000 
     35 C          -0.3626  -16.0195  -43.0616 C.2       7 UNK         0.5000 
     36 O          -0.1923  -17.1802  -43.4479 O.2       7 UNK        -0.5000 
     37 CA          0.2354  -15.5527  -41.7251 C.3       7 UNK         0.1400 
     38 CB         -0.8801  -15.1471  -40.7367 C.3       7 UNK        -0.1800 
     39 N           1.0485  -16.6198  -41.1473 N.am      7 UNK        -0.5000 
     40 C           1.9180  -16.4728  -40.1392 C.2       6 UNK         0.5000 
     41 O           2.1926  -15.3864  -39.6277 O.2       6 UNK        -0.5000 
     42 CA          2.5828  -17.7504  -39.5972 C.3       6 UNK         0.1400 
     43 CB          1.5967  -18.9233  -39.4547 C.3       6 UNK        -0.1800 
     44 N           3.6965  -18.1548  -40.4489 N.am      6 UNK        -0.5000 
     45 C           4.9555  -17.7145  -40.3233 C.2       5 UNK         0.5000 
     46 O           5.3293  -16.9386  -39.4428 O.2       5 UNK        -0.5000 
     47 CA          5.9782  -18.2424  -41.3490 C.3       5 UNK         0.1400 
     48 CB          6.7083  -19.4754  -40.7941 C.3       5 UNK        -0.1800 
     49 N           5.3786  -18.5837  -42.6423 N.am      5 UNK        -0.5000 
     50 C           4.9212  -17.6786  -43.5159 C.2       4 UNK         0.5000 
     51 O           4.9545  -16.4621  -43.3173 O.2       4 UNK        -0.5000 
     52 CA          4.3069  -18.2319  -44.8102 C.3       4 UNK         0.1400 
     53 CB          2.8200  -18.5510  -44.6009 C.3       4 UNK        -0.1800 
     54 N           4.4414  -17.2253  -45.8583 N.am      4 UNK        -0.5000 
     55 C           5.1803  -17.3590  -46.9677 C.2       3 UNK         0.5000 
     56 O           5.6797  -18.4241  -47.3332 O.2       3 UNK        -0.5000 
     57 CA          5.4509  -16.0819  -47.7944 C.3       3 UNK         0.1400 
     58 CB          4.5248  -16.0017  -49.0173 C.3       3 UNK        -0.1800 
     59 N           5.3110  -14.8476  -47.0210 N.am      3 UNK        -0.5000 
     60 C           6.0838  -14.4816  -45.9891 C.2       2 UNK         0.5000 
     61 O           7.1031  -15.0885  -45.6579 O.2       2 UNK        -0.5000 
     62 CA          5.6451  -13.2383  -45.1858 C.3       2 UNK         0.1400 
     63 CB          6.7039  -12.1275  -45.2814 C.3       2 UNK        -0.1800 
     64 N           4.3463  -12.6789  -45.5812 N.am      2 UNK        -0.5000 
     65 C           3.1495  -13.2461  -45.3748 C.2       1 UNK         0.5000 
     66 O           2.9902  -14.3664  -44.8866 O.2       1 UNK        -0.5000 
     67 C          -1.4067  -19.8837  -47.7565 C.2       11 UNK         0.5000 
     68 O          -1.1292  -20.6615  -48.6677 O.2       11 UNK        -0.5000 
     69 N          -2.6548  -19.4643  -47.4998 N.am      12 UNK        -0.5000 
     70 CA         -3.8541  -19.9069  -48.2123 C.3       12 UNK         0.1400 
     71 CB         -5.0735  -19.1050  -47.7355 C.3       12 UNK        -0.1800 
     72 C          -4.1146  -21.4141  -48.0549 C.2       12 UNK         0.5000 
     73 O          -4.4662  -22.0667  -49.0350 O.2       12 UNK        -0.5000 
     74 N          -3.9067  -21.9462  -46.8416 N.am      13 UNK        -0.5000 
     75 CA         -4.0139  -23.3753  -46.5420 C.3       13 UNK         0.1400 
     76 CB         -3.9535  -23.5956  -45.0233 C.3       13 UNK        -0.1800 
     77 C          -2.9482  -24.2196  -47.2672 C.2       13 UNK         0.5000 
     78 O          -3.2632  -25.3103  -47.7402 O.2       13 UNK        -0.5000 
     79 N          -1.7206  -23.6941  -47.3797 N.am      14 UNK        -0.5000 
     80 CA         -0.6334  -24.2958  -48.1556 C.3       14 UNK         0.1400 
     81 CB          0.6919  -23.6061  -47.7970 C.3       14 UNK        -0.1800 
     82 C          -0.8888  -24.2410  -49.6758 C.2       14 UNK         0.5000 
     83 O          -0.5303  -25.1783  -50.3886 O.2       14 UNK        -0.5000 
     84 N          -1.5203  -23.1544  -50.1379 N.am      15 UNK        -0.5000 
     85 CA         -1.9091  -22.9187  -51.5287 C.3       15 UNK         0.1400 
     86 CB         -2.0849  -21.4058  -51.7366 C.3       15 UNK        -0.1800 
     87 C          -3.1759  -23.6822  -51.9677 C.2       15 UNK         0.5000 
     88 O          -3.5209  -23.6343  -53.1515 O.2       15 UNK        -0.5000 
     89 N          -3.8687  -24.3539  -51.0371 N.am      16 UNK        -0.5000 
     90 CA         -5.0470  -25.1797  -51.3056 C.3       16 UNK         0.1400 
     91 CB         -5.6373  -25.6881  -49.9840 C.3       16 UNK        -0.1800 
     92 C          -4.7106  -26.3498  -52.2459 C.2       16 UNK         0.5000 
     93 O          -3.6592  -26.9749  -52.0913 O.2       16 UNK        -0.5000 
     94 N          -5.5857  -26.5833  -53.2334 N.am      17 UNK        -0.5000 
     95 CA         -5.4721  -27.5253  -54.3589 C.3       17 UNK         0.1400 
     96 CB         -5.3542  -28.9820  -53.8714 C.3       17 UNK        -0.1800 
     97 C          -4.3584  -27.1846  -55.3744 C.2       17 UNK         0.5000 
     98 O          -4.5796  -27.3351  -56.5758 O.2       17 UNK        -0.5000 
     99 N          -3.2017  -26.7143  -54.8905 N.am      18 UNK        -0.5000 
    100 CA        -2.0436  -26.2982  -55.6818 C.3       18 UNK         0.1400 
    101 CB        -0.8516  -26.0591  -54.7413 C.3       18 UNK        -0.1800 
    102 C         -2.3240  -25.0483  -56.5351 C.2       18 UNK         0.5000 
    103 O         -1.9938  -25.0346  -57.7216 O.2       18 UNK        -0.5000 
    104 N         -2.9440  -24.0363  -55.9167 N.am      19 UNK        -0.5000 
    105 CA        -3.3547  -22.7798  -56.5468 C.3       19 UNK         0.1400 
    106 CB        -2.3875  -21.6656  -56.1117 C.3       19 UNK        -0.1800 
    107 C         -4.8196  -22.4317  -56.2138 C.2       19 UNK         0.5000 
    108 O         -5.2559  -21.3173  -56.5023 O.2       19 UNK        -0.5000 
    109 N         -5.5494  -23.3903  -55.6206 N.am      20 UNK        -0.5000 
    110 CA        -6.9460  -23.3087  -55.1761 C.3       20 UNK         0.1400 
    111 CB        -7.8992  -23.0989  -56.3717 C.3       20 UNK        -0.1800 
    112 C         -7.1758  -22.2980  -54.0300 C.2       20 UNK         0.5000 
    113 O         -8.2658  -21.7326  -53.9215 O.2       20 UNK        -0.5000 
    114 N         -6.1561  -22.1237  -53.1750 N.am      21 UNK        -0.5000 
    115 CA        -6.1286  -21.2427  -52.0017 C.3       21 UNK         0.1400 
    116 CB        -7.1095  -21.7485  -50.9168 C.3       21 UNK        -0.1800 
    117 C         -6.3153  -19.7528  -52.3702 C.2       21 UNK         0.5000 
    118 O         -5.8492  -19.3260  -53.4286 O.2       21 UNK        -0.5000 
    119 N         -6.9675  -18.9901  -51.4852 N.am      22 UNK        -0.5000 
    120 CA        -7.2756  -17.5567  -51.6412 C.3       22 UNK         0.1400 
    121 C         -8.8054  -17.2655  -51.5970 C.2       22 UNK         0.5000 
    122 N         -9.6765  -18.2646  -51.6817 N.am      22 UNK        -0.7600 
    123 O         -9.2181  -16.1128  -51.5022 O.2       22 UNK        -0.5000 
    124 C124       -6.4859  -16.6862  -50.6255 C.3       23 UNK        -0.0398 
    125 S125       -4.6870  -16.7768  -50.8985 S.3       23 UNK        -0.2404 
    126 C126       -4.0768  -15.6262  -49.6231 C.3       23 UNK        -0.0205 
    127 H127        0.2083  -12.2517  -41.7334 H         1 UNK         0.0600 
    128 H128       -0.9576  -12.1428  -43.0605 H         1 UNK         0.0600 
    129 H129       -0.3135  -10.6750  -42.3301 H         1 UNK         0.0600 
    130 H130        0.0551  -12.7981  -44.9542 H         1 UNK         0.3000 
    131 H131        2.2548  -11.4207  -46.0738 H         1 UNK         0.0600 
    132 H132        0.9135  -14.0434  -46.9308 H         1 UNK         0.0800 
    133 H133        2.1024  -13.1824  -47.8812 H         1 UNK         0.0800 
    134 H134       -0.6318  -11.9072  -50.1527 H         1 UNK         0.0800 
    135 H135        0.9740  -12.5670  -49.9871 H         1 UNK         0.0800 
    136 H136       -2.6494  -13.3038  -49.5217 H         1 UNK         0.1150 
    137 H137       -2.1404  -17.5504  -49.8055 H         1 UNK         0.1150 
    138 H138        1.2869  -14.9814  -49.7968 H         1 UNK         0.1150 
    139 H139       -0.0057  -18.5042  -50.1778 H         1 UNK         0.0800 
    140 H140        1.2835  -17.4702  -50.7354 H         1 UNK         0.0800 
    141 H141       -0.6517  -17.3208  -47.3821 H         1 UNK         0.0800 
    142 H142        0.6168  -17.5136  -46.2323 H         1 UNK         0.0800 
    143 H143        0.5513  -20.0861  -46.9205 H         1 UNK         0.0600 
    144 H144       -0.7700  -18.6664  -44.8633 H         1 UNK         0.3000 
    145 H145       -2.1630  -21.4355  -43.1406 H         1 UNK         0.0600 
    146 H146       -0.8000  -20.3930  -41.3166 H         1 UNK         0.0600 
    147 H147        0.1851  -21.3949  -42.3723 H         1 UNK         0.0600 
    148 H148        0.2467  -19.6458  -42.5272 H         1 UNK         0.0600 
    149 H149       -1.9955  -18.5541  -42.7775 H         1 UNK         0.3000 
    150 H150       -5.1051  -17.8317  -44.3863 H         1 UNK         0.0600 
    151 H151       -5.7046  -18.5593  -42.0704 H         1 UNK         0.0600 
    152 H152       -5.5622  -16.8120  -42.1750 H         1 UNK         0.0600 
    153 H153       -4.2718  -17.7595  -41.4347 H         1 UNK         0.0600 
    154 H154       -3.2004  -16.1882  -43.0248 H         1 UNK         0.3000 
    155 H155       -1.0054  -15.5995  -45.7336 H         1 UNK         0.0600 
    156 H156       -3.2124  -13.7073  -44.7692 H         1 UNK         0.0600 
    157 H157       -1.7193  -13.2310  -45.5764 H         1 UNK         0.0600 
    158 H158       -2.9187  -14.1695  -46.4417 H         1 UNK         0.0600 
    159 H159       -1.2492  -14.2142  -43.2963 H         1 UNK         0.3000 
    160 H160        0.8786  -14.6952  -41.9324 H         1 UNK         0.0600 
    161 H161       -1.5396  -15.9867  -40.5133 H         1 UNK         0.0600 
    162 H162       -1.4972  -14.3394  -41.1308 H         1 UNK         0.0600 
    163 H163       -0.4691  -14.7900  -39.7927 H         1 UNK         0.0600 
    164 H164        0.9084  -17.5240  -41.5775 H         1 UNK         0.3000 
    165 H165        2.9539  -17.5209  -38.5958 H         1 UNK         0.0600 
    166 H166        2.0481  -19.7429  -38.8954 H         1 UNK         0.0600 
    167 H167        0.6980  -18.6204  -38.9156 H         1 UNK         0.0600 
    168 H168        1.2892  -19.3182  -40.4207 H         1 UNK         0.0600 
    169 H169        3.4850  -18.7767  -41.2141 H         1 UNK         0.3000 
    170 H170        6.7177  -17.4550  -41.5110 H         1 UNK         0.0600 
    171 H171        7.1898  -19.2483  -39.8419 H         1 UNK         0.0600 
    172 H172        6.0237  -20.3075  -40.6252 H         1 UNK         0.0600 
    173 H173        7.4875  -19.8136  -41.4775 H         1 UNK         0.0600 
    174 H174        5.3249  -19.5661  -42.8706 H         1 UNK         0.3000 
    175 H175        4.8322  -19.1508  -45.0785 H         1 UNK         0.0600 
    176 H176        2.2483  -17.6505  -44.3754 H         1 UNK         0.0600 
    177 H177        2.3957  -19.0100  -45.4924 H         1 UNK         0.0600 
    178 H178        2.6727  -19.2513  -43.7781 H         1 UNK         0.0600 
    179 H179        4.1245  -16.2989  -45.5960 H         1 UNK         0.3000 
    180 H180        6.4813  -16.1421  -48.1508 H         1 UNK         0.0600 
    181 H181        3.4923  -15.8112  -48.7251 H         1 UNK         0.0600 
    182 H182        4.5409  -16.9316  -49.5876 H         1 UNK         0.0600 
    183 H183        4.8325  -15.2023  -49.6914 H         1 UNK         0.0600 
    184 H184        4.5066  -14.2766  -47.2269 H         1 UNK         0.3000 
    185 H185        5.5701  -13.5498  -44.1417 H         1 UNK         0.0600 
    186 H186        7.6794  -12.4837  -44.9475 H         1 UNK         0.0600 
    187 H187        6.8184  -11.7689  -46.3050 H         1 UNK         0.0600 
    188 H188        6.4410  -11.2761  -44.6531 H         1 UNK         0.0600 
    189 H189        4.3789  -11.7594  -45.9983 H         1 UNK         0.3000 
    190 H190       -2.7966  -18.7596  -46.7792 H         1 UNK         0.3000 
    191 H191       -3.7061  -19.6962  -49.2729 H         1 UNK         0.0600 
    192 H192       -5.2856  -19.2790  -46.6806 H         1 UNK         0.0600 
    193 H193       -5.9652  -19.3781  -48.3005 H         1 UNK         0.0600 
    194 H194       -4.9202  -18.0365  -47.8687 H         1 UNK         0.0600 
    195 H195       -3.6717  -21.3314  -46.0710 H         1 UNK         0.3000 
    196 H196       -4.9925  -23.7121  -46.8908 H         1 UNK         0.0600 
    197 H197       -4.0993  -24.6481  -44.7777 H         1 UNK         0.0600 
    198 H198       -4.7325  -23.0305  -44.5110 H         1 UNK         0.0600 
    199 H199       -2.9927  -23.2939  -44.6078 H         1 UNK         0.0600 
    200 H200       -1.5157  -22.8226  -46.9008 H         1 UNK         0.3000 
    201 H201       -0.5547  -25.3469  -47.8701 H         1 UNK         0.0600 
    202 H202        0.9031  -23.6890  -46.7307 H         1 UNK         0.0600 
    203 H203        0.6791  -22.5464  -48.0524 H         1 UNK         0.0600 
    204 H204        1.5260  -24.0622  -48.3314 H         1 UNK         0.0600 
    205 H205       -1.7089  -22.3984  -49.4873 H         1 UNK         0.3000 
    206 H206       -1.0983  -23.2552  -52.1777 H         1 UNK         0.0600 
    207 H207       -1.1494  -20.8746  -51.5600 H         1 UNK         0.0600 
    208 H208       -2.4024  -21.1732  -52.7524 H         1 UNK         0.0600 
    209 H209       -2.8311  -20.9928  -51.0597 H         1 UNK         0.0600 
    210 H210       -3.5364  -24.3332  -50.0833 H         1 UNK         0.3000 
    211 H211       -5.7899  -24.5446  -51.7889 H         1 UNK         0.0600 
    212 H212       -4.9605  -26.3816  -49.4841 H         1 UNK         0.0600 
    213 H213       -6.5771  -26.2144  -50.1541 H         1 UNK         0.0600 
    214 H214       -5.8427  -24.8644  -49.2995 H         1 UNK         0.0600 
    215 H215       -6.4243  -26.0213  -53.2497 H         1 UNK         0.3000 
    216 H216       -6.4156  -27.4432  -54.9010 H         1 UNK         0.0600 
    217 H217       -5.4006  -29.6760  -54.7114 H         1 UNK         0.0600 
    218 H218       -6.1683  -29.2380  -53.1933 H         1 UNK         0.0600 
    219 H219       -4.4137  -29.1667  -53.3520 H         1 UNK         0.0600 
    220 H220       -3.1109  -26.6663  -53.8795 H         1 UNK         0.3000 
    221 H221       -1.7867  -27.1154  -56.3589 H         1 UNK         0.0600 
    222 H222       -1.0654  -25.2817  -54.0066 H         1 UNK         0.0600 
    223 H223       -0.5912  -26.9675  -54.1979 H         1 UNK         0.0600 
    224 H224        0.0324  -25.7499  -55.3005 H         1 UNK         0.0600 
    225 H225       -3.1320  -24.1035  -54.9186 H         1 UNK         0.3000 
    226 H226       -3.3068  -22.8701  -57.6336 H         1 UNK         0.0600 
    227 H227       -1.3591  -21.9111  -56.3768 H         1 UNK         0.0600 
    228 H228       -2.6297  -20.7192  -56.5965 H         1 UNK         0.0600 
    229 H229       -2.4267  -21.5043  -55.0353 H         1 UNK         0.0600 
    230 H230       -5.0842  -24.2687  -55.4476 H         1 UNK         0.3000 
    231 H231       -7.1787  -24.2863  -54.7527 H         1 UNK         0.0600 
    232 H232       -8.9402  -23.2085  -56.0658 H         1 UNK         0.0600 
    233 H233       -7.7150  -23.8323  -57.1567 H         1 UNK         0.0600 
    234 H234       -7.7919  -22.1054  -56.8076 H         1 UNK         0.0600 
    235 H235       -5.2842  -22.6001  -53.3776 H         1 UNK         0.3000 
    236 H236       -5.1226  -21.3219  -51.5922 H         1 UNK         0.0600 
    237 H237       -8.1510  -21.6351  -51.2186 H         1 UNK         0.0600 
    238 H238       -6.9421  -22.8019  -50.6968 H         1 UNK         0.0600 
    239 H239       -6.9743  -21.2147  -49.9759 H         1 UNK         0.0600 
    240 H240       -7.3247  -19.4214  -50.6456 H         1 UNK         0.3000 
    241 H241       -6.9794  -17.2326  -52.6403 H         1 UNK         0.0600 
    242 H242      -10.6637  -18.0614  -51.6587 H         1 UNK         0.3800 
    243 H243       -9.3653  -19.2125  -51.8225 H         1 UNK         0.3800 
    244 H244       -6.7746  -15.6369  -50.7073 H         1 UNK         0.0800 
    245 H245       -6.7096  -16.9912  -49.6022 H         1 UNK         0.0800 
    246 H246       -4.5765  -14.6652  -49.7542 H         1 UNK         0.0800 
    247 H247       -4.3499  -15.9862  -48.6316 H         1 UNK         0.0800 
@<TRIPOS>BOND
     1    1    2 1    
     2    1  127 1    
     3    1  128 1    
     4    1  129 1    
     5    2    3 2    
     6    2    4 am   BACKBONE|DICT|INTERRES
     7    4    5 1    
     8    4  130 1    
     9    5    6 1    
    10    5   65 1    
    11    5  131 1    
    12    6    7 1    
    13    6  132 1    
    14    6  133 1    
    15    7    8 1    
    16    8    9 1    
    17    8  134 1    
    18    8  135 1    
    19    9   10 ar   
    20    9   14 ar   
    21   10   11 ar   
    22   10  136 1    
    23   11   12 ar   
    24   11  126 1    
    25   12   13 ar   
    26   12  137 1    
    27   13   14 ar   
    28   13   15 1    
    29   14  138 1    
    30   15   16 1    
    31   15  139 1    
    32   15  140 1    
    33   16   17 1    
    34   17   18 1    
    35   17  141 1    
    36   17  142 1    
    37   18   19 1    
    38   18   67 1    
    39   18  143 1    
    40   19   20 am   BACKBONE|DICT|INTERRES
    41   19  144 1    
    42   20   21 2    
    43   20   22 1    
    44   22   23 1    
    45   22   24 1    
    46   22  145 1    
    47   23  146 1    
    48   23  147 1    
    49   23  148 1    
    50   24   25 am   BACKBONE|DICT|INTERRES
    51   24  149 1    
    52   25   26 2    
    53   25   27 1    
    54   27   28 1    
    55   27   29 1    
    56   27  150 1    
    57   28  151 1    
    58   28  152 1    
    59   28  153 1    
    60   29   30 am   BACKBONE|DICT|INTERRES
    61   29  154 1    
    62   30   31 2    
    63   30   32 1    
    64   32   33 1    
    65   32   34 1    
    66   32  155 1    
    67   33  156 1    
    68   33  157 1    
    69   33  158 1    
    70   34   35 am   BACKBONE|DICT|INTERRES
    71   34  159 1    
    72   35   36 2    
    73   35   37 1    
    74   37   38 1    
    75   37   39 1    
    76   37  160 1    
    77   38  161 1    
    78   38  162 1    
    79   38  163 1    
    80   39   40 am   BACKBONE|DICT|INTERRES
    81   39  164 1    
    82   40   41 2    
    83   40   42 1    
    84   42   43 1    
    85   42   44 1    
    86   42  165 1    
    87   43  166 1    
    88   43  167 1    
    89   43  168 1    
    90   44   45 am   BACKBONE|DICT|INTERRES
    91   44  169 1    
    92   45   46 2    
    93   45   47 1    
    94   47   48 1    
    95   47   49 1    
    96   47  170 1    
    97   48  171 1    
    98   48  172 1    
    99   48  173 1    
   100   49   50 am   BACKBONE|DICT|INTERRES
   101   49  174 1    
   102   50   51 2    
   103   50   52 1    
   104   52   53 1    
   105   52   54 1    
   106   52  175 1    
   107   53  176 1    
   108   53  177 1    
   109   53  178 1    
   110   54   55 am   BACKBONE|DICT|INTERRES
   111   54  179 1    
   112   55   56 2    
   113   55   57 1    
   114   57   58 1    
   115   57   59 1    
   116   57  180 1    
   117   58  181 1    
   118   58  182 1    
   119   58  183 1    
   120   59   60 am   BACKBONE|DICT|INTERRES
   121   59  184 1    
   122   60   61 2    
   123   60   62 1    
   124   62   63 1    
   125   62   64 1    
   126   62  185 1    
   127   63  186 1    
   128   63  187 1    
   129   63  188 1    
   130   64   65 am   BACKBONE|DICT|INTERRES
   131   64  189 1    
   132   65   66 2    
   133   67   68 2    
   134   67   69 am   BACKBONE|DICT|INTERRES
   135   69   70 1    
   136   69  190 1    
   137   70   71 1    
   138   70   72 1    
   139   70  191 1    
   140   71  192 1    
   141   71  193 1    
   142   71  194 1    
   143   72   73 2    
   144   72   74 am   BACKBONE|DICT|INTERRES
   145   74   75 1    
   146   74  195 1    
   147   75   76 1    
   148   75   77 1    
   149   75  196 1    
   150   76  197 1    
   151   76  198 1    
   152   76  199 1    
   153   77   78 2    
   154   77   79 am   BACKBONE|DICT|INTERRES
   155   79   80 1    
   156   79  200 1    
   157   80   81 1    
   158   80   82 1    
   159   80  201 1    
   160   81  202 1    
   161   81  203 1    
   162   81  204 1    
   163   82   83 2    
   164   82   84 am   BACKBONE|DICT|INTERRES
   165   84   85 1    
   166   84  205 1    
   167   85   86 1    
   168   85   87 1    
   169   85  206 1    
   170   86  207 1    
   171   86  208 1    
   172   86  209 1    
   173   87   88 2    
   174   87   89 am   BACKBONE|DICT|INTERRES
   175   89   90 1    
   176   89  210 1    
   177   90   91 1    
   178   90   92 1    
   179   90  211 1    
   180   91  212 1    
   181   91  213 1    
   182   91  214 1    
   183   92   93 2    
   184   92   94 am   BACKBONE|DICT|INTERRES
   185   94   95 1    
   186   94  215 1    
   187   95   96 1    
   188   95   97 1    
   189   95  216 1    
   190   96  217 1    
   191   96  218 1    
   192   96  219 1    
   193   97   98 2    
   194   97   99 am   BACKBONE|DICT|INTERRES
   195   99  100 1    
   196   99  220 1    
   197  100  101 1    
   198  100  102 1    
   199  100  221 1    
   200  101  222 1    
   201  101  223 1    
   202  101  224 1    
   203  102  103 2    
   204  102  104 am   BACKBONE|DICT|INTERRES
   205  104  105 1    
   206  104  225 1    
   207  105  106 1    
   208  105  107 1    
   209  105  226 1    
   210  106  227 1    
   211  106  228 1    
   212  106  229 1    
   213  107  108 2    
   214  107  109 am   BACKBONE|DICT|INTERRES
   215  109  110 1    
   216  109  230 1    
   217  110  111 1    
   218  110  112 1    
   219  110  231 1    
   220  111  232 1    
   221  111  233 1    
   222  111  234 1    
   223  112  113 2    
   224  112  114 am   BACKBONE|DICT|INTERRES
   225  114  115 1    
   226  114  235 1    
   227  115  116 1    
   228  115  117 1    
   229  115  236 1    
   230  116  237 1    
   231  116  238 1    
   232  116  239 1    
   233  117  118 2    
   234  117  119 am   BACKBONE|DICT|INTERRES
   235  119  120 1    
   236  119  240 1    
   237  120  121 1    
   238  120  124 1    
   239  120  241 1    
   240  121  122 am   BACKBONE|DICT|INTERRES
   241  121  123 2    
   242  122  242 1    
   243  122  243 1    
   244  124  125 1    
   245  124  244 1    
   246  124  245 1    
   247  125  126 1    
   248  126  246 1    
   249  126  247 1    
@<TRIPOS>SUBSTRUCTURE
     1 UNK         1 GROUP             0       ****    0 ROOT    
