@<TRIPOS>MOLECULE
3R540
247   249    1
SMALL
USER_CHARGES


@<TRIPOS>ATOM
      1 CA         -2.3340  -11.3922  -47.6594 C.3       0 UNK        -0.1800 
      2 C          -1.4075  -12.5639  -47.9494 C.2       0 UNK         0.5000 
      3 O          -1.0577  -13.2968  -47.0263 O.2       0 UNK        -0.5000 
      4 N          -1.0187  -12.7282  -49.2234 N.am      1 UNK        -0.5000 
      5 CA         -0.1265  -13.7608  -49.7752 C.3       1 UNK         0.1400 
      6 C6         -0.8698  -15.0656  -50.1964 C.3       23 UNK        -0.0398 
      7 S7         -1.5772  -16.0926  -48.8545 S.3       23 UNK        -0.2404 
      8 C8         -3.3421  -15.6529  -48.9734 C.3       23 UNK        -0.0205 
      9 C9         -4.2296  -16.6260  -48.2107 C.ar      23 UNK        -0.0193 
     10 C10        -5.1055  -17.4711  -48.8991 C.ar      23 UNK        -0.1150 
     11 C11        -5.9368  -18.3524  -48.2028 C.ar      23 UNK        -0.0193 
     12 C12        -5.8903  -18.3854  -46.8072 C.ar      23 UNK        -0.1150 
     13 C13        -5.0257  -17.5418  -46.1066 C.ar      23 UNK        -0.0193 
     14 C14        -4.2041  -16.6596  -46.8139 C.ar      23 UNK        -0.1150 
     15 C15        -4.9985  -17.5650  -44.5869 C.3       23 UNK        -0.0205 
     16 S16        -3.5989  -18.5313  -43.9447 S.3       23 UNK        -0.2404 
     17 C17        -4.0641  -20.2463  -44.3692 C.3       23 UNK        -0.0398 
     18 CA         -3.2506  -20.8319  -45.5520 C.3       11 UNK         0.1400 
     19 N          -1.8051  -20.6300  -45.3979 N.am      11 UNK        -0.5000 
     20 C          -0.8732  -20.9528  -46.3039 C.2       10 UNK         0.5000 
     21 O          -1.1188  -21.4914  -47.3823 O.2       10 UNK        -0.5000 
     22 CA          0.5840  -20.6539  -45.9277 C.3       10 UNK         0.1400 
     23 CB          0.9126  -19.1814  -46.1923 C.3       10 UNK        -0.1800 
     24 N           0.8599  -20.9900  -44.5307 N.am      10 UNK        -0.5000 
     25 C           1.0242  -22.2488  -44.0963 C.2       9 UNK         0.5000 
     26 O           1.0438  -23.2290  -44.8392 O.2       9 UNK        -0.5000 
     27 CA          1.1518  -22.4610  -42.5764 C.3       9 UNK         0.1400 
     28 CB          2.6198  -22.3534  -42.1392 C.3       9 UNK        -0.1800 
     29 N           0.3408  -21.5298  -41.7919 N.am      9 UNK        -0.5000 
     30 C          -0.9967  -21.4488  -41.8440 C.2       8 UNK         0.5000 
     31 O          -1.6961  -22.1813  -42.5441 O.2       8 UNK        -0.5000 
     32 CA         -1.6764  -20.3536  -40.9996 C.3       8 UNK         0.1400 
     33 CB         -2.2766  -20.9620  -39.7237 C.3       8 UNK        -0.1800 
     34 N          -0.8157  -19.2266  -40.6287 N.am      8 UNK        -0.5000 
     35 C          -0.1690  -18.4126  -41.4747 C.2       7 UNK         0.5000 
     36 O          -0.1635  -18.5693  -42.6993 O.2       7 UNK        -0.5000 
     37 CA          0.6037  -17.2281  -40.8503 C.3       7 UNK         0.1400 
     38 CB          0.8350  -17.3475  -39.3261 C.3       7 UNK        -0.1800 
     39 N           1.8671  -16.9717  -41.5479 N.am      7 UNK        -0.5000 
     40 C           2.8910  -17.8269  -41.6813 C.2       6 UNK         0.5000 
     41 O           2.9327  -18.9305  -41.1353 O.2       6 UNK        -0.5000 
     42 CA          4.0551  -17.4121  -42.6000 C.3       6 UNK         0.1400 
     43 CB          4.0033  -18.2266  -43.9012 C.3       6 UNK        -0.1800 
     44 N           4.0798  -15.9889  -42.9485 N.am      6 UNK        -0.5000 
     45 C           4.5990  -15.0240  -42.1768 C.2       5 UNK         0.5000 
     46 O           4.9994  -15.2151  -41.0282 O.2       5 UNK        -0.5000 
     47 CA          4.7120  -13.6170  -42.7915 C.3       5 UNK         0.1400 
     48 CB          5.9162  -13.5431  -43.7439 C.3       5 UNK        -0.1800 
     49 N           3.5014  -13.2508  -43.5253 N.am      5 UNK        -0.5000 
     50 C           2.6887  -12.2307  -43.2113 C.2       4 UNK         0.5000 
     51 O           2.9188  -11.4258  -42.3077 O.2       4 UNK        -0.5000 
     52 CA          1.3822  -12.0847  -44.0257 C.3       4 UNK         0.1400 
     53 CB          1.5546  -11.0439  -45.1423 C.3       4 UNK        -0.1800 
     54 N           0.9092  -13.3338  -44.6229 N.am      4 UNK        -0.5000 
     55 C           0.6237  -14.4576  -43.9533 C.2       3 UNK         0.5000 
     56 O           0.6202  -14.5354  -42.7261 O.2       3 UNK        -0.5000 
     57 CA          0.3832  -15.7276  -44.7875 C.3       3 UNK         0.1400 
     58 CB         -1.1169  -16.0223  -44.8947 C.3       3 UNK        -0.1800 
     59 N           0.9737  -15.6803  -46.1292 N.am      3 UNK        -0.5000 
     60 C           2.2846  -15.5682  -46.3991 C.2       2 UNK         0.5000 
     61 O           3.1463  -15.4493  -45.5274 O.2       2 UNK        -0.5000 
     62 CA          2.7109  -15.5680  -47.8791 C.3       2 UNK         0.1400 
     63 CB          3.2466  -16.9479  -48.2790 C.3       2 UNK        -0.1800 
     64 N           1.6125  -15.2070  -48.7743 N.am      2 UNK        -0.5000 
     65 C           1.1728  -13.9553  -48.9532 C.2       1 UNK         0.5000 
     66 O           1.7557  -12.9676  -48.4983 O.2       1 UNK        -0.5000 
     67 C          -3.5914  -22.3234  -45.7542 C.2       11 UNK         0.5000 
     68 O          -4.3283  -22.6702  -46.6764 O.2       11 UNK        -0.5000 
     69 N          -2.9880  -23.1834  -44.9211 N.am      12 UNK        -0.5000 
     70 CA         -3.0955  -24.6422  -44.9865 C.3       12 UNK         0.1400 
     71 CB         -2.4775  -25.2356  -43.7112 C.3       12 UNK        -0.1800 
     72 C          -2.4372  -25.2615  -46.2368 C.2       12 UNK         0.5000 
     73 O          -2.7905  -26.3794  -46.6125 O.2       12 UNK        -0.5000 
     74 N          -1.5044  -24.5306  -46.8589 N.am      13 UNK        -0.5000 
     75 CA         -0.7605  -24.9285  -48.0524 C.3       13 UNK         0.1400 
     76 CB          0.7211  -24.5650  -47.8498 C.3       13 UNK        -0.1800 
     77 C          -1.3335  -24.2968  -49.3369 C.2       13 UNK         0.5000 
     78 O          -0.6051  -24.1920  -50.3239 O.2       13 UNK        -0.5000 
     79 N          -2.6099  -23.8802  -49.3127 N.am      14 UNK        -0.5000 
     80 CA         -3.3558  -23.2680  -50.4199 C.3       14 UNK         0.1400 
     81 CB         -3.5758  -24.2852  -51.5602 C.3       14 UNK        -0.1800 
     82 C          -2.6911  -21.9650  -50.9031 C.2       14 UNK         0.5000 
     83 O          -2.2385  -21.8826  -52.0470 O.2       14 UNK        -0.5000 
     84 N          -2.5850  -20.9999  -49.9778 N.am      15 UNK        -0.5000 
     85 CA         -1.9528  -19.6868  -50.1454 C.3       15 UNK         0.1400 
     86 CB         -2.7176  -18.8624  -51.2021 C.3       15 UNK        -0.1800 
     87 C          -0.4415  -19.7943  -50.4491 C.2       15 UNK         0.5000 
     88 O           0.0912  -18.9967  -51.2201 O.2       15 UNK        -0.5000 
     89 N           0.2119  -20.8061  -49.8566 N.am      16 UNK        -0.5000 
     90 CA          1.5817  -21.2603  -50.1236 C.3       16 UNK         0.1400 
     91 CB          2.6155  -20.2397  -49.6117 C.3       16 UNK        -0.1800 
     92 C           1.7831  -21.6463  -51.6046 C.2       16 UNK         0.5000 
     93 O           2.6958  -21.1495  -52.2667 O.2       16 UNK        -0.5000 
     94 N           0.8915  -22.5205  -52.0889 N.am      17 UNK        -0.5000 
     95 CA          0.7915  -23.0635  -53.4457 C.3       17 UNK         0.1400 
     96 CB          2.0513  -23.8760  -53.8106 C.3       17 UNK        -0.1800 
     97 C           0.4158  -22.0348  -54.5345 C.2       17 UNK         0.5000 
     98 O           0.5155  -22.3543  -55.7214 O.2       17 UNK        -0.5000 
     99 N          -0.0545  -20.8414  -54.1457 N.am      18 UNK        -0.5000 
    100 CA        -0.5794  -19.8177  -55.0507 C.3       18 UNK         0.1400 
    101 CB        -0.3787  -18.4236  -54.4320 C.3       18 UNK        -0.1800 
    102 C         -2.0499  -20.1197  -55.4017 C.2       18 UNK         0.5000 
    103 O         -2.9552  -19.3842  -55.0050 O.2       18 UNK        -0.5000 
    104 N         -2.2487  -21.2247  -56.1316 N.am      19 UNK        -0.5000 
    105 CA        -3.5310  -21.7340  -56.6183 C.3       19 UNK         0.1400 
    106 CB        -3.2491  -23.0280  -57.4019 C.3       19 UNK        -0.1800 
    107 C         -4.2879  -20.7132  -57.5033 C.2       19 UNK         0.5000 
    108 O         -3.6442  -19.8923  -58.1591 O.2       19 UNK        -0.5000 
    109 N         -5.6262  -20.7478  -57.5749 N.am      20 UNK        -0.5000 
    110 CA        -6.5451  -21.7189  -56.9703 C.3       20 UNK         0.1400 
    111 CB        -7.7596  -21.8647  -57.9025 C.3       20 UNK        -0.1800 
    112 C         -7.0048  -21.3561  -55.5439 C.2       20 UNK         0.5000 
    113 O         -7.7750  -22.1251  -54.9655 O.2       20 UNK        -0.5000 
    114 N         -6.5496  -20.2119  -55.0076 N.am      21 UNK        -0.5000 
    115 CA        -6.9022  -19.6723  -53.6881 C.3       21 UNK         0.1400 
    116 CB        -6.0785  -18.4021  -53.4187 C.3       21 UNK        -0.1800 
    117 C         -6.7194  -20.7000  -52.5540 C.2       21 UNK         0.5000 
    118 O         -5.5873  -21.0831  -52.2629 O.2       21 UNK        -0.5000 
    119 N         -7.8511  -21.1537  -51.9954 N.am      22 UNK        -0.5000 
    120 CA        -7.9929  -22.2520  -51.0202 C.3       22 UNK         0.1400 
    121 C         -7.2879  -23.5974  -51.3805 C.2       22 UNK         0.5000 
    122 N         -7.1031  -23.9080  -52.6588 N.am      22 UNK        -0.7600 
    123 O         -6.9501  -24.3917  -50.5073 O.2       22 UNK        -0.5000 
    124 C124       -7.8706  -21.8084  -49.5325 C.3       23 UNK        -0.0398 
    125 S125       -6.3285  -20.9607  -49.0414 S.3       23 UNK        -0.2404 
    126 C126       -6.9183  -19.2426  -48.9444 C.3       23 UNK        -0.0205 
    127 H127       -1.8709  -10.7195  -46.9375 H         1 UNK         0.0600 
    128 H128       -3.2716  -11.7538  -47.2371 H         1 UNK         0.0600 
    129 H129       -2.5633  -10.8213  -48.5594 H         1 UNK         0.0600 
    130 H130       -1.3388  -12.0524  -49.9021 H         1 UNK         0.3000 
    131 H131        0.2323  -13.3208  -50.7069 H         1 UNK         0.0600 
    132 H132       -0.2028  -15.7024  -50.7801 H         1 UNK         0.0800 
    133 H133       -1.6650  -14.8031  -50.8946 H         1 UNK         0.0800 
    134 H134       -3.4904  -14.6458  -48.5825 H         1 UNK         0.0800 
    135 H135       -3.6404  -15.6248  -50.0222 H         1 UNK         0.0800 
    136 H136       -5.1555  -17.4302  -49.9772 H         1 UNK         0.1150 
    137 H137       -6.5372  -19.0634  -46.2685 H         1 UNK         0.1150 
    138 H138       -3.5451  -15.9945  -46.2781 H         1 UNK         0.1150 
    139 H139       -4.9172  -16.5435  -44.2129 H         1 UNK         0.0800 
    140 H140       -5.9332  -17.9605  -44.1864 H         1 UNK         0.0800 
    141 H141       -5.1322  -20.2907  -44.5866 H         1 UNK         0.0800 
    142 H142       -3.9208  -20.8478  -43.4704 H         1 UNK         0.0800 
    143 H143       -3.5494  -20.3025  -46.4595 H         1 UNK         0.0600 
    144 H144       -1.5127  -20.1801  -44.5420 H         1 UNK         0.3000 
    145 H145        1.2230  -21.2593  -46.5742 H         1 UNK         0.0600 
    146 H146        1.9872  -19.0118  -46.1579 H         1 UNK         0.0600 
    147 H147        0.5666  -18.8681  -47.1786 H         1 UNK         0.0600 
    148 H148        0.4398  -18.5341  -45.4566 H         1 UNK         0.0600 
    149 H149        0.8060  -20.2384  -43.8534 H         1 UNK         0.3000 
    150 H150        0.8019  -23.4714  -42.3542 H         1 UNK         0.0600 
    151 H151        3.2385  -23.0779  -42.6703 H         1 UNK         0.0600 
    152 H152        2.7314  -22.5504  -41.0729 H         1 UNK         0.0600 
    153 H153        3.0283  -21.3632  -42.3428 H         1 UNK         0.0600 
    154 H154        0.8398  -20.8696  -41.2123 H         1 UNK         0.3000 
    155 H155       -2.4946  -19.9511  -41.5971 H         1 UNK         0.0600 
    156 H156       -2.9499  -21.7867  -39.9622 H         1 UNK         0.0600 
    157 H157       -2.8556  -20.2241  -39.1680 H         1 UNK         0.0600 
    158 H158       -1.5021  -21.3515  -39.0617 H         1 UNK         0.0600 
    159 H159       -0.7435  -19.0329  -39.6405 H         1 UNK         0.3000 
    160 H160       -0.0235  -16.3518  -41.0120 H         1 UNK         0.0600 
    161 H161        1.3729  -18.2583  -39.0608 H         1 UNK         0.0600 
    162 H162       -0.1084  -17.3449  -38.7792 H         1 UNK         0.0600 
    163 H163        1.4158  -16.5029  -38.9550 H         1 UNK         0.0600 
    164 H164        1.9061  -16.0895  -42.0428 H         1 UNK         0.3000 
    165 H165        4.9832  -17.6628  -42.0820 H         1 UNK         0.0600 
    166 H166        4.8480  -17.9944  -44.5500 H         1 UNK         0.0600 
    167 H167        3.0885  -18.0180  -44.4536 H         1 UNK         0.0600 
    168 H168        4.0299  -19.2985  -43.7009 H         1 UNK         0.0600 
    169 H169        3.7835  -15.7617  -43.8956 H         1 UNK         0.3000 
    170 H170        4.8905  -12.9199  -41.9702 H         1 UNK         0.0600 
    171 H171        6.8380  -13.8229  -43.2323 H         1 UNK         0.0600 
    172 H172        5.7971  -14.2107  -44.5985 H         1 UNK         0.0600 
    173 H173        6.0510  -12.5315  -44.1270 H         1 UNK         0.0600 
    174 H174        3.2323  -13.8680  -44.2835 H         1 UNK         0.3000 
    175 H175        0.6076  -11.7330  -43.3416 H         1 UNK         0.0600 
    176 H176        2.2951  -11.3636  -45.8769 H         1 UNK         0.0600 
    177 H177        0.6155  -10.8713  -45.6687 H         1 UNK         0.0600 
    178 H178        1.8823  -10.0851  -44.7383 H         1 UNK         0.0600 
    179 H179        0.8154  -13.3520  -45.6309 H         1 UNK         0.3000 
    180 H180        0.8562  -16.5541  -44.2555 H         1 UNK         0.0600 
    181 H181       -1.6530  -15.1898  -45.3479 H         1 UNK         0.0600 
    182 H182       -1.5488  -16.1898  -43.9074 H         1 UNK         0.0600 
    183 H183       -1.3118  -16.9146  -45.4895 H         1 UNK         0.0600 
    184 H184        0.3210  -15.6986  -46.9005 H         1 UNK         0.3000 
    185 H185        3.5200  -14.8429  -47.9900 H         1 UNK         0.0600 
    186 H186        2.4629  -17.7017  -48.2297 H         1 UNK         0.0600 
    187 H187        3.6409  -16.9396  -49.2952 H         1 UNK         0.0600 
    188 H188        4.0541  -17.2657  -47.6179 H         1 UNK         0.0600 
    189 H189        1.0863  -15.9709  -49.1743 H         1 UNK         0.3000 
    190 H190       -2.4113  -22.8107  -44.1695 H         1 UNK         0.3000 
    191 H191       -4.1556  -24.9024  -45.0100 H         1 UNK         0.0600 
    192 H192       -1.4193  -24.9841  -43.6258 H         1 UNK         0.0600 
    193 H193       -2.9817  -24.8641  -42.8188 H         1 UNK         0.0600 
    194 H194       -2.5604  -26.3232  -43.7029 H         1 UNK         0.0600 
    195 H195       -1.3064  -23.6028  -46.5085 H         1 UNK         0.3000 
    196 H196       -0.8191  -26.0104  -48.1848 H         1 UNK         0.0600 
    197 H197        1.1272  -25.0596  -46.9674 H         1 UNK         0.0600 
    198 H198        0.8554  -23.4916  -47.7190 H         1 UNK         0.0600 
    199 H199        1.3301  -24.8758  -48.6994 H         1 UNK         0.0600 
    200 H200       -3.1116  -23.9534  -48.4376 H         1 UNK         0.3000 
    201 H201       -4.3371  -22.9966  -50.0291 H         1 UNK         0.0600 
    202 H202       -4.1780  -23.8435  -52.3550 H         1 UNK         0.0600 
    203 H203       -4.1062  -25.1675  -51.2026 H         1 UNK         0.0600 
    204 H204       -2.6376  -24.6126  -52.0085 H         1 UNK         0.0600 
    205 H205       -2.9161  -21.2043  -49.0447 H         1 UNK         0.3000 
    206 H206       -2.0457  -19.1756  -49.1862 H         1 UNK         0.0600 
    207 H207       -3.7879  -18.8712  -51.0056 H         1 UNK         0.0600 
    208 H208       -2.3868  -17.8242  -51.2143 H         1 UNK         0.0600 
    209 H209       -2.5785  -19.2642  -52.2050 H         1 UNK         0.0600 
    210 H210       -0.3222  -21.3668  -49.2001 H         1 UNK         0.3000 
    211 H211        1.7202  -22.1776  -49.5510 H         1 UNK         0.0600 
    212 H212        2.4889  -20.0573  -48.5458 H         1 UNK         0.0600 
    213 H213        3.6318  -20.6080  -49.7554 H         1 UNK         0.0600 
    214 H214        2.5376  -19.2863  -50.1344 H         1 UNK         0.0600 
    215 H215        0.1904  -22.8855  -51.4473 H         1 UNK         0.3000 
    216 H216       -0.0450  -23.7629  -53.4092 H         1 UNK         0.0600 
    217 H217        1.9090  -24.4221  -54.7437 H         1 UNK         0.0600 
    218 H218        2.9242  -23.2356  -53.9392 H         1 UNK         0.0600 
    219 H219        2.2831  -24.6111  -53.0398 H         1 UNK         0.0600 
    220 H220       -0.1721  -20.6719  -53.1554 H         1 UNK         0.3000 
    221 H221       -0.0096  -19.8363  -55.9821 H         1 UNK         0.0600 
    222 H222       -0.9649  -18.2898  -53.5248 H         1 UNK         0.0600 
    223 H223        0.6677  -18.2497  -54.1810 H         1 UNK         0.0600 
    224 H224       -0.6816  -17.6434  -55.1310 H         1 UNK         0.0600 
    225 H225       -1.4279  -21.7627  -56.3823 H         1 UNK         0.3000 
    226 H226       -4.1295  -21.9673  -55.7369 H         1 UNK         0.0600 
    227 H227       -4.1584  -23.4631  -57.8154 H         1 UNK         0.0600 
    228 H228       -2.5723  -22.8469  -58.2380 H         1 UNK         0.0600 
    229 H229       -2.7928  -23.7835  -56.7617 H         1 UNK         0.0600 
    230 H230       -6.0747  -20.0513  -58.1518 H         1 UNK         0.3000 
    231 H231       -6.0703  -22.6974  -56.9073 H         1 UNK         0.0600 
    232 H232       -8.4555  -22.6185  -57.5314 H         1 UNK         0.0600 
    233 H233       -7.4545  -22.1758  -58.9019 H         1 UNK         0.0600 
    234 H234       -8.3104  -20.9279  -57.9959 H         1 UNK         0.0600 
    235 H235       -5.8964  -19.6633  -55.5479 H         1 UNK         0.3000 
    236 H236       -7.9537  -19.3820  -53.7309 H         1 UNK         0.0600 
    237 H237       -6.2607  -17.6417  -54.1780 H         1 UNK         0.0600 
    238 H238       -6.3369  -17.9672  -52.4524 H         1 UNK         0.0600 
    239 H239       -5.0086  -18.6133  -53.4047 H         1 UNK         0.0600 
    240 H240       -8.7246  -20.7937  -52.3510 H         1 UNK         0.3000 
    241 H241       -9.0416  -22.5322  -51.1262 H         1 UNK         0.0600 
    242 H242       -6.6711  -24.7855  -52.8967 H         1 UNK         0.3800 
    243 H243       -7.3863  -23.2677  -53.3940 H         1 UNK         0.3800 
    244 H244       -8.7142  -21.1587  -49.2992 H         1 UNK         0.0800 
    245 H245       -8.0000  -22.6649  -48.8694 H         1 UNK         0.0800 
    246 H246       -7.0962  -18.8671  -49.9531 H         1 UNK         0.0800 
    247 H247       -7.8781  -19.2069  -48.4272 H         1 UNK         0.0800 
@<TRIPOS>BOND
     1    1    2 1    
     2    1  127 1    
     3    1  128 1    
     4    1  129 1    
     5    2    3 2    
     6    2    4 am   BACKBONE|DICT|INTERRES
     7    4    5 1    
     8    4  130 1    
     9    5    6 1    
    10    5   65 1    
    11    5  131 1    
    12    6    7 1    
    13    6  132 1    
    14    6  133 1    
    15    7    8 1    
    16    8    9 1    
    17    8  134 1    
    18    8  135 1    
    19    9   10 ar   
    20    9   14 ar   
    21   10   11 ar   
    22   10  136 1    
    23   11   12 ar   
    24   11  126 1    
    25   12   13 ar   
    26   12  137 1    
    27   13   14 ar   
    28   13   15 1    
    29   14  138 1    
    30   15   16 1    
    31   15  139 1    
    32   15  140 1    
    33   16   17 1    
    34   17   18 1    
    35   17  141 1    
    36   17  142 1    
    37   18   19 1    
    38   18   67 1    
    39   18  143 1    
    40   19   20 am   BACKBONE|DICT|INTERRES
    41   19  144 1    
    42   20   21 2    
    43   20   22 1    
    44   22   23 1    
    45   22   24 1    
    46   22  145 1    
    47   23  146 1    
    48   23  147 1    
    49   23  148 1    
    50   24   25 am   BACKBONE|DICT|INTERRES
    51   24  149 1    
    52   25   26 2    
    53   25   27 1    
    54   27   28 1    
    55   27   29 1    
    56   27  150 1    
    57   28  151 1    
    58   28  152 1    
    59   28  153 1    
    60   29   30 am   BACKBONE|DICT|INTERRES
    61   29  154 1    
    62   30   31 2    
    63   30   32 1    
    64   32   33 1    
    65   32   34 1    
    66   32  155 1    
    67   33  156 1    
    68   33  157 1    
    69   33  158 1    
    70   34   35 am   BACKBONE|DICT|INTERRES
    71   34  159 1    
    72   35   36 2    
    73   35   37 1    
    74   37   38 1    
    75   37   39 1    
    76   37  160 1    
    77   38  161 1    
    78   38  162 1    
    79   38  163 1    
    80   39   40 am   BACKBONE|DICT|INTERRES
    81   39  164 1    
    82   40   41 2    
    83   40   42 1    
    84   42   43 1    
    85   42   44 1    
    86   42  165 1    
    87   43  166 1    
    88   43  167 1    
    89   43  168 1    
    90   44   45 am   BACKBONE|DICT|INTERRES
    91   44  169 1    
    92   45   46 2    
    93   45   47 1    
    94   47   48 1    
    95   47   49 1    
    96   47  170 1    
    97   48  171 1    
    98   48  172 1    
    99   48  173 1    
   100   49   50 am   BACKBONE|DICT|INTERRES
   101   49  174 1    
   102   50   51 2    
   103   50   52 1    
   104   52   53 1    
   105   52   54 1    
   106   52  175 1    
   107   53  176 1    
   108   53  177 1    
   109   53  178 1    
   110   54   55 am   BACKBONE|DICT|INTERRES
   111   54  179 1    
   112   55   56 2    
   113   55   57 1    
   114   57   58 1    
   115   57   59 1    
   116   57  180 1    
   117   58  181 1    
   118   58  182 1    
   119   58  183 1    
   120   59   60 am   BACKBONE|DICT|INTERRES
   121   59  184 1    
   122   60   61 2    
   123   60   62 1    
   124   62   63 1    
   125   62   64 1    
   126   62  185 1    
   127   63  186 1    
   128   63  187 1    
   129   63  188 1    
   130   64   65 am   BACKBONE|DICT|INTERRES
   131   64  189 1    
   132   65   66 2    
   133   67   68 2    
   134   67   69 am   BACKBONE|DICT|INTERRES
   135   69   70 1    
   136   69  190 1    
   137   70   71 1    
   138   70   72 1    
   139   70  191 1    
   140   71  192 1    
   141   71  193 1    
   142   71  194 1    
   143   72   73 2    
   144   72   74 am   BACKBONE|DICT|INTERRES
   145   74   75 1    
   146   74  195 1    
   147   75   76 1    
   148   75   77 1    
   149   75  196 1    
   150   76  197 1    
   151   76  198 1    
   152   76  199 1    
   153   77   78 2    
   154   77   79 am   BACKBONE|DICT|INTERRES
   155   79   80 1    
   156   79  200 1    
   157   80   81 1    
   158   80   82 1    
   159   80  201 1    
   160   81  202 1    
   161   81  203 1    
   162   81  204 1    
   163   82   83 2    
   164   82   84 am   BACKBONE|DICT|INTERRES
   165   84   85 1    
   166   84  205 1    
   167   85   86 1    
   168   85   87 1    
   169   85  206 1    
   170   86  207 1    
   171   86  208 1    
   172   86  209 1    
   173   87   88 2    
   174   87   89 am   BACKBONE|DICT|INTERRES
   175   89   90 1    
   176   89  210 1    
   177   90   91 1    
   178   90   92 1    
   179   90  211 1    
   180   91  212 1    
   181   91  213 1    
   182   91  214 1    
   183   92   93 2    
   184   92   94 am   BACKBONE|DICT|INTERRES
   185   94   95 1    
   186   94  215 1    
   187   95   96 1    
   188   95   97 1    
   189   95  216 1    
   190   96  217 1    
   191   96  218 1    
   192   96  219 1    
   193   97   98 2    
   194   97   99 am   BACKBONE|DICT|INTERRES
   195   99  100 1    
   196   99  220 1    
   197  100  101 1    
   198  100  102 1    
   199  100  221 1    
   200  101  222 1    
   201  101  223 1    
   202  101  224 1    
   203  102  103 2    
   204  102  104 am   BACKBONE|DICT|INTERRES
   205  104  105 1    
   206  104  225 1    
   207  105  106 1    
   208  105  107 1    
   209  105  226 1    
   210  106  227 1    
   211  106  228 1    
   212  106  229 1    
   213  107  108 2    
   214  107  109 am   BACKBONE|DICT|INTERRES
   215  109  110 1    
   216  109  230 1    
   217  110  111 1    
   218  110  112 1    
   219  110  231 1    
   220  111  232 1    
   221  111  233 1    
   222  111  234 1    
   223  112  113 2    
   224  112  114 am   BACKBONE|DICT|INTERRES
   225  114  115 1    
   226  114  235 1    
   227  115  116 1    
   228  115  117 1    
   229  115  236 1    
   230  116  237 1    
   231  116  238 1    
   232  116  239 1    
   233  117  118 2    
   234  117  119 am   BACKBONE|DICT|INTERRES
   235  119  120 1    
   236  119  240 1    
   237  120  121 1    
   238  120  124 1    
   239  120  241 1    
   240  121  122 am   BACKBONE|DICT|INTERRES
   241  121  123 2    
   242  122  242 1    
   243  122  243 1    
   244  124  125 1    
   245  124  244 1    
   246  124  245 1    
   247  125  126 1    
   248  126  246 1    
   249  126  247 1    
@<TRIPOS>SUBSTRUCTURE
     1 UNK         1 GROUP             0       ****    0 ROOT    
