@<TRIPOS>MOLECULE
3R540
247   249    1
SMALL
USER_CHARGES


@<TRIPOS>ATOM
      1 CA         -7.0236  -14.7175  -51.7738 C.3       0 UNK        -0.1800 
      2 C          -5.7325  -14.6602  -50.9696 C.2       0 UNK         0.5000 
      3 O          -5.0308  -13.6502  -51.0203 O.2       0 UNK        -0.5000 
      4 N          -5.4116  -15.7380  -50.2419 N.am      1 UNK        -0.5000 
      5 CA         -4.2398  -15.8397  -49.3655 C.3       1 UNK         0.1400 
      6 C6         -4.0184  -17.2890  -48.8647 C.3       23 UNK        -0.0398 
      7 S7         -2.2471  -17.6312  -48.6007 S.3       23 UNK        -0.2404 
      8 C8         -1.8421  -18.4206  -50.1898 C.3       23 UNK        -0.0205 
      9 C9         -0.3976  -18.1880  -50.6029 C.ar      23 UNK        -0.0193 
     10 C10         0.0654  -16.8952  -50.8598 C.ar      23 UNK        -0.1150 
     11 C11         1.4023  -16.6767  -51.1994 C.ar      23 UNK        -0.0193 
     12 C12         2.2760  -17.7650  -51.2838 C.ar      23 UNK        -0.1150 
     13 C13         1.8267  -19.0684  -51.0510 C.ar      23 UNK        -0.0193 
     14 C14         0.4781  -19.2682  -50.7316 C.ar      23 UNK        -0.1150 
     15 C15         2.8302  -20.2171  -51.1829 C.3       23 UNK        -0.0205 
     16 S16         2.3072  -21.8395  -50.5189 S.3       23 UNK        -0.2404 
     17 C17         2.5305  -21.6278  -48.7168 C.3       23 UNK        -0.0398 
     18 CA          1.3951  -22.3221  -47.9142 C.3       11 UNK         0.1400 
     19 N           1.8412  -22.7880  -46.5989 N.am      11 UNK        -0.5000 
     20 C           1.3165  -23.8391  -45.9540 C.2       10 UNK         0.5000 
     21 O           0.4640  -24.5804  -46.4444 O.2       10 UNK        -0.5000 
     22 CA          1.7610  -24.0505  -44.4971 C.3       10 UNK         0.1400 
     23 CB          3.2918  -24.0167  -44.3443 C.3       10 UNK        -0.1800 
     24 N           1.1655  -23.0651  -43.5971 N.am      10 UNK        -0.5000 
     25 C          -0.1391  -22.8323  -43.3937 C.2       9 UNK         0.5000 
     26 O          -1.0448  -23.4646  -43.9409 O.2       9 UNK        -0.5000 
     27 CA         -0.5148  -21.6964  -42.4166 C.3       9 UNK         0.1400 
     28 CB         -1.0014  -22.2664  -41.0712 C.3       9 UNK        -0.1800 
     29 N           0.5144  -20.6637  -42.2180 N.am      9 UNK        -0.5000 
     30 C           1.7070  -20.7606  -41.6117 C.2       8 UNK         0.5000 
     31 O           2.1606  -21.8098  -41.1557 O.2       8 UNK        -0.5000 
     32 CA          2.5607  -19.4816  -41.5329 C.3       8 UNK         0.1400 
     33 CB          3.5955  -19.4690  -42.6687 C.3       8 UNK        -0.1800 
     34 N           1.7701  -18.2500  -41.5823 N.am      8 UNK        -0.5000 
     35 C           0.9785  -17.8137  -40.5917 C.2       7 UNK         0.5000 
     36 O           0.8656  -18.3850  -39.5064 O.2       7 UNK        -0.5000 
     37 CA          0.1612  -16.5351  -40.8604 C.3       7 UNK         0.1400 
     38 CB          0.9963  -15.2841  -40.5518 C.3       7 UNK        -0.1800 
     39 N          -0.3534  -16.4548  -42.2290 N.am      7 UNK        -0.5000 
     40 C          -1.2617  -17.2927  -42.7497 C.2       6 UNK         0.5000 
     41 O          -1.7799  -18.2180  -42.1246 O.2       6 UNK        -0.5000 
     42 CA         -1.6306  -17.0860  -44.2289 C.3       6 UNK         0.1400 
     43 CB         -2.7087  -16.0057  -44.3841 C.3       6 UNK        -0.1800 
     44 N          -0.4728  -16.7554  -45.0590 N.am      6 UNK        -0.5000 
     45 C           0.5465  -17.5933  -45.2989 C.2       5 UNK         0.5000 
     46 O           0.6144  -18.7394  -44.8517 O.2       5 UNK        -0.5000 
     47 CA          1.7252  -17.0130  -46.1016 C.3       5 UNK         0.1400 
     48 CB          1.3772  -16.8601  -47.5887 C.3       5 UNK        -0.1800 
     49 N           2.1566  -15.7175  -45.5765 N.am      5 UNK        -0.5000 
     50 C           2.6984  -15.5330  -44.3649 C.2       4 UNK         0.5000 
     51 O           2.9194  -16.4433  -43.5687 O.2       4 UNK        -0.5000 
     52 CA          3.0216  -14.0855  -43.9546 C.3       4 UNK         0.1400 
     53 CB          4.4516  -13.7154  -44.3755 C.3       4 UNK        -0.1800 
     54 N           2.0906  -13.0914  -44.4904 N.am      4 UNK        -0.5000 
     55 C           0.7705  -13.0529  -44.2623 C.2       3 UNK         0.5000 
     56 O           0.1694  -13.8959  -43.5920 O.2       3 UNK        -0.5000 
     57 CA         -0.0075  -11.8631  -44.8650 C.3       3 UNK         0.1400 
     58 CB          0.7783  -11.0745  -45.9385 C.3       3 UNK        -0.1800 
     59 N          -1.3226  -12.2440  -45.3869 N.am      3 UNK        -0.5000 
     60 C          -1.5815  -13.1346  -46.3537 C.2       2 UNK         0.5000 
     61 O          -0.7279  -13.8470  -46.8913 O.2       2 UNK        -0.5000 
     62 CA         -3.0497  -13.2212  -46.8011 C.3       2 UNK         0.1400 
     63 CB         -3.5507  -11.8708  -47.3551 C.3       2 UNK        -0.1800 
     64 N          -3.1819  -14.2492  -47.8272 N.am      2 UNK        -0.5000 
     65 C          -4.3232  -14.8426  -48.1887 C.2       1 UNK         0.5000 
     66 O          -5.4066  -14.6376  -47.6342 O.2       1 UNK        -0.5000 
     67 C           0.1369  -21.4520  -47.7246 C.2       11 UNK         0.5000 
     68 O           0.1916  -20.2381  -47.8868 O.2       11 UNK        -0.5000 
     69 N          -0.9562  -22.1009  -47.3194 N.am      12 UNK        -0.5000 
     70 CA         -2.2757  -21.5397  -47.0734 C.3       12 UNK         0.1400 
     71 CB         -2.2519  -20.4604  -45.9686 C.3       12 UNK        -0.1800 
     72 C          -3.1923  -22.7306  -46.7669 C.2       12 UNK         0.5000 
     73 O          -3.3522  -23.5933  -47.6309 O.2       12 UNK        -0.5000 
     74 N          -3.7508  -22.7806  -45.5516 N.am      13 UNK        -0.5000 
     75 CA         -4.7161  -23.7721  -45.0792 C.3       13 UNK         0.1400 
     76 CB         -5.0934  -23.4456  -43.6262 C.3       13 UNK        -0.1800 
     77 C          -4.2573  -25.2370  -45.1973 C.2       13 UNK         0.5000 
     78 O          -5.0663  -26.0819  -45.5819 O.2       13 UNK        -0.5000 
     79 N          -2.9837  -25.5189  -44.8850 N.am      14 UNK        -0.5000 
     80 CA         -2.4280  -26.8756  -44.9354 C.3       14 UNK         0.1400 
     81 CB         -1.1126  -26.9283  -44.1487 C.3       14 UNK        -0.1800 
     82 C          -2.2303  -27.3845  -46.3762 C.2       14 UNK         0.5000 
     83 O          -2.4741  -28.5611  -46.6459 O.2       14 UNK        -0.5000 
     84 N          -1.8224  -26.4833  -47.2787 N.am      15 UNK        -0.5000 
     85 CA         -1.6751  -26.7373  -48.7141 C.3       15 UNK         0.1400 
     86 CB         -0.7327  -25.6770  -49.3087 C.3       15 UNK        -0.1800 
     87 C          -3.0162  -26.7342  -49.4756 C.2       15 UNK         0.5000 
     88 O          -3.0516  -27.1732  -50.6257 O.2       15 UNK        -0.5000 
     89 N          -4.0729  -26.2060  -48.8398 N.am      16 UNK        -0.5000 
     90 CA         -5.3868  -25.8748  -49.4024 C.3       16 UNK         0.1400 
     91 CB         -6.1277  -27.1344  -49.8966 C.3       16 UNK        -0.1800 
     92 C          -5.3018  -24.7562  -50.4651 C.2       16 UNK         0.5000 
     93 O          -6.0972  -24.7238  -51.4062 O.2       16 UNK        -0.5000 
     94 N          -4.3375  -23.8459  -50.2836 N.am      17 UNK        -0.5000 
     95 CA         -4.0983  -22.6739  -51.1148 C.3       17 UNK         0.1400 
     96 CB         -2.5909  -22.3569  -51.1079 C.3       17 UNK        -0.1800 
     97 C          -4.9508  -21.5107  -50.5854 C.2       17 UNK         0.5000 
     98 O          -4.4527  -20.6638  -49.8446 O.2       17 UNK        -0.5000 
     99 N          -6.2449  -21.5229  -50.9297 N.am      18 UNK        -0.5000 
    100 CA        -7.1937  -20.4662  -50.5726 C.3       18 UNK         0.1400 
    101 CB        -8.6267  -20.9577  -50.8262 C.3       18 UNK        -0.1800 
    102 C         -6.9173  -19.1599  -51.3393 C.2       18 UNK         0.5000 
    103 O         -6.9931  -18.0798  -50.7529 O.2       18 UNK        -0.5000 
    104 N         -6.5757  -19.2931  -52.6272 N.am      19 UNK        -0.5000 
    105 CA        -6.1102  -18.2099  -53.4895 C.3       19 UNK         0.1400 
    106 CB        -6.4164  -18.5771  -54.9496 C.3       19 UNK        -0.1800 
    107 C         -4.6010  -17.9791  -53.3003 C.2       19 UNK         0.5000 
    108 O         -3.8904  -18.8937  -52.8780 O.2       19 UNK        -0.5000 
    109 N         -4.1391  -16.7693  -53.6418 N.am      20 UNK        -0.5000 
    110 CA        -2.7396  -16.3461  -53.5845 C.3       20 UNK         0.1400 
    111 CB        -2.6671  -14.8233  -53.7850 C.3       20 UNK        -0.1800 
    112 C         -1.8697  -17.0983  -54.6099 C.2       20 UNK         0.5000 
    113 O         -1.7499  -16.6563  -55.7544 O.2       20 UNK        -0.5000 
    114 N         -1.2783  -18.2236  -54.1857 N.am      21 UNK        -0.5000 
    115 CA        -0.4304  -19.0945  -55.0083 C.3       21 UNK         0.1400 
    116 CB        -0.1104  -20.3770  -54.2262 C.3       21 UNK        -0.1800 
    117 C          0.8628  -18.4182  -55.5090 C.2       21 UNK         0.5000 
    118 O          1.4193  -18.8490  -56.5198 O.2       21 UNK        -0.5000 
    119 N          1.2922  -17.3543  -54.8197 N.am      22 UNK        -0.5000 
    120 CA         2.3349  -16.4183  -55.2619 C.3       22 UNK         0.1400 
    121 C          1.9422  -15.5150  -56.4722 C.2       22 UNK         0.5000 
    122 N          0.6824  -15.4469  -56.8893 N.am      22 UNK        -0.7600 
    123 O          2.8081  -14.8697  -57.0573 O.2       22 UNK        -0.5000 
    124 C124        2.8862  -15.5789  -54.0797 C.3       23 UNK        -0.0398 
    125 S125        1.5957  -14.6880  -53.1331 S.3       23 UNK        -0.2404 
    126 C126        1.9058  -15.2604  -51.4322 C.3       23 UNK        -0.0205 
    127 H127       -7.6393  -13.8451  -51.5548 H         1 UNK         0.0600 
    128 H128       -7.6092  -15.6068  -51.5424 H         1 UNK         0.0600 
    129 H129       -6.8022  -14.7190  -52.8409 H         1 UNK         0.0600 
    130 H130       -6.0325  -16.5441  -50.2547 H         1 UNK         0.3000 
    131 H131       -3.3883  -15.5545  -49.9883 H         1 UNK         0.0600 
    132 H132       -4.4012  -18.0081  -49.5899 H         1 UNK         0.0800 
    133 H133       -4.5673  -17.4914  -47.9431 H         1 UNK         0.0800 
    134 H134       -2.4945  -18.0290  -50.9635 H         1 UNK         0.0800 
    135 H135       -2.0598  -19.4861  -50.1127 H         1 UNK         0.0800 
    136 H136       -0.6090  -16.0557  -50.7678 H         1 UNK         0.1150 
    137 H137        3.3152  -17.5987  -51.5288 H         1 UNK         0.1150 
    138 H138        0.1011  -20.2639  -50.5551 H         1 UNK         0.1150 
    139 H139        3.0488  -20.3461  -52.2436 H         1 UNK         0.0800 
    140 H140        3.7719  -19.9362  -50.7088 H         1 UNK         0.0800 
    141 H141        2.6344  -20.5718  -48.4604 H         1 UNK         0.0800 
    142 H142        3.4901  -22.0847  -48.4715 H         1 UNK         0.0800 
    143 H143        1.0888  -23.2006  -48.4872 H         1 UNK         0.0600 
    144 H144        2.4842  -22.1870  -46.1053 H         1 UNK         0.3000 
    145 H145        1.4212  -25.0367  -44.1821 H         1 UNK         0.0600 
    146 H146        3.5887  -24.3146  -43.3385 H         1 UNK         0.0600 
    147 H147        3.7702  -24.7075  -45.0399 H         1 UNK         0.0600 
    148 H148        3.7030  -23.0235  -44.5276 H         1 UNK         0.0600 
    149 H149        1.8086  -22.5356  -43.0223 H         1 UNK         0.3000 
    150 H150       -1.3611  -21.1735  -42.8612 H         1 UNK         0.0600 
    151 H151       -1.8546  -22.9301  -41.2172 H         1 UNK         0.0600 
    152 H152       -1.3208  -21.4698  -40.3991 H         1 UNK         0.0600 
    153 H153       -0.2258  -22.8428  -40.5665 H         1 UNK         0.0600 
    154 H154        0.2834  -19.7604  -42.6123 H         1 UNK         0.3000 
    155 H155        3.0988  -19.5048  -40.5830 H         1 UNK         0.0600 
    156 H156        3.1176  -19.3972  -43.6466 H         1 UNK         0.0600 
    157 H157        4.1992  -20.3775  -42.6624 H         1 UNK         0.0600 
    158 H158        4.2796  -18.6264  -42.5677 H         1 UNK         0.0600 
    159 H159        1.8680  -17.6848  -42.4204 H         1 UNK         0.3000 
    160 H160       -0.6971  -16.5428  -40.1854 H         1 UNK         0.0600 
    161 H161        1.8884  -15.2357  -41.1751 H         1 UNK         0.0600 
    162 H162        1.3240  -15.2818  -39.5116 H         1 UNK         0.0600 
    163 H163        0.4211  -14.3725  -40.7150 H         1 UNK         0.0600 
    164 H164       -0.0180  -15.6851  -42.8013 H         1 UNK         0.3000 
    165 H165       -2.0489  -18.0242  -44.5929 H         1 UNK         0.0600 
    166 H166       -3.0379  -15.9324  -45.4202 H         1 UNK         0.0600 
    167 H167       -3.5869  -16.2415  -43.7819 H         1 UNK         0.0600 
    168 H168       -2.3474  -15.0268  -44.0681 H         1 UNK         0.0600 
    169 H169       -0.4258  -15.8165  -45.4318 H         1 UNK         0.3000 
    170 H170        2.5615  -17.7102  -46.0183 H         1 UNK         0.0600 
    171 H171        1.0800  -17.8155  -48.0191 H         1 UNK         0.0600 
    172 H172        0.5529  -16.1639  -47.7461 H         1 UNK         0.0600 
    173 H173        2.2323  -16.5028  -48.1623 H         1 UNK         0.0600 
    174 H174        1.9727  -14.9083  -46.1517 H         1 UNK         0.3000 
    175 H175        2.9663  -14.0312  -42.8663 H         1 UNK         0.0600 
    176 H176        4.5646  -13.7142  -45.4603 H         1 UNK         0.0600 
    177 H177        4.7292  -12.7278  -44.0067 H         1 UNK         0.0600 
    178 H178        5.1738  -14.4261  -43.9710 H         1 UNK         0.0600 
    179 H179        2.4957  -12.3612  -45.0576 H         1 UNK         0.3000 
    180 H180       -0.1982  -11.1836  -44.0333 H         1 UNK         0.0600 
    181 H181        1.0733  -11.7080  -46.7762 H         1 UNK         0.0600 
    182 H182        1.6802  -10.6227  -45.5239 H         1 UNK         0.0600 
    183 H183        0.1761  -10.2594  -46.3403 H         1 UNK         0.0600 
    184 H184       -2.1012  -11.7475  -44.9779 H         1 UNK         0.3000 
    185 H185       -3.6474  -13.5032  -45.9320 H         1 UNK         0.0600 
    186 H186       -2.9573  -11.5469  -48.2111 H         1 UNK         0.0600 
    187 H187       -4.5903  -11.9322  -47.6772 H         1 UNK         0.0600 
    188 H188       -3.4998  -11.0836  -46.6025 H         1 UNK         0.0600 
    189 H189       -2.3032  -14.5195  -48.2526 H         1 UNK         0.3000 
    190 H190       -0.8783  -23.0986  -47.1563 H         1 UNK         0.3000 
    191 H191       -2.6323  -21.0795  -47.9950 H         1 UNK         0.0600 
    192 H192       -3.2568  -20.1191  -45.7177 H         1 UNK         0.0600 
    193 H193       -1.7047  -19.5796  -46.2999 H         1 UNK         0.0600 
    194 H194       -1.7705  -20.8188  -45.0615 H         1 UNK         0.0600 
    195 H195       -3.5095  -22.0540  -44.8949 H         1 UNK         0.3000 
    196 H196       -5.6114  -23.6636  -45.6947 H         1 UNK         0.0600 
    197 H197       -5.8265  -24.1562  -43.2422 H         1 UNK         0.0600 
    198 H198       -5.5338  -22.4516  -43.5456 H         1 UNK         0.0600 
    199 H199       -4.2237  -23.4825  -42.9683 H         1 UNK         0.0600 
    200 H200       -2.3615  -24.7705  -44.5884 H         1 UNK         0.3000 
    201 H201       -3.1338  -27.5473  -44.4418 H         1 UNK         0.0600 
    202 H202       -1.2408  -26.5584  -43.1313 H         1 UNK         0.0600 
    203 H203       -0.3433  -26.3300  -44.6306 H         1 UNK         0.0600 
    204 H204       -0.7385  -27.9505  -44.0830 H         1 UNK         0.0600 
    205 H205       -1.5938  -25.5523  -46.9572 H         1 UNK         0.3000 
    206 H206       -1.2188  -27.7193  -48.8544 H         1 UNK         0.0600 
    207 H207        0.2589  -25.7360  -48.8604 H         1 UNK         0.0600 
    208 H208       -0.6070  -25.8183  -50.3829 H         1 UNK         0.0600 
    209 H209       -1.1143  -24.6669  -49.1542 H         1 UNK         0.0600 
    210 H210       -3.9045  -25.8438  -47.9102 H         1 UNK         0.3000 
    211 H211       -5.9657  -25.4588  -48.5766 H         1 UNK         0.0600 
    212 H212       -5.6607  -27.5613  -50.7842 H         1 UNK         0.0600 
    213 H213       -7.1612  -26.9010  -50.1548 H         1 UNK         0.0600 
    214 H214       -6.1526  -27.9044  -49.1255 H         1 UNK         0.0600 
    215 H215       -3.8065  -23.8897  -49.4171 H         1 UNK         0.3000 
    216 H216       -4.3933  -22.8772  -52.1464 H         1 UNK         0.0600 
    217 H217       -2.3794  -21.4613  -51.6937 H         1 UNK         0.0600 
    218 H218       -2.0161  -23.1744  -51.5433 H         1 UNK         0.0600 
    219 H219       -2.2131  -22.1880  -50.0996 H         1 UNK         0.0600 
    220 H220       -6.5947  -22.2932  -51.4834 H         1 UNK         0.3000 
    221 H221       -7.0904  -20.2555  -49.5059 H         1 UNK         0.0600 
    222 H222       -8.7898  -21.2067  -51.8755 H         1 UNK         0.0600 
    223 H223       -8.8494  -21.8445  -50.2324 H         1 UNK         0.0600 
    224 H224       -9.3548  -20.1928  -50.5529 H         1 UNK         0.0600 
    225 H225       -6.4808  -20.2265  -52.9975 H         1 UNK         0.3000 
    226 H226       -6.6450  -17.2921  -53.2390 H         1 UNK         0.0600 
    227 H227       -5.8926  -19.4838  -55.2555 H         1 UNK         0.0600 
    228 H228       -7.4840  -18.7400  -55.0991 H         1 UNK         0.0600 
    229 H229       -6.1130  -17.7787  -55.6280 H         1 UNK         0.0600 
    230 H230       -4.7832  -16.0958  -54.0289 H         1 UNK         0.3000 
    231 H231       -2.3514  -16.5533  -52.5888 H         1 UNK         0.0600 
    232 H232       -3.1002  -14.5171  -54.7380 H         1 UNK         0.0600 
    233 H233       -1.6325  -14.4774  -53.7681 H         1 UNK         0.0600 
    234 H234       -3.1958  -14.2957  -52.9915 H         1 UNK         0.0600 
    235 H235       -1.4846  -18.5525  -53.2527 H         1 UNK         0.3000 
    236 H236       -1.0107  -19.3733  -55.8902 H         1 UNK         0.0600 
    237 H237       -1.0195  -20.8730  -53.8855 H         1 UNK         0.0600 
    238 H238        0.4332  -21.0874  -54.8501 H         1 UNK         0.0600 
    239 H239        0.5093  -20.1721  -53.3549 H         1 UNK         0.0600 
    240 H240        0.7812  -17.0778  -53.9942 H         1 UNK         0.3000 
    241 H241        3.1653  -17.0270  -55.6247 H         1 UNK         0.0600 
    242 H242        0.4591  -14.8603  -57.6772 H         1 UNK         0.3800 
    243 H243       -0.0620  -15.9592  -56.4267 H         1 UNK         0.3800 
    244 H244        3.4400  -16.2351  -53.4100 H         1 UNK         0.0800 
    245 H245        3.6208  -14.8513  -54.4290 H         1 UNK         0.0800 
    246 H246        1.4053  -14.5823  -50.7393 H         1 UNK         0.0800 
    247 H247        2.9706  -15.1871  -51.2056 H         1 UNK         0.0800 
@<TRIPOS>BOND
     1    1    2 1    
     2    1  127 1    
     3    1  128 1    
     4    1  129 1    
     5    2    3 2    
     6    2    4 am   BACKBONE|DICT|INTERRES
     7    4    5 1    
     8    4  130 1    
     9    5    6 1    
    10    5   65 1    
    11    5  131 1    
    12    6    7 1    
    13    6  132 1    
    14    6  133 1    
    15    7    8 1    
    16    8    9 1    
    17    8  134 1    
    18    8  135 1    
    19    9   10 ar   
    20    9   14 ar   
    21   10   11 ar   
    22   10  136 1    
    23   11   12 ar   
    24   11  126 1    
    25   12   13 ar   
    26   12  137 1    
    27   13   14 ar   
    28   13   15 1    
    29   14  138 1    
    30   15   16 1    
    31   15  139 1    
    32   15  140 1    
    33   16   17 1    
    34   17   18 1    
    35   17  141 1    
    36   17  142 1    
    37   18   19 1    
    38   18   67 1    
    39   18  143 1    
    40   19   20 am   BACKBONE|DICT|INTERRES
    41   19  144 1    
    42   20   21 2    
    43   20   22 1    
    44   22   23 1    
    45   22   24 1    
    46   22  145 1    
    47   23  146 1    
    48   23  147 1    
    49   23  148 1    
    50   24   25 am   BACKBONE|DICT|INTERRES
    51   24  149 1    
    52   25   26 2    
    53   25   27 1    
    54   27   28 1    
    55   27   29 1    
    56   27  150 1    
    57   28  151 1    
    58   28  152 1    
    59   28  153 1    
    60   29   30 am   BACKBONE|DICT|INTERRES
    61   29  154 1    
    62   30   31 2    
    63   30   32 1    
    64   32   33 1    
    65   32   34 1    
    66   32  155 1    
    67   33  156 1    
    68   33  157 1    
    69   33  158 1    
    70   34   35 am   BACKBONE|DICT|INTERRES
    71   34  159 1    
    72   35   36 2    
    73   35   37 1    
    74   37   38 1    
    75   37   39 1    
    76   37  160 1    
    77   38  161 1    
    78   38  162 1    
    79   38  163 1    
    80   39   40 am   BACKBONE|DICT|INTERRES
    81   39  164 1    
    82   40   41 2    
    83   40   42 1    
    84   42   43 1    
    85   42   44 1    
    86   42  165 1    
    87   43  166 1    
    88   43  167 1    
    89   43  168 1    
    90   44   45 am   BACKBONE|DICT|INTERRES
    91   44  169 1    
    92   45   46 2    
    93   45   47 1    
    94   47   48 1    
    95   47   49 1    
    96   47  170 1    
    97   48  171 1    
    98   48  172 1    
    99   48  173 1    
   100   49   50 am   BACKBONE|DICT|INTERRES
   101   49  174 1    
   102   50   51 2    
   103   50   52 1    
   104   52   53 1    
   105   52   54 1    
   106   52  175 1    
   107   53  176 1    
   108   53  177 1    
   109   53  178 1    
   110   54   55 am   BACKBONE|DICT|INTERRES
   111   54  179 1    
   112   55   56 2    
   113   55   57 1    
   114   57   58 1    
   115   57   59 1    
   116   57  180 1    
   117   58  181 1    
   118   58  182 1    
   119   58  183 1    
   120   59   60 am   BACKBONE|DICT|INTERRES
   121   59  184 1    
   122   60   61 2    
   123   60   62 1    
   124   62   63 1    
   125   62   64 1    
   126   62  185 1    
   127   63  186 1    
   128   63  187 1    
   129   63  188 1    
   130   64   65 am   BACKBONE|DICT|INTERRES
   131   64  189 1    
   132   65   66 2    
   133   67   68 2    
   134   67   69 am   BACKBONE|DICT|INTERRES
   135   69   70 1    
   136   69  190 1    
   137   70   71 1    
   138   70   72 1    
   139   70  191 1    
   140   71  192 1    
   141   71  193 1    
   142   71  194 1    
   143   72   73 2    
   144   72   74 am   BACKBONE|DICT|INTERRES
   145   74   75 1    
   146   74  195 1    
   147   75   76 1    
   148   75   77 1    
   149   75  196 1    
   150   76  197 1    
   151   76  198 1    
   152   76  199 1    
   153   77   78 2    
   154   77   79 am   BACKBONE|DICT|INTERRES
   155   79   80 1    
   156   79  200 1    
   157   80   81 1    
   158   80   82 1    
   159   80  201 1    
   160   81  202 1    
   161   81  203 1    
   162   81  204 1    
   163   82   83 2    
   164   82   84 am   BACKBONE|DICT|INTERRES
   165   84   85 1    
   166   84  205 1    
   167   85   86 1    
   168   85   87 1    
   169   85  206 1    
   170   86  207 1    
   171   86  208 1    
   172   86  209 1    
   173   87   88 2    
   174   87   89 am   BACKBONE|DICT|INTERRES
   175   89   90 1    
   176   89  210 1    
   177   90   91 1    
   178   90   92 1    
   179   90  211 1    
   180   91  212 1    
   181   91  213 1    
   182   91  214 1    
   183   92   93 2    
   184   92   94 am   BACKBONE|DICT|INTERRES
   185   94   95 1    
   186   94  215 1    
   187   95   96 1    
   188   95   97 1    
   189   95  216 1    
   190   96  217 1    
   191   96  218 1    
   192   96  219 1    
   193   97   98 2    
   194   97   99 am   BACKBONE|DICT|INTERRES
   195   99  100 1    
   196   99  220 1    
   197  100  101 1    
   198  100  102 1    
   199  100  221 1    
   200  101  222 1    
   201  101  223 1    
   202  101  224 1    
   203  102  103 2    
   204  102  104 am   BACKBONE|DICT|INTERRES
   205  104  105 1    
   206  104  225 1    
   207  105  106 1    
   208  105  107 1    
   209  105  226 1    
   210  106  227 1    
   211  106  228 1    
   212  106  229 1    
   213  107  108 2    
   214  107  109 am   BACKBONE|DICT|INTERRES
   215  109  110 1    
   216  109  230 1    
   217  110  111 1    
   218  110  112 1    
   219  110  231 1    
   220  111  232 1    
   221  111  233 1    
   222  111  234 1    
   223  112  113 2    
   224  112  114 am   BACKBONE|DICT|INTERRES
   225  114  115 1    
   226  114  235 1    
   227  115  116 1    
   228  115  117 1    
   229  115  236 1    
   230  116  237 1    
   231  116  238 1    
   232  116  239 1    
   233  117  118 2    
   234  117  119 am   BACKBONE|DICT|INTERRES
   235  119  120 1    
   236  119  240 1    
   237  120  121 1    
   238  120  124 1    
   239  120  241 1    
   240  121  122 am   BACKBONE|DICT|INTERRES
   241  121  123 2    
   242  122  242 1    
   243  122  243 1    
   244  124  125 1    
   245  124  244 1    
   246  124  245 1    
   247  125  126 1    
   248  126  246 1    
   249  126  247 1    
@<TRIPOS>SUBSTRUCTURE
     1 UNK         1 GROUP             0       ****    0 ROOT    
