@<TRIPOS>MOLECULE
3R540
247   249    1
SMALL
USER_CHARGES


@<TRIPOS>ATOM
      1 CA         -1.0020  -11.4221  -51.0349 C.3       0 UNK        -0.1800 
      2 C           0.3043  -11.9825  -50.4902 C.2       0 UNK         0.5000 
      3 O           1.3030  -11.2649  -50.4216 O.2       0 UNK        -0.5000 
      4 N           0.3011  -13.2622  -50.1016 N.am      1 UNK        -0.5000 
      5 CA          1.4263  -14.0069  -49.5278 C.3       1 UNK         0.1400 
      6 C6          1.2504  -15.5390  -49.7155 C.3       23 UNK        -0.0398 
      7 S7         -0.3851  -16.1761  -49.2042 S.3       23 UNK        -0.2404 
      8 C8          0.0616  -17.7120  -48.3352 C.3       23 UNK        -0.0205 
      9 C9          0.7042  -18.7702  -49.2249 C.ar      23 UNK        -0.0193 
     10 C10         0.2012  -19.0405  -50.5003 C.ar      23 UNK        -0.1150 
     11 C11         0.7815  -20.0229  -51.3054 C.ar      23 UNK        -0.0193 
     12 C12         1.8729  -20.7493  -50.8170 C.ar      23 UNK        -0.1150 
     13 C13         2.3849  -20.5048  -49.5370 C.ar      23 UNK        -0.0193 
     14 C14         1.7951  -19.5054  -48.7513 C.ar      23 UNK        -0.1150 
     15 C15         3.6084  -21.2949  -49.0665 C.3       23 UNK        -0.0205 
     16 S16         3.7783  -21.4851  -47.2556 S.3       23 UNK        -0.2404 
     17 C17         2.6870  -22.9028  -46.8919 C.3       23 UNK        -0.0398 
     18 CA          3.1139  -23.6263  -45.5868 C.3       11 UNK         0.1400 
     19 N           2.9107  -22.7849  -44.3980 N.am      11 UNK        -0.5000 
     20 C           3.4739  -22.9833  -43.1975 C.2       10 UNK         0.5000 
     21 O           4.3204  -23.8497  -42.9762 O.2       10 UNK        -0.5000 
     22 CA          2.9650  -22.1065  -42.0346 C.3       10 UNK         0.1400 
     23 CB          3.7475  -20.7872  -41.9503 C.3       10 UNK        -0.1800 
     24 N           1.5270  -21.8309  -42.1218 N.am      10 UNK        -0.5000 
     25 C           0.5694  -22.7568  -41.9610 C.2       9 UNK         0.5000 
     26 O           0.8009  -23.9265  -41.6573 O.2       9 UNK        -0.5000 
     27 CA         -0.8861  -22.3301  -42.2331 C.3       9 UNK         0.1400 
     28 CB         -1.5159  -21.6989  -40.9830 C.3       9 UNK        -0.1800 
     29 N          -1.0103  -21.4123  -43.3651 N.am      9 UNK        -0.5000 
     30 C          -0.7023  -21.7185  -44.6344 C.2       8 UNK         0.5000 
     31 O          -0.3310  -22.8335  -45.0015 O.2       8 UNK        -0.5000 
     32 CA         -0.7537  -20.5601  -45.6477 C.3       8 UNK         0.1400 
     33 CB         -2.1964  -20.3204  -46.1195 C.3       8 UNK        -0.1800 
     34 N          -0.1853  -19.3232  -45.1078 N.am      8 UNK        -0.5000 
     35 C           1.0870  -19.1888  -44.7057 C.2       7 UNK         0.5000 
     36 O           1.9250  -20.0811  -44.8082 O.2       7 UNK        -0.5000 
     37 CA          1.4738  -17.8750  -44.0054 C.3       7 UNK         0.1400 
     38 CB          1.8371  -16.7769  -45.0120 C.3       7 UNK        -0.1800 
     39 N           0.4129  -17.4060  -43.1162 N.am      7 UNK        -0.5000 
     40 C           0.1214  -17.9751  -41.9386 C.2       6 UNK         0.5000 
     41 O           0.7687  -18.9028  -41.4534 O.2       6 UNK        -0.5000 
     42 CA         -1.1259  -17.4523  -41.2023 C.3       6 UNK         0.1400 
     43 CB         -0.7668  -16.3032  -40.2518 C.3       6 UNK        -0.1800 
     44 N          -2.1746  -17.0125  -42.1238 N.am      6 UNK        -0.5000 
     45 C          -2.9200  -17.8545  -42.8527 C.2       5 UNK         0.5000 
     46 O          -2.8119  -19.0795  -42.7981 O.2       5 UNK        -0.5000 
     47 CA         -3.9171  -17.2231  -43.8427 C.3       5 UNK         0.1400 
     48 CB         -5.2465  -16.9069  -43.1422 C.3       5 UNK        -0.1800 
     49 N          -3.4086  -16.0106  -44.4908 N.am      5 UNK        -0.5000 
     50 C          -2.3189  -15.9646  -45.2684 C.2       4 UNK         0.5000 
     51 O          -1.6321  -16.9512  -45.5219 O.2       4 UNK        -0.5000 
     52 CA         -1.9152  -14.6081  -45.8704 C.3       4 UNK         0.1400 
     53 CB         -3.0678  -13.5827  -45.9402 C.3       4 UNK        -0.1800 
     54 N          -0.7442  -14.0369  -45.2041 N.am      4 UNK        -0.5000 
     55 C          -0.6305  -13.6674  -43.9191 C.2       3 UNK         0.5000 
     56 O          -1.4990  -13.8802  -43.0714 O.2       3 UNK        -0.5000 
     57 CA          0.6632  -12.9343  -43.4972 C.3       3 UNK         0.1400 
     58 CB          1.3924  -13.6814  -42.3695 C.3       3 UNK        -0.1800 
     59 N           1.6044  -12.7094  -44.5964 N.am      3 UNK        -0.5000 
     60 C           1.4932  -11.7617  -45.5374 C.2       2 UNK         0.5000 
     61 O           0.5698  -10.9483  -45.5843 O.2       2 UNK        -0.5000 
     62 CA          2.5904  -11.7234  -46.6216 C.3       2 UNK         0.1400 
     63 CB          3.9344  -12.3318  -46.1615 C.3       2 UNK        -0.1800 
     64 N           2.1602  -12.3438  -47.8784 N.am      2 UNK        -0.5000 
     65 C           1.7063  -13.5912  -48.0646 C.2       1 UNK         0.5000 
     66 O           1.5065  -14.3838  -47.1445 O.2       1 UNK        -0.5000 
     67 C           2.4342  -25.0133  -45.4588 C.2       11 UNK         0.5000 
     68 O           2.7524  -25.9080  -46.2429 O.2       11 UNK        -0.5000 
     69 N           1.5390  -25.1752  -44.4708 N.am      12 UNK        -0.5000 
     70 CA          0.8400  -26.3996  -44.0608 C.3       12 UNK         0.1400 
     71 CB          1.8440  -27.4491  -43.5405 C.3       12 UNK        -0.1800 
     72 C          -0.1239  -26.9687  -45.1229 C.2       12 UNK         0.5000 
     73 O          -0.4350  -28.1609  -45.0927 O.2       12 UNK        -0.5000 
     74 N          -0.5955  -26.1045  -46.0262 N.am      13 UNK        -0.5000 
     75 CA         -1.5059  -26.3974  -47.1283 C.3       13 UNK         0.1400 
     76 CB         -0.8536  -27.3600  -48.1513 C.3       13 UNK        -0.1800 
     77 C          -1.9095  -25.0367  -47.7150 C.2       13 UNK         0.5000 
     78 O          -2.4813  -24.2246  -46.9857 O.2       13 UNK        -0.5000 
     79 N          -1.5502  -24.7898  -48.9833 N.am      14 UNK        -0.5000 
     80 CA         -1.6267  -23.5054  -49.6828 C.3       14 UNK         0.1400 
     81 CB         -0.5950  -22.5395  -49.0641 C.3       14 UNK        -0.1800 
     82 C          -3.0577  -22.9265  -49.7599 C.2       14 UNK         0.5000 
     83 O          -4.0228  -23.6892  -49.8532 O.2       14 UNK        -0.5000 
     84 N          -3.1678  -21.5950  -49.7527 N.am      15 UNK        -0.5000 
     85 CA         -4.4057  -20.8391  -49.8265 C.3       15 UNK         0.1400 
     86 CB         -4.8321  -20.6908  -51.2946 C.3       15 UNK        -0.1800 
     87 C          -4.1377  -19.4660  -49.2076 C.2       15 UNK         0.5000 
     88 O          -3.0832  -18.8801  -49.4690 O.2       15 UNK        -0.5000 
     89 N          -5.0949  -18.9624  -48.4205 N.am      16 UNK        -0.5000 
     90 CA         -5.0354  -17.6370  -47.8083 C.3       16 UNK         0.1400 
     91 CB         -6.2191  -17.4605  -46.8458 C.3       16 UNK        -0.1800 
     92 C          -5.0268  -16.5366  -48.8836 C.2       16 UNK         0.5000 
     93 O          -5.9399  -16.4880  -49.7099 O.2       16 UNK        -0.5000 
     94 N          -3.9699  -15.7143  -48.8691 N.am      17 UNK        -0.5000 
     95 CA         -3.6755  -14.6417  -49.8267 C.3       17 UNK         0.1400 
     96 CB         -4.7457  -13.5317  -49.7684 C.3       17 UNK        -0.1800 
     97 C          -3.4076  -15.1494  -51.2625 C.2       17 UNK         0.5000 
     98 O          -3.5647  -14.3839  -52.2144 O.2       17 UNK        -0.5000 
     99 N          -2.9785  -16.4165  -51.3842 N.am      18 UNK        -0.5000 
    100 CA        -2.6093  -17.1138  -52.6190 C.3       18 UNK         0.1400 
    101 CB        -1.3221  -16.5156  -53.2235 C.3       18 UNK        -0.1800 
    102 C         -3.7735  -17.2200  -53.6236 C.2       18 UNK         0.5000 
    103 O         -3.5929  -16.9862  -54.8208 O.2       18 UNK        -0.5000 
    104 N         -4.9543  -17.5808  -53.1030 N.am      19 UNK        -0.5000 
    105 CA        -6.1530  -17.9146  -53.8729 C.3       19 UNK         0.1400 
    106 CB        -7.3533  -17.9612  -52.9106 C.3       19 UNK        -0.1800 
    107 C         -6.0016  -19.2307  -54.6725 C.2       19 UNK         0.5000 
    108 O         -4.9604  -19.8882  -54.6082 O.2       19 UNK        -0.5000 
    109 N         -7.0575  -19.5940  -55.4146 N.am      20 UNK        -0.5000 
    110 CA        -7.1094  -20.6781  -56.4060 C.3       20 UNK         0.1400 
    111 CB        -8.5477  -20.7970  -56.9329 C.3       20 UNK        -0.1800 
    112 C         -6.5943  -22.0610  -55.9538 C.2       20 UNK         0.5000 
    113 O         -6.0964  -22.8147  -56.7915 O.2       20 UNK        -0.5000 
    114 N         -6.6778  -22.3663  -54.6511 N.am      21 UNK        -0.5000 
    115 CA        -6.1436  -23.5938  -54.0521 C.3       21 UNK         0.1400 
    116 CB        -6.7009  -23.7622  -52.6287 C.3       21 UNK        -0.1800 
    117 C         -4.6011  -23.7165  -54.1019 C.2       21 UNK         0.5000 
    118 O         -4.0937  -24.8321  -53.9776 O.2       21 UNK        -0.5000 
    119 N         -3.8846  -22.6061  -54.3384 N.am      22 UNK        -0.5000 
    120 CA        -2.4595  -22.6068  -54.7199 C.3       22 UNK         0.1400 
    121 C         -2.1989  -23.0529  -56.1926 C.2       22 UNK         0.5000 
    122 N         -3.2027  -23.2180  -57.0470 N.am      22 UNK        -0.7600 
    123 O         -1.0503  -23.2693  -56.5694 O.2       22 UNK        -0.5000 
    124 C124       -1.7754  -21.2425  -54.4300 C.3       23 UNK        -0.0398 
    125 S125       -1.4473  -20.9918  -52.6542 S.3       23 UNK        -0.2404 
    126 C126        0.2328  -20.2882  -52.7006 C.3       23 UNK        -0.0205 
    127 H127       -0.8459  -11.0075  -52.0307 H         1 UNK         0.0600 
    128 H128       -1.3678  -10.6262  -50.3862 H         1 UNK         0.0600 
    129 H129       -1.7751  -12.1876  -51.1051 H         1 UNK         0.0600 
    130 H130       -0.5489  -13.7996  -50.1777 H         1 UNK         0.3000 
    131 H131        2.3219  -13.7326  -50.0895 H         1 UNK         0.0600 
    132 H132        2.0414  -16.0832  -49.1963 H         1 UNK         0.0800 
    133 H133        1.3744  -15.7875  -50.7701 H         1 UNK         0.0800 
    134 H134        0.7190  -17.4606  -47.5059 H         1 UNK         0.0800 
    135 H135       -0.8429  -18.1310  -47.8998 H         1 UNK         0.0800 
    136 H136       -0.6517  -18.4889  -50.8643 H         1 UNK         0.1150 
    137 H137        2.3290  -21.5074  -51.4381 H         1 UNK         0.1150 
    138 H138        2.1841  -19.2928  -47.7660 H         1 UNK         0.1150 
    139 H139        3.6233  -22.2821  -49.5307 H         1 UNK         0.0800 
    140 H140        4.4949  -20.7756  -49.4321 H         1 UNK         0.0800 
    141 H141        1.6574  -22.5502  -46.8259 H         1 UNK         0.0800 
    142 H142        2.7254  -23.5879  -47.7405 H         1 UNK         0.0800 
    143 H143        4.1841  -23.8311  -45.6605 H         1 UNK         0.0600 
    144 H144        2.3004  -21.9811  -44.5171 H         1 UNK         0.3000 
    145 H145        3.1409  -22.6561  -41.1075 H         1 UNK         0.0600 
    146 H146        3.4006  -20.1744  -41.1181 H         1 UNK         0.0600 
    147 H147        3.6537  -20.1984  -42.8618 H         1 UNK         0.0600 
    148 H148        4.8101  -20.9770  -41.7946 H         1 UNK         0.0600 
    149 H149        1.2566  -20.8782  -42.3327 H         1 UNK         0.3000 
    150 H150       -1.4527  -23.2309  -42.4780 H         1 UNK         0.0600 
    151 H151       -1.4763  -22.3864  -40.1373 H         1 UNK         0.0600 
    152 H152       -2.5640  -21.4507  -41.1518 H         1 UNK         0.0600 
    153 H153       -0.9997  -20.7860  -40.6873 H         1 UNK         0.0600 
    154 H154       -1.3664  -20.4842  -43.1626 H         1 UNK         0.3000 
    155 H155       -0.1459  -20.8346  -46.5103 H         1 UNK         0.0600 
    156 H156       -2.6012  -21.2128  -46.5987 H         1 UNK         0.0600 
    157 H157       -2.2524  -19.5104  -46.8432 H         1 UNK         0.0600 
    158 H158       -2.8572  -20.0682  -45.2910 H         1 UNK         0.0600 
    159 H159       -0.8010  -18.5148  -45.0617 H         1 UNK         0.3000 
    160 H160        2.3643  -18.0772  -43.4065 H         1 UNK         0.0600 
    161 H161        0.9552  -16.3940  -45.5219 H         1 UNK         0.0600 
    162 H162        2.5265  -17.1471  -45.7719 H         1 UNK         0.0600 
    163 H163        2.3244  -15.9359  -44.5209 H         1 UNK         0.0600 
    164 H164       -0.2074  -16.6977  -43.4791 H         1 UNK         0.3000 
    165 H165       -1.5176  -18.2742  -40.5990 H         1 UNK         0.0600 
    166 H166       -1.6205  -16.0237  -39.6343 H         1 UNK         0.0600 
    167 H167        0.0436  -16.5866  -39.5788 H         1 UNK         0.0600 
    168 H168       -0.4493  -15.4183  -40.7996 H         1 UNK         0.0600 
    169 H169       -2.2955  -16.0152  -42.2470 H         1 UNK         0.3000 
    170 H170       -4.1100  -17.9607  -44.6238 H         1 UNK         0.0600 
    171 H171       -5.6638  -17.8006  -42.6763 H         1 UNK         0.0600 
    172 H172       -5.1210  -16.1568  -42.3603 H         1 UNK         0.0600 
    173 H173       -5.9885  -16.5339  -43.8479 H         1 UNK         0.0600 
    174 H174       -3.8976  -15.1494  -44.2937 H         1 UNK         0.3000 
    175 H175       -1.6036  -14.8130  -46.8942 H         1 UNK         0.0600 
    176 H176       -2.7628  -12.6984  -46.5002 H         1 UNK         0.0600 
    177 H177       -3.9381  -13.9986  -46.4491 H         1 UNK         0.0600 
    178 H178       -3.3898  -13.2491  -44.9534 H         1 UNK         0.0600 
    179 H179        0.0713  -13.9211  -45.7982 H         1 UNK         0.3000 
    180 H180        0.3620  -11.9595  -43.1082 H         1 UNK         0.0600 
    181 H181        2.3505  -13.2154  -42.1384 H         1 UNK         0.0600 
    182 H182        1.5780  -14.7251  -42.6217 H         1 UNK         0.0600 
    183 H183        0.8038  -13.6593  -41.4531 H         1 UNK         0.0600 
    184 H184        2.3717  -13.3613  -44.6724 H         1 UNK         0.3000 
    185 H185        2.7666  -10.6692  -46.8406 H         1 UNK         0.0600 
    186 H186        4.7129  -12.1541  -46.9035 H         1 UNK         0.0600 
    187 H187        4.2726  -11.8786  -45.2287 H         1 UNK         0.0600 
    188 H188        3.8729  -13.4094  -46.0056 H         1 UNK         0.0600 
    189 H189        2.1849  -11.7436  -48.6975 H         1 UNK         0.3000 
    190 H190        1.3245  -24.3596  -43.9122 H         1 UNK         0.3000 
    191 H191        0.2083  -26.1116  -43.2199 H         1 UNK         0.0600 
    192 H192        1.3279  -28.2944  -43.0839 H         1 UNK         0.0600 
    193 H193        2.4990  -27.0229  -42.7804 H         1 UNK         0.0600 
    194 H194        2.4701  -27.8427  -44.3418 H         1 UNK         0.0600 
    195 H195       -0.3511  -25.1258  -45.9229 H         1 UNK         0.3000 
    196 H196       -2.4085  -26.8617  -46.7267 H         1 UNK         0.0600 
    197 H197       -1.5049  -27.5266  -49.0102 H         1 UNK         0.0600 
    198 H198       -0.6667  -28.3401  -47.7134 H         1 UNK         0.0600 
    199 H199        0.1012  -26.9789  -48.5162 H         1 UNK         0.0600 
    200 H200       -1.1197  -25.5410  -49.5028 H         1 UNK         0.3000 
    201 H201       -1.3275  -23.6931  -50.7150 H         1 UNK         0.0600 
    202 H202       -0.8169  -22.3399  -48.0183 H         1 UNK         0.0600 
    203 H203       -0.5723  -21.5848  -49.5815 H         1 UNK         0.0600 
    204 H204        0.4116  -22.9537  -49.1174 H         1 UNK         0.0600 
    205 H205       -2.3381  -21.0189  -49.6856 H         1 UNK         0.3000 
    206 H206       -5.1816  -21.3587  -49.2603 H         1 UNK         0.0600 
    207 H207       -4.7490  -21.6337  -51.8290 H         1 UNK         0.0600 
    208 H208       -5.8652  -20.3565  -51.3671 H         1 UNK         0.0600 
    209 H209       -4.2070  -19.9744  -51.8273 H         1 UNK         0.0600 
    210 H210       -5.9481  -19.4835  -48.2816 H         1 UNK         0.3000 
    211 H211       -4.1128  -17.5800  -47.2268 H         1 UNK         0.0600 
    212 H212       -7.1755  -17.5341  -47.3650 H         1 UNK         0.0600 
    213 H213       -6.1830  -16.4835  -46.3623 H         1 UNK         0.0600 
    214 H214       -6.2060  -18.2147  -46.0590 H         1 UNK         0.0600 
    215 H215       -3.2357  -15.9060  -48.2044 H         1 UNK         0.3000 
    216 H216       -2.7386  -14.1957  -49.4918 H         1 UNK         0.0600 
    217 H217       -4.4384  -12.6614  -50.3494 H         1 UNK         0.0600 
    218 H218       -4.9096  -13.1938  -48.7453 H         1 UNK         0.0600 
    219 H219       -5.7023  -13.8680  -50.1690 H         1 UNK         0.0600 
    220 H220       -2.8930  -16.9727  -50.5405 H         1 UNK         0.3000 
    221 H221       -2.3855  -18.1399  -52.3279 H         1 UNK         0.0600 
    222 H222       -0.9792  -17.1078  -54.0725 H         1 UNK         0.0600 
    223 H223       -1.4747  -15.4952  -53.5757 H         1 UNK         0.0600 
    224 H224       -0.5140  -16.5012  -52.4923 H         1 UNK         0.0600 
    225 H225       -5.0127  -17.7138  -52.1044 H         1 UNK         0.3000 
    226 H226       -6.3215  -17.1120  -54.5935 H         1 UNK         0.0600 
    227 H227       -7.4327  -17.0365  -52.3381 H         1 UNK         0.0600 
    228 H228       -8.2937  -18.0819  -53.4491 H         1 UNK         0.0600 
    229 H229       -7.2763  -18.7829  -52.2001 H         1 UNK         0.0600 
    230 H230       -7.8779  -19.0065  -55.3818 H         1 UNK         0.3000 
    231 H231       -6.4726  -20.3682  -57.2368 H         1 UNK         0.0600 
    232 H232       -8.6243  -21.5738  -57.6951 H         1 UNK         0.0600 
    233 H233       -8.8810  -19.8649  -57.3895 H         1 UNK         0.0600 
    234 H234       -9.2469  -21.0503  -56.1349 H         1 UNK         0.0600 
    235 H235       -7.0778  -21.6851  -54.0234 H         1 UNK         0.3000 
    236 H236       -6.5235  -24.4310  -54.6416 H         1 UNK         0.0600 
    237 H237       -6.5617  -22.8724  -52.0189 H         1 UNK         0.0600 
    238 H238       -7.7700  -23.9731  -52.6556 H         1 UNK         0.0600 
    239 H239       -6.2220  -24.5942  -52.1104 H         1 UNK         0.0600 
    240 H240       -4.3630  -21.7127  -54.4196 H         1 UNK         0.3000 
    241 H241       -1.9552  -23.3579  -54.1087 H         1 UNK         0.0600 
    242 H242       -2.9979  -23.5135  -57.9883 H         1 UNK         0.3800 
    243 H243       -4.1686  -23.0587  -56.7793 H         1 UNK         0.3800 
    244 H244       -2.3819  -20.4158  -54.8014 H         1 UNK         0.0800 
    245 H245       -0.8224  -21.1672  -54.9564 H         1 UNK         0.0800 
    246 H246        0.2165  -19.3530  -53.2618 H         1 UNK         0.0800 
    247 H247        0.8912  -20.9674  -53.2445 H         1 UNK         0.0800 
@<TRIPOS>BOND
     1    1    2 1    
     2    1  127 1    
     3    1  128 1    
     4    1  129 1    
     5    2    3 2    
     6    2    4 am   BACKBONE|DICT|INTERRES
     7    4    5 1    
     8    4  130 1    
     9    5    6 1    
    10    5   65 1    
    11    5  131 1    
    12    6    7 1    
    13    6  132 1    
    14    6  133 1    
    15    7    8 1    
    16    8    9 1    
    17    8  134 1    
    18    8  135 1    
    19    9   10 ar   
    20    9   14 ar   
    21   10   11 ar   
    22   10  136 1    
    23   11   12 ar   
    24   11  126 1    
    25   12   13 ar   
    26   12  137 1    
    27   13   14 ar   
    28   13   15 1    
    29   14  138 1    
    30   15   16 1    
    31   15  139 1    
    32   15  140 1    
    33   16   17 1    
    34   17   18 1    
    35   17  141 1    
    36   17  142 1    
    37   18   19 1    
    38   18   67 1    
    39   18  143 1    
    40   19   20 am   BACKBONE|DICT|INTERRES
    41   19  144 1    
    42   20   21 2    
    43   20   22 1    
    44   22   23 1    
    45   22   24 1    
    46   22  145 1    
    47   23  146 1    
    48   23  147 1    
    49   23  148 1    
    50   24   25 am   BACKBONE|DICT|INTERRES
    51   24  149 1    
    52   25   26 2    
    53   25   27 1    
    54   27   28 1    
    55   27   29 1    
    56   27  150 1    
    57   28  151 1    
    58   28  152 1    
    59   28  153 1    
    60   29   30 am   BACKBONE|DICT|INTERRES
    61   29  154 1    
    62   30   31 2    
    63   30   32 1    
    64   32   33 1    
    65   32   34 1    
    66   32  155 1    
    67   33  156 1    
    68   33  157 1    
    69   33  158 1    
    70   34   35 am   BACKBONE|DICT|INTERRES
    71   34  159 1    
    72   35   36 2    
    73   35   37 1    
    74   37   38 1    
    75   37   39 1    
    76   37  160 1    
    77   38  161 1    
    78   38  162 1    
    79   38  163 1    
    80   39   40 am   BACKBONE|DICT|INTERRES
    81   39  164 1    
    82   40   41 2    
    83   40   42 1    
    84   42   43 1    
    85   42   44 1    
    86   42  165 1    
    87   43  166 1    
    88   43  167 1    
    89   43  168 1    
    90   44   45 am   BACKBONE|DICT|INTERRES
    91   44  169 1    
    92   45   46 2    
    93   45   47 1    
    94   47   48 1    
    95   47   49 1    
    96   47  170 1    
    97   48  171 1    
    98   48  172 1    
    99   48  173 1    
   100   49   50 am   BACKBONE|DICT|INTERRES
   101   49  174 1    
   102   50   51 2    
   103   50   52 1    
   104   52   53 1    
   105   52   54 1    
   106   52  175 1    
   107   53  176 1    
   108   53  177 1    
   109   53  178 1    
   110   54   55 am   BACKBONE|DICT|INTERRES
   111   54  179 1    
   112   55   56 2    
   113   55   57 1    
   114   57   58 1    
   115   57   59 1    
   116   57  180 1    
   117   58  181 1    
   118   58  182 1    
   119   58  183 1    
   120   59   60 am   BACKBONE|DICT|INTERRES
   121   59  184 1    
   122   60   61 2    
   123   60   62 1    
   124   62   63 1    
   125   62   64 1    
   126   62  185 1    
   127   63  186 1    
   128   63  187 1    
   129   63  188 1    
   130   64   65 am   BACKBONE|DICT|INTERRES
   131   64  189 1    
   132   65   66 2    
   133   67   68 2    
   134   67   69 am   BACKBONE|DICT|INTERRES
   135   69   70 1    
   136   69  190 1    
   137   70   71 1    
   138   70   72 1    
   139   70  191 1    
   140   71  192 1    
   141   71  193 1    
   142   71  194 1    
   143   72   73 2    
   144   72   74 am   BACKBONE|DICT|INTERRES
   145   74   75 1    
   146   74  195 1    
   147   75   76 1    
   148   75   77 1    
   149   75  196 1    
   150   76  197 1    
   151   76  198 1    
   152   76  199 1    
   153   77   78 2    
   154   77   79 am   BACKBONE|DICT|INTERRES
   155   79   80 1    
   156   79  200 1    
   157   80   81 1    
   158   80   82 1    
   159   80  201 1    
   160   81  202 1    
   161   81  203 1    
   162   81  204 1    
   163   82   83 2    
   164   82   84 am   BACKBONE|DICT|INTERRES
   165   84   85 1    
   166   84  205 1    
   167   85   86 1    
   168   85   87 1    
   169   85  206 1    
   170   86  207 1    
   171   86  208 1    
   172   86  209 1    
   173   87   88 2    
   174   87   89 am   BACKBONE|DICT|INTERRES
   175   89   90 1    
   176   89  210 1    
   177   90   91 1    
   178   90   92 1    
   179   90  211 1    
   180   91  212 1    
   181   91  213 1    
   182   91  214 1    
   183   92   93 2    
   184   92   94 am   BACKBONE|DICT|INTERRES
   185   94   95 1    
   186   94  215 1    
   187   95   96 1    
   188   95   97 1    
   189   95  216 1    
   190   96  217 1    
   191   96  218 1    
   192   96  219 1    
   193   97   98 2    
   194   97   99 am   BACKBONE|DICT|INTERRES
   195   99  100 1    
   196   99  220 1    
   197  100  101 1    
   198  100  102 1    
   199  100  221 1    
   200  101  222 1    
   201  101  223 1    
   202  101  224 1    
   203  102  103 2    
   204  102  104 am   BACKBONE|DICT|INTERRES
   205  104  105 1    
   206  104  225 1    
   207  105  106 1    
   208  105  107 1    
   209  105  226 1    
   210  106  227 1    
   211  106  228 1    
   212  106  229 1    
   213  107  108 2    
   214  107  109 am   BACKBONE|DICT|INTERRES
   215  109  110 1    
   216  109  230 1    
   217  110  111 1    
   218  110  112 1    
   219  110  231 1    
   220  111  232 1    
   221  111  233 1    
   222  111  234 1    
   223  112  113 2    
   224  112  114 am   BACKBONE|DICT|INTERRES
   225  114  115 1    
   226  114  235 1    
   227  115  116 1    
   228  115  117 1    
   229  115  236 1    
   230  116  237 1    
   231  116  238 1    
   232  116  239 1    
   233  117  118 2    
   234  117  119 am   BACKBONE|DICT|INTERRES
   235  119  120 1    
   236  119  240 1    
   237  120  121 1    
   238  120  124 1    
   239  120  241 1    
   240  121  122 am   BACKBONE|DICT|INTERRES
   241  121  123 2    
   242  122  242 1    
   243  122  243 1    
   244  124  125 1    
   245  124  244 1    
   246  124  245 1    
   247  125  126 1    
   248  126  246 1    
   249  126  247 1    
@<TRIPOS>SUBSTRUCTURE
     1 UNK         1 GROUP             0       ****    0 ROOT    
