@<TRIPOS>MOLECULE
3R540
247   249    1
SMALL
USER_CHARGES


@<TRIPOS>ATOM
      1 CA          2.0179  -15.0421  -49.9880 C.3       0 UNK        -0.1800 
      2 C           2.0480  -14.3534  -48.6326 C.2       0 UNK         0.5000 
      3 O           3.0019  -14.5392  -47.8745 O.2       0 UNK        -0.5000 
      4 N           1.0133  -13.5573  -48.3278 N.am      1 UNK        -0.5000 
      5 CA          0.8066  -12.8881  -47.0359 C.3       1 UNK         0.1400 
      6 C6         -0.5593  -12.1532  -46.9281 C.3       23 UNK        -0.0398 
      7 S7         -1.9762  -13.0510  -47.6455 S.3       23 UNK        -0.2404 
      8 C8         -2.2123  -14.4016  -46.4535 C.3       23 UNK        -0.0205 
      9 C9         -2.5567  -15.6864  -47.1857 C.ar      23 UNK        -0.0193 
     10 C10        -3.8688  -16.1654  -47.2009 C.ar      23 UNK        -0.1150 
     11 C11        -4.1874  -17.3411  -47.8867 C.ar      23 UNK        -0.0193 
     12 C12        -3.1848  -18.0206  -48.5852 C.ar      23 UNK        -0.1150 
     13 C13        -1.8669  -17.5517  -48.5748 C.ar      23 UNK        -0.0193 
     14 C14        -1.5579  -16.3909  -47.8629 C.ar      23 UNK        -0.1150 
     15 C15        -0.7748  -18.2919  -49.3328 C.3       23 UNK        -0.0205 
     16 S16         0.0847  -19.4952  -48.2779 S.3       23 UNK        -0.2404 
     17 C17        -1.2565  -20.6891  -47.9972 C.3       23 UNK        -0.0398 
     18 CA         -0.7517  -22.0178  -47.4029 C.3       11 UNK         0.1400 
     19 N          -0.1679  -21.8521  -46.0718 N.am      11 UNK        -0.5000 
     20 C           0.6060  -22.7596  -45.4636 C.2       10 UNK         0.5000 
     21 O           0.9236  -23.8361  -45.9683 O.2       10 UNK        -0.5000 
     22 CA          1.0495  -22.4254  -44.0275 C.3       10 UNK         0.1400 
     23 CB          2.2414  -21.4557  -44.0395 C.3       10 UNK        -0.1800 
     24 N          -0.0358  -21.8493  -43.2315 N.am      10 UNK        -0.5000 
     25 C          -1.1677  -22.4935  -42.9137 C.2       9 UNK         0.5000 
     26 O          -1.3890  -23.6679  -43.2073 O.2       9 UNK        -0.5000 
     27 CA         -2.2557  -21.6771  -42.1923 C.3       9 UNK         0.1400 
     28 CB         -2.0751  -21.7701  -40.6702 C.3       9 UNK        -0.1800 
     29 N          -2.3016  -20.2656  -42.5810 N.am      9 UNK        -0.5000 
     30 C          -2.4903  -19.7825  -43.8159 C.2       8 UNK         0.5000 
     31 O          -2.6070  -20.5035  -44.8071 O.2       8 UNK        -0.5000 
     32 CA         -2.5251  -18.2480  -43.9915 C.3       8 UNK         0.1400 
     33 CB         -3.9767  -17.7464  -44.0988 C.3       8 UNK        -0.1800 
     34 N          -1.7693  -17.4798  -42.9864 N.am      8 UNK        -0.5000 
     35 C          -2.0049  -17.3450  -41.6700 C.2       7 UNK         0.5000 
     36 O          -2.9397  -17.8960  -41.0889 O.2       7 UNK        -0.5000 
     37 CA         -1.0079  -16.5157  -40.8345 C.3       7 UNK         0.1400 
     38 CB         -0.1702  -17.4427  -39.9384 C.3       7 UNK        -0.1800 
     39 N          -0.0963  -15.7018  -41.6366 N.am      7 UNK        -0.5000 
     40 C          -0.4243  -14.5625  -42.2592 C.2       6 UNK         0.5000 
     41 O          -1.5355  -14.0375  -42.1885 O.2       6 UNK        -0.5000 
     42 CA          0.6736  -13.9087  -43.1221 C.3       6 UNK         0.1400 
     43 CB          1.4210  -12.8440  -42.3048 C.3       6 UNK        -0.1800 
     44 N           1.6521  -14.8498  -43.6816 N.am      6 UNK        -0.5000 
     45 C           1.3830  -15.9029  -44.4647 C.2       5 UNK         0.5000 
     46 O           0.2382  -16.2426  -44.7620 O.2       5 UNK        -0.5000 
     47 CA          2.5826  -16.7251  -44.9772 C.3       5 UNK         0.1400 
     48 CB          2.1972  -17.6549  -46.1391 C.3       5 UNK        -0.1800 
     49 N           3.7265  -15.9101  -45.3931 N.am      5 UNK        -0.5000 
     50 C           4.6506  -15.4019  -44.5683 C.2       4 UNK         0.5000 
     51 O           4.5337  -15.4053  -43.3424 O.2       4 UNK        -0.5000 
     52 CA          5.9278  -14.8295  -45.1989 C.3       4 UNK         0.1400 
     53 CB          6.9603  -15.9690  -45.3466 C.3       4 UNK        -0.1800 
     54 N           5.6780  -14.1665  -46.4829 N.am      4 UNK        -0.5000 
     55 C           6.5978  -13.4706  -47.1674 C.2       3 UNK         0.5000 
     56 O           7.7608  -13.3085  -46.7951 O.2       3 UNK        -0.5000 
     57 CA          6.1378  -12.8152  -48.4787 C.3       3 UNK         0.1400 
     58 CB          5.9421  -13.8602  -49.5894 C.3       3 UNK        -0.1800 
     59 N           4.9108  -12.0450  -48.2913 N.am      3 UNK        -0.5000 
     60 C           4.8580  -10.8422  -47.7005 C.2       2 UNK         0.5000 
     61 O           5.8481  -10.2476  -47.2727 O.2       2 UNK        -0.5000 
     62 CA          3.4750  -10.1752  -47.5805 C.3       2 UNK         0.1400 
     63 CB          3.3027   -9.0994  -48.6644 C.3       2 UNK        -0.1800 
     64 N           2.3733  -11.1310  -47.6874 N.am      2 UNK        -0.5000 
     65 C           1.9497  -11.9154  -46.6877 C.2       1 UNK         0.5000 
     66 O           2.4290  -11.9073  -45.5547 O.2       1 UNK        -0.5000 
     67 C          -1.8913  -23.0496  -47.3986 C.2       11 UNK         0.5000 
     68 O          -2.0640  -23.7478  -48.3963 O.2       11 UNK        -0.5000 
     69 N          -2.6454  -23.1372  -46.2948 N.am      12 UNK        -0.5000 
     70 CA         -3.6796  -24.1518  -46.0932 C.3       12 UNK         0.1400 
     71 CB         -4.5279  -23.7984  -44.8631 C.3       12 UNK        -0.1800 
     72 C          -3.0785  -25.5642  -45.9769 C.2       12 UNK         0.5000 
     73 O          -3.5787  -26.4885  -46.6175 O.2       12 UNK        -0.5000 
     74 N          -1.9872  -25.6923  -45.2081 N.am      13 UNK        -0.5000 
     75 CA         -1.2208  -26.9286  -45.0403 C.3       13 UNK         0.1400 
     76 CB         -0.1892  -26.7403  -43.9176 C.3       13 UNK        -0.1800 
     77 C          -0.5347  -27.3923  -46.3394 C.2       13 UNK         0.5000 
     78 O          -0.5408  -28.5872  -46.6366 O.2       13 UNK        -0.5000 
     79 N           0.0201  -26.4393  -47.1014 N.am      14 UNK        -0.5000 
     80 CA          0.6578  -26.6762  -48.3998 C.3       14 UNK         0.1400 
     81 CB          1.5494  -25.4701  -48.7363 C.3       14 UNK        -0.1800 
     82 C          -0.3406  -26.9285  -49.5489 C.2       14 UNK         0.5000 
     83 O           0.0809  -27.3641  -50.6204 O.2       14 UNK        -0.5000 
     84 N          -1.6240  -26.6090  -49.3232 N.am      15 UNK        -0.5000 
     85 CA         -2.7410  -26.5981  -50.2776 C.3       15 UNK         0.1400 
     86 CB         -2.9863  -27.9903  -50.8926 C.3       15 UNK        -0.1800 
     87 C          -2.6341  -25.4895  -51.3478 C.2       15 UNK         0.5000 
     88 O          -3.4194  -25.4738  -52.2965 O.2       15 UNK        -0.5000 
     89 N          -1.7182  -24.5328  -51.1483 N.am      16 UNK        -0.5000 
     90 CA         -1.5490  -23.3328  -51.9658 C.3       16 UNK         0.1400 
     91 CB         -0.2807  -22.5898  -51.5209 C.3       16 UNK        -0.1800 
     92 C          -2.7747  -22.4048  -51.9010 C.2       16 UNK         0.5000 
     93 O          -3.1185  -21.7932  -52.9100 O.2       16 UNK        -0.5000 
     94 N          -3.4380  -22.3694  -50.7347 N.am      17 UNK        -0.5000 
     95 CA         -4.6896  -21.6432  -50.5002 C.3       17 UNK         0.1400 
     96 CB         -4.9658  -21.6012  -48.9887 C.3       17 UNK        -0.1800 
     97 C          -5.9004  -22.2496  -51.2387 C.2       17 UNK         0.5000 
     98 O          -6.8872  -21.5475  -51.4572 O.2       17 UNK        -0.5000 
     99 N          -5.8201  -23.5405  -51.5909 N.am      18 UNK        -0.5000 
    100 CA        -6.8204  -24.2291  -52.4042 C.3       18 UNK         0.1400 
    101 CB        -6.8840  -25.7106  -51.9986 C.3       18 UNK        -0.1800 
    102 C         -6.5047  -24.0804  -53.9020 C.2       18 UNK         0.5000 
    103 O         -7.4254  -23.9003  -54.6997 O.2       18 UNK        -0.5000 
    104 N         -5.2138  -24.1620  -54.2554 N.am      19 UNK        -0.5000 
    105 CA        -4.7151  -24.0622  -55.6256 C.3       19 UNK         0.1400 
    106 CB        -3.2444  -24.5053  -55.6631 C.3       19 UNK        -0.1800 
    107 C         -4.8744  -22.6576  -56.2362 C.2       19 UNK         0.5000 
    108 O         -5.3145  -22.5471  -57.3818 O.2       19 UNK        -0.5000 
    109 N         -4.5115  -21.6177  -55.4759 N.am      20 UNK        -0.5000 
    110 CA        -4.5401  -20.2178  -55.8942 C.3       20 UNK         0.1400 
    111 CB        -3.3931  -19.9332  -56.8937 C.3       20 UNK        -0.1800 
    112 C         -4.5229  -19.3197  -54.6424 C.2       20 UNK         0.5000 
    113 O         -5.2672  -19.5926  -53.7007 O.2       20 UNK        -0.5000 
    114 N         -3.6764  -18.2789  -54.6514 N.am      21 UNK        -0.5000 
    115 CA        -3.4508  -17.3017  -53.5838 C.3       21 UNK         0.1400 
    116 CB        -2.7782  -17.9739  -52.3654 C.3       21 UNK        -0.1800 
    117 C         -4.7241  -16.4953  -53.2488 C.2       21 UNK         0.5000 
    118 O         -5.2147  -15.7665  -54.1135 O.2       21 UNK        -0.5000 
    119 N         -5.2043  -16.6076  -52.0062 N.am      22 UNK        -0.5000 
    120 CA        -6.4067  -15.9599  -51.4646 C.3       22 UNK         0.1400 
    121 C         -7.7300  -16.3016  -52.2130 C.2       22 UNK         0.5000 
    122 N         -8.7144  -15.4128  -52.1666 N.am      22 UNK        -0.7600 
    123 O         -7.8928  -17.3644  -52.8069 O.2       22 UNK        -0.5000 
    124 C124       -6.5290  -16.2133  -49.9374 C.3       23 UNK        -0.0398 
    125 S125       -6.4046  -17.9798  -49.4708 S.3       23 UNK        -0.2404 
    126 C126       -5.6069  -17.8914  -47.8365 C.3       23 UNK        -0.0205 
    127 H127        2.8328  -14.6762  -50.6125 H         1 UNK         0.0600 
    128 H128        1.0778  -14.8662  -50.5114 H         1 UNK         0.0600 
    129 H129        2.1402  -16.1177  -49.8613 H         1 UNK         0.0600 
    130 H130        0.2566  -13.4513  -48.9893 H         1 UNK         0.3000 
    131 H131        0.8229  -13.6765  -46.2838 H         1 UNK         0.0600 
    132 H132       -0.7834  -11.9222  -45.8852 H         1 UNK         0.0800 
    133 H133       -0.5190  -11.1917  -47.4437 H         1 UNK         0.0800 
    134 H134       -1.3114  -14.5549  -45.8632 H         1 UNK         0.0800 
    135 H135       -2.9976  -14.1292  -45.7468 H         1 UNK         0.0800 
    136 H136       -4.6401  -15.6272  -46.6682 H         1 UNK         0.1150 
    137 H137       -3.4306  -18.9214  -49.1280 H         1 UNK         0.1150 
    138 H138       -0.5405  -16.0269  -47.8428 H         1 UNK         0.1150 
    139 H139       -1.1890  -18.8084  -50.1985 H         1 UNK         0.0800 
    140 H140       -0.0469  -17.5789  -49.7222 H         1 UNK         0.0800 
    141 H141       -1.7486  -20.8622  -48.9554 H         1 UNK         0.0800 
    142 H142       -1.9996  -20.2333  -47.3420 H         1 UNK         0.0800 
    143 H143        0.0276  -22.4064  -48.0614 H         1 UNK         0.0600 
    144 H144       -0.4374  -21.0189  -45.5690 H         1 UNK         0.3000 
    145 H145        1.3653  -23.3553  -43.5498 H         1 UNK         0.0600 
    146 H146        3.0711  -21.8656  -44.6170 H         1 UNK         0.0600 
    147 H147        2.6095  -21.2710  -43.0302 H         1 UNK         0.0600 
    148 H148        1.9776  -20.4943  -44.4820 H         1 UNK         0.0600 
    149 H149        0.0614  -20.8856  -42.9492 H         1 UNK         0.3000 
    150 H150       -3.2211  -22.1158  -42.4492 H         1 UNK         0.0600 
    151 H151       -1.1412  -21.3086  -40.3469 H         1 UNK         0.0600 
    152 H152       -2.0606  -22.8099  -40.3405 H         1 UNK         0.0600 
    153 H153       -2.8925  -21.2751  -40.1454 H         1 UNK         0.0600 
    154 H154       -2.3034  -19.5873  -41.8271 H         1 UNK         0.3000 
    155 H155       -2.0371  -18.0393  -44.9455 H         1 UNK         0.0600 
    156 H156       -4.5528  -17.9618  -43.1988 H         1 UNK         0.0600 
    157 H157       -4.4901  -18.2247  -44.9335 H         1 UNK         0.0600 
    158 H158       -4.0090  -16.6704  -44.2690 H         1 UNK         0.0600 
    159 H159       -0.9707  -16.9851  -43.3728 H         1 UNK         0.3000 
    160 H160       -1.5920  -15.8536  -40.1918 H         1 UNK         0.0600 
    161 H161        0.4378  -18.1309  -40.5271 H         1 UNK         0.0600 
    162 H162       -0.8083  -18.0431  -39.2883 H         1 UNK         0.0600 
    163 H163        0.4977  -16.8707  -39.2940 H         1 UNK         0.0600 
    164 H164        0.8443  -16.0503  -41.7490 H         1 UNK         0.3000 
    165 H165        0.1767  -13.4138  -43.9576 H         1 UNK         0.0600 
    166 H166        2.1510  -12.3135  -42.9156 H         1 UNK         0.0600 
    167 H167        0.7303  -12.0993  -41.9070 H         1 UNK         0.0600 
    168 H168        1.9512  -13.2859  -41.4603 H         1 UNK         0.0600 
    169 H169        2.6265  -14.6787  -43.4596 H         1 UNK         0.3000 
    170 H170        2.8965  -17.3612  -44.1469 H         1 UNK         0.0600 
    171 H171        3.0453  -18.2560  -46.4668 H         1 UNK         0.0600 
    172 H172        1.8305  -17.0930  -46.9990 H         1 UNK         0.0600 
    173 H173        1.4102  -18.3478  -45.8396 H         1 UNK         0.0600 
    174 H174        3.8289  -15.7865  -46.3926 H         1 UNK         0.3000 
    175 H175        6.3228  -14.0844  -44.5054 H         1 UNK         0.0600 
    176 H176        7.0669  -16.5264  -44.4148 H         1 UNK         0.0600 
    177 H177        6.6635  -16.6785  -46.1199 H         1 UNK         0.0600 
    178 H178        7.9515  -15.5944  -45.5993 H         1 UNK         0.0600 
    179 H179        4.7301  -14.2054  -46.8448 H         1 UNK         0.3000 
    180 H180        6.9249  -12.1323  -48.8066 H         1 UNK         0.0600 
    181 H181        5.1954  -14.6083  -49.3249 H         1 UNK         0.0600 
    182 H182        6.8742  -14.3904  -49.7881 H         1 UNK         0.0600 
    183 H183        5.6307  -13.3908  -50.5226 H         1 UNK         0.0600 
    184 H184        4.0470  -12.4892  -48.5649 H         1 UNK         0.3000 
    185 H185        3.4274   -9.6862  -46.6050 H         1 UNK         0.0600 
    186 H186        4.0908   -8.3482  -48.5984 H         1 UNK         0.0600 
    187 H187        3.3405   -9.5274  -49.6670 H         1 UNK         0.0600 
    188 H188        2.3507   -8.5794  -48.5561 H         1 UNK         0.0600 
    189 H189        1.9284  -11.2133  -48.5904 H         1 UNK         0.3000 
    190 H190       -2.4895  -22.4736  -45.5446 H         1 UNK         0.3000 
    191 H191       -4.3357  -24.1432  -46.9652 H         1 UNK         0.0600 
    192 H192       -4.9349  -22.7898  -44.9399 H         1 UNK         0.0600 
    193 H193       -5.3702  -24.4841  -44.7650 H         1 UNK         0.0600 
    194 H194       -3.9516  -23.8594  -43.9409 H         1 UNK         0.0600 
    195 H195       -1.6711  -24.8885  -44.6720 H         1 UNK         0.3000 
    196 H196       -1.9160  -27.7131  -44.7343 H         1 UNK         0.0600 
    197 H197        0.3873  -27.6523  -43.7583 H         1 UNK         0.0600 
    198 H198       -0.6758  -26.4936  -42.9738 H         1 UNK         0.0600 
    199 H199        0.5155  -25.9406  -44.1478 H         1 UNK         0.0600 
    200 H200        0.0541  -25.4887  -46.7464 H         1 UNK         0.3000 
    201 H201        1.2945  -27.5596  -48.3186 H         1 UNK         0.0600 
    202 H202        2.0756  -25.6197  -49.6800 H         1 UNK         0.0600 
    203 H203        2.3051  -25.3115  -47.9667 H         1 UNK         0.0600 
    204 H204        0.9666  -24.5531  -48.8273 H         1 UNK         0.0600 
    205 H205       -1.8489  -26.2393  -48.4087 H         1 UNK         0.3000 
    206 H206       -3.6222  -26.3471  -49.6855 H         1 UNK         0.0600 
    207 H207       -3.0570  -28.7558  -50.1198 H         1 UNK         0.0600 
    208 H208       -3.9218  -28.0086  -51.4529 H         1 UNK         0.0600 
    209 H209       -2.1922  -28.2782  -51.5816 H         1 UNK         0.0600 
    210 H210       -1.1925  -24.5732  -50.2864 H         1 UNK         0.3000 
    211 H211       -1.4175  -23.6467  -53.0026 H         1 UNK         0.0600 
    212 H212       -0.3420  -22.2716  -50.4809 H         1 UNK         0.0600 
    213 H213       -0.1179  -21.6979  -52.1275 H         1 UNK         0.0600 
    214 H214        0.6025  -23.2203  -51.6262 H         1 UNK         0.0600 
    215 H215       -3.0798  -22.9269  -49.9666 H         1 UNK         0.3000 
    216 H216       -4.5660  -20.6195  -50.8591 H         1 UNK         0.0600 
    217 H217       -5.8819  -21.0490  -48.7760 H         1 UNK         0.0600 
    218 H218       -4.1617  -21.1104  -48.4434 H         1 UNK         0.0600 
    219 H219       -5.0885  -22.6032  -48.5785 H         1 UNK         0.0600 
    220 H220       -4.9676  -24.0460  -51.3980 H         1 UNK         0.3000 
    221 H221       -7.8059  -23.7948  -52.2227 H         1 UNK         0.0600 
    222 H222       -5.9431  -26.2281  -52.1847 H         1 UNK         0.0600 
    223 H223       -7.1223  -25.8192  -50.9404 H         1 UNK         0.0600 
    224 H224       -7.6588  -26.2326  -52.5613 H         1 UNK         0.0600 
    225 H225       -4.5280  -24.3837  -53.5419 H         1 UNK         0.3000 
    226 H226       -5.2904  -24.7584  -56.2396 H         1 UNK         0.0600 
    227 H227       -2.8601  -24.4954  -56.6838 H         1 UNK         0.0600 
    228 H228       -2.6115  -23.8465  -55.0684 H         1 UNK         0.0600 
    229 H229       -3.1265  -25.5191  -55.2797 H         1 UNK         0.0600 
    230 H230       -4.1815  -21.7745  -54.5252 H         1 UNK         0.3000 
    231 H231       -5.4912  -20.0266  -56.3950 H         1 UNK         0.0600 
    232 H232       -2.4149  -20.0963  -56.4393 H         1 UNK         0.0600 
    233 H233       -3.4297  -18.9076  -57.2628 H         1 UNK         0.0600 
    234 H234       -3.4582  -20.5777  -57.7701 H         1 UNK         0.0600 
    235 H235       -3.1323  -18.1305  -55.4892 H         1 UNK         0.3000 
    236 H236       -2.7387  -16.5776  -53.9823 H         1 UNK         0.0600 
    237 H237       -1.8469  -18.4598  -52.6563 H         1 UNK         0.0600 
    238 H238       -2.5304  -17.2362  -51.6013 H         1 UNK         0.0600 
    239 H239       -3.4120  -18.7329  -51.9066 H         1 UNK         0.0600 
    240 H240       -4.7676  -17.2733  -51.3862 H         1 UNK         0.3000 
    241 H241       -6.2498  -14.8883  -51.6023 H         1 UNK         0.0600 
    242 H242       -9.5822  -15.6220  -52.6356 H         1 UNK         0.3800 
    243 H243       -8.6147  -14.5323  -51.6852 H         1 UNK         0.3800 
    244 H244       -7.4631  -15.8101  -49.5428 H         1 UNK         0.0800 
    245 H245       -5.7390  -15.6584  -49.4311 H         1 UNK         0.0800 
    246 H246       -5.5761  -18.8933  -47.4067 H         1 UNK         0.0800 
    247 H247       -6.2329  -17.2954  -47.1707 H         1 UNK         0.0800 
@<TRIPOS>BOND
     1    1    2 1    
     2    1  127 1    
     3    1  128 1    
     4    1  129 1    
     5    2    3 2    
     6    2    4 am   BACKBONE|DICT|INTERRES
     7    4    5 1    
     8    4  130 1    
     9    5    6 1    
    10    5   65 1    
    11    5  131 1    
    12    6    7 1    
    13    6  132 1    
    14    6  133 1    
    15    7    8 1    
    16    8    9 1    
    17    8  134 1    
    18    8  135 1    
    19    9   10 ar   
    20    9   14 ar   
    21   10   11 ar   
    22   10  136 1    
    23   11   12 ar   
    24   11  126 1    
    25   12   13 ar   
    26   12  137 1    
    27   13   14 ar   
    28   13   15 1    
    29   14  138 1    
    30   15   16 1    
    31   15  139 1    
    32   15  140 1    
    33   16   17 1    
    34   17   18 1    
    35   17  141 1    
    36   17  142 1    
    37   18   19 1    
    38   18   67 1    
    39   18  143 1    
    40   19   20 am   BACKBONE|DICT|INTERRES
    41   19  144 1    
    42   20   21 2    
    43   20   22 1    
    44   22   23 1    
    45   22   24 1    
    46   22  145 1    
    47   23  146 1    
    48   23  147 1    
    49   23  148 1    
    50   24   25 am   BACKBONE|DICT|INTERRES
    51   24  149 1    
    52   25   26 2    
    53   25   27 1    
    54   27   28 1    
    55   27   29 1    
    56   27  150 1    
    57   28  151 1    
    58   28  152 1    
    59   28  153 1    
    60   29   30 am   BACKBONE|DICT|INTERRES
    61   29  154 1    
    62   30   31 2    
    63   30   32 1    
    64   32   33 1    
    65   32   34 1    
    66   32  155 1    
    67   33  156 1    
    68   33  157 1    
    69   33  158 1    
    70   34   35 am   BACKBONE|DICT|INTERRES
    71   34  159 1    
    72   35   36 2    
    73   35   37 1    
    74   37   38 1    
    75   37   39 1    
    76   37  160 1    
    77   38  161 1    
    78   38  162 1    
    79   38  163 1    
    80   39   40 am   BACKBONE|DICT|INTERRES
    81   39  164 1    
    82   40   41 2    
    83   40   42 1    
    84   42   43 1    
    85   42   44 1    
    86   42  165 1    
    87   43  166 1    
    88   43  167 1    
    89   43  168 1    
    90   44   45 am   BACKBONE|DICT|INTERRES
    91   44  169 1    
    92   45   46 2    
    93   45   47 1    
    94   47   48 1    
    95   47   49 1    
    96   47  170 1    
    97   48  171 1    
    98   48  172 1    
    99   48  173 1    
   100   49   50 am   BACKBONE|DICT|INTERRES
   101   49  174 1    
   102   50   51 2    
   103   50   52 1    
   104   52   53 1    
   105   52   54 1    
   106   52  175 1    
   107   53  176 1    
   108   53  177 1    
   109   53  178 1    
   110   54   55 am   BACKBONE|DICT|INTERRES
   111   54  179 1    
   112   55   56 2    
   113   55   57 1    
   114   57   58 1    
   115   57   59 1    
   116   57  180 1    
   117   58  181 1    
   118   58  182 1    
   119   58  183 1    
   120   59   60 am   BACKBONE|DICT|INTERRES
   121   59  184 1    
   122   60   61 2    
   123   60   62 1    
   124   62   63 1    
   125   62   64 1    
   126   62  185 1    
   127   63  186 1    
   128   63  187 1    
   129   63  188 1    
   130   64   65 am   BACKBONE|DICT|INTERRES
   131   64  189 1    
   132   65   66 2    
   133   67   68 2    
   134   67   69 am   BACKBONE|DICT|INTERRES
   135   69   70 1    
   136   69  190 1    
   137   70   71 1    
   138   70   72 1    
   139   70  191 1    
   140   71  192 1    
   141   71  193 1    
   142   71  194 1    
   143   72   73 2    
   144   72   74 am   BACKBONE|DICT|INTERRES
   145   74   75 1    
   146   74  195 1    
   147   75   76 1    
   148   75   77 1    
   149   75  196 1    
   150   76  197 1    
   151   76  198 1    
   152   76  199 1    
   153   77   78 2    
   154   77   79 am   BACKBONE|DICT|INTERRES
   155   79   80 1    
   156   79  200 1    
   157   80   81 1    
   158   80   82 1    
   159   80  201 1    
   160   81  202 1    
   161   81  203 1    
   162   81  204 1    
   163   82   83 2    
   164   82   84 am   BACKBONE|DICT|INTERRES
   165   84   85 1    
   166   84  205 1    
   167   85   86 1    
   168   85   87 1    
   169   85  206 1    
   170   86  207 1    
   171   86  208 1    
   172   86  209 1    
   173   87   88 2    
   174   87   89 am   BACKBONE|DICT|INTERRES
   175   89   90 1    
   176   89  210 1    
   177   90   91 1    
   178   90   92 1    
   179   90  211 1    
   180   91  212 1    
   181   91  213 1    
   182   91  214 1    
   183   92   93 2    
   184   92   94 am   BACKBONE|DICT|INTERRES
   185   94   95 1    
   186   94  215 1    
   187   95   96 1    
   188   95   97 1    
   189   95  216 1    
   190   96  217 1    
   191   96  218 1    
   192   96  219 1    
   193   97   98 2    
   194   97   99 am   BACKBONE|DICT|INTERRES
   195   99  100 1    
   196   99  220 1    
   197  100  101 1    
   198  100  102 1    
   199  100  221 1    
   200  101  222 1    
   201  101  223 1    
   202  101  224 1    
   203  102  103 2    
   204  102  104 am   BACKBONE|DICT|INTERRES
   205  104  105 1    
   206  104  225 1    
   207  105  106 1    
   208  105  107 1    
   209  105  226 1    
   210  106  227 1    
   211  106  228 1    
   212  106  229 1    
   213  107  108 2    
   214  107  109 am   BACKBONE|DICT|INTERRES
   215  109  110 1    
   216  109  230 1    
   217  110  111 1    
   218  110  112 1    
   219  110  231 1    
   220  111  232 1    
   221  111  233 1    
   222  111  234 1    
   223  112  113 2    
   224  112  114 am   BACKBONE|DICT|INTERRES
   225  114  115 1    
   226  114  235 1    
   227  115  116 1    
   228  115  117 1    
   229  115  236 1    
   230  116  237 1    
   231  116  238 1    
   232  116  239 1    
   233  117  118 2    
   234  117  119 am   BACKBONE|DICT|INTERRES
   235  119  120 1    
   236  119  240 1    
   237  120  121 1    
   238  120  124 1    
   239  120  241 1    
   240  121  122 am   BACKBONE|DICT|INTERRES
   241  121  123 2    
   242  122  242 1    
   243  122  243 1    
   244  124  125 1    
   245  124  244 1    
   246  124  245 1    
   247  125  126 1    
   248  126  246 1    
   249  126  247 1    
@<TRIPOS>SUBSTRUCTURE
     1 UNK         1 GROUP             0       ****    0 ROOT    
