@<TRIPOS>MOLECULE
3R540
247   249    1
SMALL
USER_CHARGES


@<TRIPOS>ATOM
      1 CA          3.7875  -13.2545  -51.8637 C.3       0 UNK        -0.1800 
      2 C           3.3348  -12.5283  -50.6048 C.2       0 UNK         0.5000 
      3 O           3.3373  -11.2976  -50.5774 O.2       0 UNK        -0.5000 
      4 N           2.9529  -13.2893  -49.5692 N.am      1 UNK        -0.5000 
      5 CA          2.4660  -12.8117  -48.2652 C.3       1 UNK         0.1400 
      6 C6          1.1074  -12.0576  -48.3338 C.3       23 UNK        -0.0398 
      7 S7         -0.2068  -13.0608  -49.1066 S.3       23 UNK        -0.2404 
      8 C8         -0.9122  -13.8774  -47.6428 C.3       23 UNK        -0.0205 
      9 C9         -1.5447  -15.2090  -48.0084 C.ar      23 UNK        -0.0193 
     10 C10        -2.9320  -15.3623  -48.0022 C.ar      23 UNK        -0.1150 
     11 C11        -3.5083  -16.5940  -48.3228 C.ar      23 UNK        -0.0193 
     12 C12        -2.6850  -17.6713  -48.6623 C.ar      23 UNK        -0.1150 
     13 C13        -1.2895  -17.5344  -48.6781 C.ar      23 UNK        -0.0193 
     14 C14        -0.7336  -16.2977  -48.3390 C.ar      23 UNK        -0.1150 
     15 C15        -0.3354  -18.6879  -48.9991 C.3       23 UNK        -0.0205 
     16 S16        -1.0301  -20.0629  -49.9746 S.3       23 UNK        -0.2404 
     17 C17        -1.9667  -20.9945  -48.7192 C.3       23 UNK        -0.0398 
     18 CA         -1.2572  -22.2984  -48.2862 C.3       11 UNK         0.1400 
     19 N          -0.1910  -22.0396  -47.3116 N.am      11 UNK        -0.5000 
     20 C           0.6726  -22.9560  -46.8524 C.2       10 UNK         0.5000 
     21 O           0.6997  -24.1248  -47.2317 O.2       10 UNK        -0.5000 
     22 CA          1.6263  -22.5012  -45.7362 C.3       10 UNK         0.1400 
     23 CB          2.7908  -21.6794  -46.3089 C.3       10 UNK        -0.1800 
     24 N           0.9268  -21.7291  -44.7086 N.am      10 UNK        -0.5000 
     25 C           0.0381  -22.2572  -43.8520 C.2       9 UNK         0.5000 
     26 O          -0.2600  -23.4512  -43.8308 O.2       9 UNK        -0.5000 
     27 CA         -0.6716  -21.2906  -42.8834 C.3       9 UNK         0.1400 
     28 CB          0.1394  -21.1336  -41.5893 C.3       9 UNK        -0.1800 
     29 N          -0.9147  -19.9696  -43.4606 N.am      9 UNK        -0.5000 
     30 C          -1.6565  -19.7331  -44.5521 C.2       8 UNK         0.5000 
     31 O          -2.2730  -20.6074  -45.1609 O.2       8 UNK        -0.5000 
     32 CA         -1.6614  -18.2950  -45.0987 C.3       8 UNK         0.1400 
     33 CB         -2.9414  -17.5563  -44.6864 C.3       8 UNK        -0.1800 
     34 N          -0.4860  -17.5056  -44.7189 N.am      8 UNK        -0.5000 
     35 C           0.7796  -17.8035  -45.0572 C.2       7 UNK         0.5000 
     36 O           1.0878  -18.8009  -45.7093 O.2       7 UNK        -0.5000 
     37 CA          1.8944  -16.8628  -44.5600 C.3       7 UNK         0.1400 
     38 CB          2.3427  -15.9254  -45.6898 C.3       7 UNK        -0.1800 
     39 N           1.5034  -16.0708  -43.3919 N.am      7 UNK        -0.5000 
     40 C           1.2859  -16.5869  -42.1714 C.2       6 UNK         0.5000 
     41 O           1.4399  -17.7790  -41.9037 O.2       6 UNK        -0.5000 
     42 CA          0.7734  -15.6330  -41.0741 C.3       6 UNK         0.1400 
     43 CB          1.9131  -15.2385  -40.1239 C.3       6 UNK        -0.1800 
     44 N           0.1323  -14.4253  -41.6016 N.am      6 UNK        -0.5000 
     45 C          -1.0284  -14.4203  -42.2751 C.2       5 UNK         0.5000 
     46 O          -1.6784  -15.4394  -42.5042 O.2       5 UNK        -0.5000 
     47 CA         -1.5382  -13.0698  -42.8166 C.3       5 UNK         0.1400 
     48 CB         -2.6119  -12.4895  -41.8842 C.3       5 UNK        -0.1800 
     49 N          -0.4901  -12.0663  -43.0191 N.am      5 UNK        -0.5000 
     50 C           0.5359  -12.1858  -43.8711 C.2       4 UNK         0.5000 
     51 O           0.7195  -13.1820  -44.5744 O.2       4 UNK        -0.5000 
     52 CA          1.5412  -11.0185  -43.9467 C.3       4 UNK         0.1400 
     53 CB          1.3583   -9.9362  -42.8581 C.3       4 UNK        -0.1800 
     54 N           2.9156  -11.5229  -43.9653 N.am      4 UNK        -0.5000 
     55 C           3.5248  -12.2440  -43.0110 C.2       3 UNK         0.5000 
     56 O           3.0164  -12.4774  -41.9138 O.2       3 UNK        -0.5000 
     57 CA          4.9139  -12.8331  -43.3405 C.3       3 UNK         0.1400 
     58 CB          5.0320  -14.2916  -42.8620 C.3       3 UNK        -0.1800 
     59 N           5.2066  -12.7861  -44.7756 N.am      3 UNK        -0.5000 
     60 C           5.9110  -11.8280  -45.3918 C.2       2 UNK         0.5000 
     61 O           6.4628  -10.8966  -44.8055 O.2       2 UNK        -0.5000 
     62 CA          5.9798  -11.9058  -46.9307 C.3       2 UNK         0.1400 
     63 CB          7.2344  -12.6725  -47.3753 C.3       2 UNK        -0.1800 
     64 N           4.7992  -12.5193  -47.5512 N.am      2 UNK        -0.5000 
     65 C           3.5524  -12.0255  -47.4958 C.2       1 UNK         0.5000 
     66 O           3.2588  -11.0078  -46.8670 O.2       1 UNK        -0.5000 
     67 C          -2.2868  -23.3091  -47.7431 C.2       11 UNK         0.5000 
     68 O          -2.6990  -24.2150  -48.4747 O.2       11 UNK        -0.5000 
     69 N          -2.6683  -23.1413  -46.4683 N.am      12 UNK        -0.5000 
     70 CA         -3.5798  -24.0246  -45.7473 C.3       12 UNK         0.1400 
     71 CB         -3.8884  -23.4461  -44.3588 C.3       12 UNK        -0.1800 
     72 C          -3.0406  -25.4611  -45.6448 C.2       12 UNK         0.5000 
     73 O          -3.7532  -26.4013  -45.9985 O.2       12 UNK        -0.5000 
     74 N          -1.7793  -25.5929  -45.2107 N.am      13 UNK        -0.5000 
     75 CA         -1.0704  -26.8666  -45.0928 C.3       13 UNK         0.1400 
     76 CB          0.2557  -26.6436  -44.3501 C.3       13 UNK        -0.1800 
     77 C          -0.8185  -27.5552  -46.4466 C.2       13 UNK         0.5000 
     78 O          -0.8806  -28.7835  -46.5139 O.2       13 UNK        -0.5000 
     79 N          -0.5336  -26.7626  -47.4899 N.am      14 UNK        -0.5000 
     80 CA         -0.2540  -27.2411  -48.8416 C.3       14 UNK         0.1400 
     81 CB          0.2898  -26.0936  -49.7087 C.3       14 UNK        -0.1800 
     82 C          -1.4687  -27.9018  -49.5121 C.2       14 UNK         0.5000 
     83 O          -1.3617  -29.0508  -49.9449 O.2       14 UNK        -0.5000 
     84 N          -2.5874  -27.1694  -49.6087 N.am      15 UNK        -0.5000 
     85 CA         -3.7565  -27.6002  -50.3813 C.3       15 UNK         0.1400 
     86 CB         -3.4595  -27.4829  -51.8948 C.3       15 UNK        -0.1800 
     87 C          -5.0392  -26.8445  -49.9954 C.2       15 UNK         0.5000 
     88 O          -5.9043  -26.6631  -50.8516 O.2       15 UNK        -0.5000 
     89 N          -5.1556  -26.3785  -48.7414 N.am      16 UNK        -0.5000 
     90 CA         -6.2870  -25.5797  -48.2359 C.3       16 UNK         0.1400 
     91 CB         -7.5691  -26.4358  -48.1584 C.3       16 UNK        -0.1800 
     92 C          -6.4943  -24.2600  -49.0212 C.2       16 UNK         0.5000 
     93 O          -7.6271  -23.8045  -49.1823 O.2       16 UNK        -0.5000 
     94 N          -5.3838  -23.7025  -49.5273 N.am      17 UNK        -0.5000 
     95 CA         -5.2636  -22.5458  -50.4210 C.3       17 UNK         0.1400 
     96 CB         -5.8000  -21.2619  -49.7556 C.3       17 UNK        -0.1800 
     97 C          -5.8220  -22.7458  -51.8469 C.2       17 UNK         0.5000 
     98 O          -5.8165  -21.7870  -52.6233 O.2       17 UNK        -0.5000 
     99 N          -6.2390  -23.9696  -52.2086 N.am      18 UNK        -0.5000 
    100 CA        -6.6300  -24.3261  -53.5743 C.3       18 UNK         0.1400 
    101 CB        -7.2918  -25.7116  -53.5862 C.3       18 UNK        -0.1800 
    102 C         -5.4111  -24.2994  -54.5130 C.2       18 UNK         0.5000 
    103 O         -4.2983  -24.6086  -54.0797 O.2       18 UNK        -0.5000 
    104 N         -5.6368  -23.8875  -55.7671 N.am      19 UNK        -0.5000 
    105 CA        -4.6588  -23.6440  -56.8400 C.3       19 UNK         0.1400 
    106 CB        -3.8584  -24.9149  -57.1853 C.3       19 UNK        -0.1800 
    107 C         -3.7231  -22.4414  -56.5873 C.2       19 UNK         0.5000 
    108 O         -3.4292  -21.7053  -57.5298 O.2       19 UNK        -0.5000 
    109 N         -3.2959  -22.2420  -55.3332 N.am      20 UNK        -0.5000 
    110 CA        -2.5333  -21.0856  -54.8641 C.3       20 UNK         0.1400 
    111 CB        -2.0524  -21.3404  -53.4264 C.3       20 UNK        -0.1800 
    112 C         -3.3530  -19.7853  -54.9469 C.2       20 UNK         0.5000 
    113 O         -2.8484  -18.7831  -55.4526 O.2       20 UNK        -0.5000 
    114 N         -4.6082  -19.8467  -54.4732 N.am      21 UNK        -0.5000 
    115 CA        -5.6425  -18.8063  -54.5395 C.3       21 UNK         0.1400 
    116 CB        -6.0418  -18.5357  -56.0054 C.3       21 UNK        -0.1800 
    117 C         -5.3178  -17.5096  -53.7630 C.2       21 UNK         0.5000 
    118 O         -5.9496  -16.4818  -54.0156 O.2       21 UNK        -0.5000 
    119 N         -4.3773  -17.5940  -52.8120 N.am      22 UNK        -0.5000 
    120 CA        -3.9032  -16.5172  -51.9236 C.3       22 UNK         0.1400 
    121 C         -3.1024  -15.3858  -52.6349 C.2       22 UNK         0.5000 
    122 N         -2.4377  -14.5264  -51.8729 N.am      22 UNK        -0.7600 
    123 O         -3.0493  -15.2759  -53.8575 O.2       22 UNK        -0.5000 
    124 C124       -5.0284  -15.9496  -51.0091 C.3       23 UNK        -0.0398 
    125 S125       -5.7200  -17.2336  -49.9092 S.3       23 UNK        -0.2404 
    126 C126       -5.0225  -16.7599  -48.2927 C.3       23 UNK        -0.0205 
    127 H127        3.7329  -14.3374  -51.7501 H         1 UNK         0.0600 
    128 H128        4.8179  -12.9888  -52.1001 H         1 UNK         0.0600 
    129 H129        3.1585  -12.9696  -52.7071 H         1 UNK         0.0600 
    130 H130        2.9698  -14.2935  -49.6777 H         1 UNK         0.3000 
    131 H131        2.2983  -13.7097  -47.6707 H         1 UNK         0.0600 
    132 H132        1.2105  -11.1317  -48.9013 H         1 UNK         0.0800 
    133 H133        0.7763  -11.7631  -47.3362 H         1 UNK         0.0800 
    134 H134       -0.1347  -14.0525  -46.9021 H         1 UNK         0.0800 
    135 H135       -1.6373  -13.2119  -47.1721 H         1 UNK         0.0800 
    136 H136       -3.5623  -14.5243  -47.7398 H         1 UNK         0.1150 
    137 H137       -3.1545  -18.6079  -48.9171 H         1 UNK         0.1150 
    138 H138        0.3407  -16.1774  -48.3321 H         1 UNK         0.1150 
    139 H139        0.5138  -18.2948  -49.5599 H         1 UNK         0.0800 
    140 H140        0.0735  -19.0829  -48.0704 H         1 UNK         0.0800 
    141 H141       -2.9370  -21.2009  -49.1664 H         1 UNK         0.0800 
    142 H142       -2.1737  -20.3685  -47.8508 H         1 UNK         0.0800 
    143 H143       -0.8010  -22.7592  -49.1650 H         1 UNK         0.0600 
    144 H144       -0.1506  -21.1110  -46.9187 H         1 UNK         0.3000 
    145 H145        2.0430  -23.3946  -45.2657 H         1 UNK         0.0600 
    146 H146        3.4747  -21.3614  -45.5219 H         1 UNK         0.0600 
    147 H147        3.3671  -22.2700  -47.0220 H         1 UNK         0.0600 
    148 H148        2.4427  -20.7880  -46.8313 H         1 UNK         0.0600 
    149 H149        1.0778  -20.7275  -44.7112 H         1 UNK         0.3000 
    150 H150       -1.6401  -21.7248  -42.6291 H         1 UNK         0.0600 
    151 H151       -0.3875  -20.5111  -40.8660 H         1 UNK         0.0600 
    152 H152        1.1123  -20.6773  -41.7774 H         1 UNK         0.0600 
    153 H153        0.3152  -22.1017  -41.1182 H         1 UNK         0.0600 
    154 H154       -0.4235  -19.1939  -43.0378 H         1 UNK         0.3000 
    155 H155       -1.6578  -18.3799  -46.1825 H         1 UNK         0.0600 
    156 H156       -3.8262  -18.0782  -45.0531 H         1 UNK         0.0600 
    157 H157       -2.9660  -16.5476  -45.0992 H         1 UNK         0.0600 
    158 H158       -3.0304  -17.4809  -43.6023 H         1 UNK         0.0600 
    159 H159       -0.6602  -16.6889  -44.1474 H         1 UNK         0.3000 
    160 H160        2.7462  -17.4850  -44.2776 H         1 UNK         0.0600 
    161 H161        1.5202  -15.2999  -46.0294 H         1 UNK         0.0600 
    162 H162        2.6992  -16.4929  -46.5504 H         1 UNK         0.0600 
    163 H163        3.1531  -15.2712  -45.3720 H         1 UNK         0.0600 
    164 H164        1.3207  -15.0869  -43.5493 H         1 UNK         0.3000 
    165 H165        0.0265  -16.1788  -40.4937 H         1 UNK         0.0600 
    166 H166        1.5613  -14.5733  -39.3352 H         1 UNK         0.0600 
    167 H167        2.3378  -16.1192  -39.6406 H         1 UNK         0.0600 
    168 H168        2.7230  -14.7371  -40.6521 H         1 UNK         0.0600 
    169 H169        0.6324  -13.5549  -41.4821 H         1 UNK         0.3000 
    170 H170       -1.9985  -13.2665  -43.7872 H         1 UNK         0.0600 
    171 H171       -3.4251  -13.2010  -41.7336 H         1 UNK         0.0600 
    172 H172       -2.2030  -12.2458  -40.9028 H         1 UNK         0.0600 
    173 H173       -3.0498  -11.5826  -42.3016 H         1 UNK         0.0600 
    174 H174       -0.5589  -11.2256  -42.4641 H         1 UNK         0.3000 
    175 H175        1.3762  -10.5422  -44.9137 H         1 UNK         0.0600 
    176 H176        1.4341  -10.3446  -41.8498 H         1 UNK         0.0600 
    177 H177        2.1158   -9.1583  -42.9548 H         1 UNK         0.0600 
    178 H178        0.3885   -9.4456  -42.9476 H         1 UNK         0.0600 
    179 H179        3.3923  -11.3997  -44.8508 H         1 UNK         0.3000 
    180 H180        5.6496  -12.2418  -42.7918 H         1 UNK         0.0600 
    181 H181        4.2564  -14.9247  -43.2921 H         1 UNK         0.0600 
    182 H182        4.9415  -14.3561  -41.7772 H         1 UNK         0.0600 
    183 H183        5.9996  -14.7174  -43.1279 H         1 UNK         0.0600 
    184 H184        4.7865  -13.5060  -45.3444 H         1 UNK         0.3000 
    185 H185        6.0552  -10.8827  -47.3051 H         1 UNK         0.0600 
    186 H186        8.1356  -12.2260  -46.9528 H         1 UNK         0.0600 
    187 H187        7.2038  -13.7149  -47.0557 H         1 UNK         0.0600 
    188 H188        7.3438  -12.6558  -48.4599 H         1 UNK         0.0600 
    189 H189        4.9615  -13.3486  -48.1040 H         1 UNK         0.3000 
    190 H190       -2.3306  -22.3297  -45.9573 H         1 UNK         0.3000 
    191 H191       -4.5116  -24.0439  -46.3087 H         1 UNK         0.0600 
    192 H192       -4.3135  -22.4450  -44.4338 H         1 UNK         0.0600 
    193 H193       -4.6119  -24.0680  -43.8305 H         1 UNK         0.0600 
    194 H194       -2.9955  -23.3847  -43.7380 H         1 UNK         0.0600 
    195 H195       -1.2681  -24.7651  -44.9183 H         1 UNK         0.3000 
    196 H196       -1.6879  -27.5370  -44.4916 H         1 UNK         0.0600 
    197 H197        0.8042  -27.5795  -44.2362 H         1 UNK         0.0600 
    198 H198        0.0848  -26.2433  -43.3506 H         1 UNK         0.0600 
    199 H199        0.9016  -25.9451  -44.8839 H         1 UNK         0.0600 
    200 H200       -0.4270  -25.7655  -47.3328 H         1 UNK         0.3000 
    201 H201        0.5305  -27.9973  -48.7681 H         1 UNK         0.0600 
    202 H202        1.2436  -25.7308  -49.3260 H         1 UNK         0.0600 
    203 H203       -0.3996  -25.2498  -49.7448 H         1 UNK         0.0600 
    204 H204        0.4597  -26.4234  -50.7345 H         1 UNK         0.0600 
    205 H205       -2.6036  -26.2292  -49.2271 H         1 UNK         0.3000 
    206 H206       -3.9564  -28.6488  -50.1520 H         1 UNK         0.0600 
    207 H207       -2.5939  -28.0766  -52.1872 H         1 UNK         0.0600 
    208 H208       -4.2978  -27.8380  -52.4954 H         1 UNK         0.0600 
    209 H209       -3.2663  -26.4484  -52.1813 H         1 UNK         0.0600 
    210 H210       -4.4239  -26.5731  -48.0671 H         1 UNK         0.3000 
    211 H211       -6.0424  -25.2991  -47.2141 H         1 UNK         0.0600 
    212 H212       -7.9435  -26.7022  -49.1471 H         1 UNK         0.0600 
    213 H213       -8.3664  -25.8988  -47.6431 H         1 UNK         0.0600 
    214 H214       -7.3930  -27.3588  -47.6061 H         1 UNK         0.0600 
    215 H215       -4.5021  -24.1537  -49.3030 H         1 UNK         0.3000 
    216 H216       -4.1920  -22.4168  -50.5690 H         1 UNK         0.0600 
    217 H217       -5.5323  -20.3792  -50.3376 H         1 UNK         0.0600 
    218 H218       -5.3858  -21.1276  -48.7564 H         1 UNK         0.0600 
    219 H219       -6.8865  -21.2748  -49.6686 H         1 UNK         0.0600 
    220 H220       -6.1640  -24.7377  -51.5508 H         1 UNK         0.3000 
    221 H221       -7.3617  -23.5911  -53.9163 H         1 UNK         0.0600 
    222 H222       -6.5746  -26.5029  -53.3663 H         1 UNK         0.0600 
    223 H223       -8.0977  -25.7742  -52.8547 H         1 UNK         0.0600 
    224 H224       -7.7210  -25.9277  -54.5651 H         1 UNK         0.0600 
    225 H225       -6.5862  -23.6388  -56.0091 H         1 UNK         0.3000 
    226 H226       -5.2532  -23.3900  -57.7191 H         1 UNK         0.0600 
    227 H227       -4.5216  -25.7526  -57.4006 H         1 UNK         0.0600 
    228 H228       -3.2406  -24.7535  -58.0695 H         1 UNK         0.0600 
    229 H229       -3.1910  -25.2134  -56.3766 H         1 UNK         0.0600 
    230 H230       -3.5583  -22.9377  -54.6415 H         1 UNK         0.3000 
    231 H231       -1.6564  -20.9751  -55.5054 H         1 UNK         0.0600 
    232 H232       -2.8854  -21.4821  -52.7370 H         1 UNK         0.0600 
    233 H233       -1.4620  -20.4997  -53.0599 H         1 UNK         0.0600 
    234 H234       -1.4210  -22.2274  -53.3728 H         1 UNK         0.0600 
    235 H235       -4.9087  -20.7041  -54.0177 H         1 UNK         0.3000 
    236 H236       -6.5140  -19.2324  -54.0405 H         1 UNK         0.0600 
    237 H237       -6.2852  -19.4625  -56.5252 H         1 UNK         0.0600 
    238 H238       -6.9217  -17.8939  -56.0618 H         1 UNK         0.0600 
    239 H239       -5.2416  -18.0417  -56.5571 H         1 UNK         0.0600 
    240 H240       -3.9146  -18.4830  -52.7007 H         1 UNK         0.3000 
    241 H241       -3.1676  -17.0060  -51.2857 H         1 UNK         0.0600 
    242 H242       -1.9074  -13.7934  -52.3171 H         1 UNK         0.3800 
    243 H243       -2.4153  -14.6091  -50.8682 H         1 UNK         0.3800 
    244 H244       -4.6641  -15.1230  -50.3986 H         1 UNK         0.0800 
    245 H245       -5.8394  -15.5289  -51.6037 H         1 UNK         0.0800 
    246 H246       -5.5067  -15.8410  -47.9588 H         1 UNK         0.0800 
    247 H247       -5.2799  -17.5253  -47.5594 H         1 UNK         0.0800 
@<TRIPOS>BOND
     1    1    2 1    
     2    1  127 1    
     3    1  128 1    
     4    1  129 1    
     5    2    3 2    
     6    2    4 am   BACKBONE|DICT|INTERRES
     7    4    5 1    
     8    4  130 1    
     9    5    6 1    
    10    5   65 1    
    11    5  131 1    
    12    6    7 1    
    13    6  132 1    
    14    6  133 1    
    15    7    8 1    
    16    8    9 1    
    17    8  134 1    
    18    8  135 1    
    19    9   10 ar   
    20    9   14 ar   
    21   10   11 ar   
    22   10  136 1    
    23   11   12 ar   
    24   11  126 1    
    25   12   13 ar   
    26   12  137 1    
    27   13   14 ar   
    28   13   15 1    
    29   14  138 1    
    30   15   16 1    
    31   15  139 1    
    32   15  140 1    
    33   16   17 1    
    34   17   18 1    
    35   17  141 1    
    36   17  142 1    
    37   18   19 1    
    38   18   67 1    
    39   18  143 1    
    40   19   20 am   BACKBONE|DICT|INTERRES
    41   19  144 1    
    42   20   21 2    
    43   20   22 1    
    44   22   23 1    
    45   22   24 1    
    46   22  145 1    
    47   23  146 1    
    48   23  147 1    
    49   23  148 1    
    50   24   25 am   BACKBONE|DICT|INTERRES
    51   24  149 1    
    52   25   26 2    
    53   25   27 1    
    54   27   28 1    
    55   27   29 1    
    56   27  150 1    
    57   28  151 1    
    58   28  152 1    
    59   28  153 1    
    60   29   30 am   BACKBONE|DICT|INTERRES
    61   29  154 1    
    62   30   31 2    
    63   30   32 1    
    64   32   33 1    
    65   32   34 1    
    66   32  155 1    
    67   33  156 1    
    68   33  157 1    
    69   33  158 1    
    70   34   35 am   BACKBONE|DICT|INTERRES
    71   34  159 1    
    72   35   36 2    
    73   35   37 1    
    74   37   38 1    
    75   37   39 1    
    76   37  160 1    
    77   38  161 1    
    78   38  162 1    
    79   38  163 1    
    80   39   40 am   BACKBONE|DICT|INTERRES
    81   39  164 1    
    82   40   41 2    
    83   40   42 1    
    84   42   43 1    
    85   42   44 1    
    86   42  165 1    
    87   43  166 1    
    88   43  167 1    
    89   43  168 1    
    90   44   45 am   BACKBONE|DICT|INTERRES
    91   44  169 1    
    92   45   46 2    
    93   45   47 1    
    94   47   48 1    
    95   47   49 1    
    96   47  170 1    
    97   48  171 1    
    98   48  172 1    
    99   48  173 1    
   100   49   50 am   BACKBONE|DICT|INTERRES
   101   49  174 1    
   102   50   51 2    
   103   50   52 1    
   104   52   53 1    
   105   52   54 1    
   106   52  175 1    
   107   53  176 1    
   108   53  177 1    
   109   53  178 1    
   110   54   55 am   BACKBONE|DICT|INTERRES
   111   54  179 1    
   112   55   56 2    
   113   55   57 1    
   114   57   58 1    
   115   57   59 1    
   116   57  180 1    
   117   58  181 1    
   118   58  182 1    
   119   58  183 1    
   120   59   60 am   BACKBONE|DICT|INTERRES
   121   59  184 1    
   122   60   61 2    
   123   60   62 1    
   124   62   63 1    
   125   62   64 1    
   126   62  185 1    
   127   63  186 1    
   128   63  187 1    
   129   63  188 1    
   130   64   65 am   BACKBONE|DICT|INTERRES
   131   64  189 1    
   132   65   66 2    
   133   67   68 2    
   134   67   69 am   BACKBONE|DICT|INTERRES
   135   69   70 1    
   136   69  190 1    
   137   70   71 1    
   138   70   72 1    
   139   70  191 1    
   140   71  192 1    
   141   71  193 1    
   142   71  194 1    
   143   72   73 2    
   144   72   74 am   BACKBONE|DICT|INTERRES
   145   74   75 1    
   146   74  195 1    
   147   75   76 1    
   148   75   77 1    
   149   75  196 1    
   150   76  197 1    
   151   76  198 1    
   152   76  199 1    
   153   77   78 2    
   154   77   79 am   BACKBONE|DICT|INTERRES
   155   79   80 1    
   156   79  200 1    
   157   80   81 1    
   158   80   82 1    
   159   80  201 1    
   160   81  202 1    
   161   81  203 1    
   162   81  204 1    
   163   82   83 2    
   164   82   84 am   BACKBONE|DICT|INTERRES
   165   84   85 1    
   166   84  205 1    
   167   85   86 1    
   168   85   87 1    
   169   85  206 1    
   170   86  207 1    
   171   86  208 1    
   172   86  209 1    
   173   87   88 2    
   174   87   89 am   BACKBONE|DICT|INTERRES
   175   89   90 1    
   176   89  210 1    
   177   90   91 1    
   178   90   92 1    
   179   90  211 1    
   180   91  212 1    
   181   91  213 1    
   182   91  214 1    
   183   92   93 2    
   184   92   94 am   BACKBONE|DICT|INTERRES
   185   94   95 1    
   186   94  215 1    
   187   95   96 1    
   188   95   97 1    
   189   95  216 1    
   190   96  217 1    
   191   96  218 1    
   192   96  219 1    
   193   97   98 2    
   194   97   99 am   BACKBONE|DICT|INTERRES
   195   99  100 1    
   196   99  220 1    
   197  100  101 1    
   198  100  102 1    
   199  100  221 1    
   200  101  222 1    
   201  101  223 1    
   202  101  224 1    
   203  102  103 2    
   204  102  104 am   BACKBONE|DICT|INTERRES
   205  104  105 1    
   206  104  225 1    
   207  105  106 1    
   208  105  107 1    
   209  105  226 1    
   210  106  227 1    
   211  106  228 1    
   212  106  229 1    
   213  107  108 2    
   214  107  109 am   BACKBONE|DICT|INTERRES
   215  109  110 1    
   216  109  230 1    
   217  110  111 1    
   218  110  112 1    
   219  110  231 1    
   220  111  232 1    
   221  111  233 1    
   222  111  234 1    
   223  112  113 2    
   224  112  114 am   BACKBONE|DICT|INTERRES
   225  114  115 1    
   226  114  235 1    
   227  115  116 1    
   228  115  117 1    
   229  115  236 1    
   230  116  237 1    
   231  116  238 1    
   232  116  239 1    
   233  117  118 2    
   234  117  119 am   BACKBONE|DICT|INTERRES
   235  119  120 1    
   236  119  240 1    
   237  120  121 1    
   238  120  124 1    
   239  120  241 1    
   240  121  122 am   BACKBONE|DICT|INTERRES
   241  121  123 2    
   242  122  242 1    
   243  122  243 1    
   244  124  125 1    
   245  124  244 1    
   246  124  245 1    
   247  125  126 1    
   248  126  246 1    
   249  126  247 1    
@<TRIPOS>SUBSTRUCTURE
     1 UNK         1 GROUP             0       ****    0 ROOT    
