@<TRIPOS>MOLECULE
3R540
247   249    1
SMALL
USER_CHARGES


@<TRIPOS>ATOM
      1 CA          2.4252  -17.7186  -48.6433 C.3       0 UNK        -0.1800 
      2 C           2.2882  -16.3052  -48.0963 C.2       0 UNK         0.5000 
      3 O           1.9965  -16.1307  -46.9156 O.2       0 UNK        -0.5000 
      4 N           2.4996  -15.2915  -48.9446 N.am      1 UNK        -0.5000 
      5 CA          2.3823  -13.8633  -48.6189 C.3       1 UNK         0.1400 
      6 C6          2.0359  -13.0190  -49.8749 C.3       23 UNK        -0.0398 
      7 S7          0.2832  -13.2058  -50.3513 S.3       23 UNK        -0.2404 
      8 C8          0.3311  -14.5719  -51.5531 C.3       23 UNK        -0.0205 
      9 C9         -0.8802  -15.4736  -51.3748 C.ar      23 UNK        -0.0193 
     10 C10        -1.9958  -15.3498  -52.2086 C.ar      23 UNK        -0.1150 
     11 C11        -3.1168  -16.1652  -52.0170 C.ar      23 UNK        -0.0193 
     12 C12        -3.1203  -17.0973  -50.9752 C.ar      23 UNK        -0.1150 
     13 C13        -2.0049  -17.2409  -50.1469 C.ar      23 UNK        -0.0193 
     14 C14        -0.8875  -16.4306  -50.3568 C.ar      23 UNK        -0.1150 
     15 C15        -1.9978  -18.2893  -49.0474 C.3       23 UNK        -0.0205 
     16 S16        -1.9168  -17.5485  -47.3836 S.3       23 UNK        -0.2404 
     17 C17        -2.7266  -18.8478  -46.3915 C.3       23 UNK        -0.0398 
     18 CA         -1.9462  -20.1829  -46.3920 C.3       11 UNK         0.1400 
     19 N          -0.6817  -20.1150  -45.6579 N.am      11 UNK        -0.5000 
     20 C           0.3052  -21.0098  -45.7980 C.2       10 UNK         0.5000 
     21 O           0.2419  -21.9759  -46.5569 O.2       10 UNK        -0.5000 
     22 CA          1.5478  -20.8321  -44.9114 C.3       10 UNK         0.1400 
     23 CB          2.4436  -19.7068  -45.4487 C.3       10 UNK        -0.1800 
     24 N           1.2142  -20.5824  -43.5092 N.am      10 UNK        -0.5000 
     25 C           0.5460  -21.4359  -42.7201 C.2       9 UNK         0.5000 
     26 O           0.1151  -22.5246  -43.1013 O.2       9 UNK        -0.5000 
     27 CA          0.2951  -20.9880  -41.2701 C.3       9 UNK         0.1400 
     28 CB          1.5471  -21.1954  -40.4043 C.3       9 UNK        -0.1800 
     29 N          -0.1251  -19.5900  -41.1973 N.am      9 UNK        -0.5000 
     30 C          -1.3474  -19.1544  -41.5317 C.2       8 UNK         0.5000 
     31 O          -2.2626  -19.8934  -41.8938 O.2       8 UNK        -0.5000 
     32 CA         -1.5726  -17.6306  -41.4949 C.3       8 UNK         0.1400 
     33 CB         -1.8585  -17.1589  -40.0613 C.3       8 UNK        -0.1800 
     34 N          -0.4454  -16.8722  -42.0385 N.am      8 UNK        -0.5000 
     35 C           0.0248  -17.0003  -43.2876 C.2       7 UNK         0.5000 
     36 O          -0.4724  -17.7425  -44.1329 O.2       7 UNK        -0.5000 
     37 CA          1.2968  -16.2125  -43.6333 C.3       7 UNK         0.1400 
     38 CB          0.9459  -14.7856  -44.0755 C.3       7 UNK        -0.1800 
     39 N           2.2645  -16.1670  -42.5390 N.am      7 UNK        -0.5000 
     40 C           2.8587  -17.2304  -41.9812 C.2       6 UNK         0.5000 
     41 O           2.6296  -18.3943  -42.3079 O.2       6 UNK        -0.5000 
     42 CA          3.8517  -16.9433  -40.8452 C.3       6 UNK         0.1400 
     43 CB          5.2229  -16.5365  -41.4071 C.3       6 UNK        -0.1800 
     44 N           3.3524  -15.8887  -39.9654 N.am      6 UNK        -0.5000 
     45 C           2.4784  -16.0866  -38.9704 C.2       5 UNK         0.5000 
     46 O           2.0492  -17.1946  -38.6469 O.2       5 UNK        -0.5000 
     47 CA          1.9891  -14.8339  -38.2176 C.3       5 UNK         0.1400 
     48 CB          2.9335  -14.5031  -37.0521 C.3       5 UNK        -0.1800 
     49 N           1.8525  -13.6535  -39.0745 N.am      5 UNK        -0.5000 
     50 C           0.9496  -13.5331  -40.0569 C.2       4 UNK         0.5000 
     51 O           0.1444  -14.4148  -40.3591 O.2       4 UNK        -0.5000 
     52 CA          0.9733  -12.2187  -40.8634 C.3       4 UNK         0.1400 
     53 CB          0.2217  -11.1141  -40.1048 C.3       4 UNK        -0.1800 
     54 N           2.3010  -11.7197  -41.2520 N.am      4 UNK        -0.5000 
     55 C           3.2802  -12.4364  -41.8203 C.2       3 UNK         0.5000 
     56 O           3.2789  -13.6657  -41.8938 O.2       3 UNK        -0.5000 
     57 CA          4.4739  -11.6600  -42.4085 C.3       3 UNK         0.1400 
     58 CB          5.5886  -11.5216  -41.3612 C.3       3 UNK        -0.1800 
     59 N           5.0066  -12.3575  -43.5832 N.am      3 UNK        -0.5000 
     60 C           4.3311  -12.5290  -44.7286 C.2       2 UNK         0.5000 
     61 O           3.2906  -11.9194  -44.9926 O.2       2 UNK        -0.5000 
     62 CA          4.8965  -13.5734  -45.7173 C.3       2 UNK         0.1400 
     63 CB          5.3574  -14.8574  -44.9994 C.3       2 UNK        -0.1800 
     64 N           3.8812  -13.9552  -46.6956 N.am      2 UNK        -0.5000 
     65 C           3.6393  -13.3625  -47.8690 C.2       1 UNK         0.5000 
     66 O           4.3557  -12.4836  -48.3528 O.2       1 UNK        -0.5000 
     67 C          -2.8392  -21.3477  -45.9299 C.2       11 UNK         0.5000 
     68 O          -3.5573  -21.8986  -46.7638 O.2       11 UNK        -0.5000 
     69 N          -2.7617  -21.7409  -44.6499 N.am      12 UNK        -0.5000 
     70 CA         -3.4445  -22.9301  -44.1333 C.3       12 UNK         0.1400 
     71 CB         -3.3953  -22.9446  -42.5984 C.3       12 UNK        -0.1800 
     72 C          -2.8662  -24.2329  -44.7174 C.2       12 UNK         0.5000 
     73 O          -3.6293  -25.1468  -45.0313 O.2       12 UNK        -0.5000 
     74 N          -1.5366  -24.2813  -44.8783 N.am      13 UNK        -0.5000 
     75 CA         -0.8196  -25.3878  -45.5086 C.3       13 UNK         0.1400 
     76 CB          0.6773  -25.2817  -45.1775 C.3       13 UNK        -0.1800 
     77 C          -1.0462  -25.4465  -47.0311 C.2       13 UNK         0.5000 
     78 O          -1.3057  -26.5272  -47.5619 O.2       13 UNK        -0.5000 
     79 N          -0.9402  -24.2922  -47.7054 N.am      14 UNK        -0.5000 
     80 CA         -1.0868  -24.1659  -49.1573 C.3       14 UNK         0.1400 
     81 CB         -0.5297  -22.8084  -49.6135 C.3       14 UNK        -0.1800 
     82 C          -2.5360  -24.3307  -49.6451 C.2       14 UNK         0.5000 
     83 O          -2.7435  -24.8464  -50.7442 O.2       14 UNK        -0.5000 
     84 N          -3.5040  -23.8641  -48.8420 N.am      15 UNK        -0.5000 
     85 CA         -4.9497  -23.8937  -49.0866 C.3       15 UNK         0.1400 
     86 CB         -5.4763  -25.3405  -48.9883 C.3       15 UNK        -0.1800 
     87 C          -5.3455  -23.1978  -50.4061 C.2       15 UNK         0.5000 
     88 O          -6.1242  -23.7521  -51.1810 O.2       15 UNK        -0.5000 
     89 N          -4.7588  -22.0164  -50.6593 N.am      16 UNK        -0.5000 
     90 CA         -4.8842  -21.2225  -51.8926 C.3       16 UNK         0.1400 
     91 CB         -6.3177  -20.6739  -52.0523 C.3       16 UNK        -0.1800 
     92 C          -4.3918  -21.9907  -53.1397 C.2       16 UNK         0.5000 
     93 O          -5.0447  -21.9724  -54.1847 O.2       16 UNK        -0.5000 
     94 N          -3.2499  -22.6771  -52.9818 N.am      17 UNK        -0.5000 
     95 CA         -2.6186  -23.5842  -53.9468 C.3       17 UNK         0.1400 
     96 CB         -2.0991  -22.8089  -55.1756 C.3       17 UNK        -0.1800 
     97 C          -3.5374  -24.7702  -54.3076 C.2       17 UNK         0.5000 
     98 O          -3.7478  -25.0588  -55.4860 O.2       17 UNK        -0.5000 
     99 N          -4.0744  -25.4188  -53.2635 N.am      18 UNK        -0.5000 
    100 CA        -5.0462  -26.5159  -53.2997 C.3       18 UNK         0.1400 
    101 CB        -4.4108  -27.7918  -53.8908 C.3       18 UNK        -0.1800 
    102 C         -6.3661  -26.1112  -53.9913 C.2       18 UNK         0.5000 
    103 O         -6.8186  -26.7878  -54.9172 O.2       18 UNK        -0.5000 
    104 N         -6.9524  -25.0061  -53.5091 N.am      19 UNK        -0.5000 
    105 CA        -8.2059  -24.3858  -53.9461 C.3       19 UNK         0.1400 
    106 CB        -9.4077  -25.2849  -53.5880 C.3       19 UNK        -0.1800 
    107 C         -8.1825  -23.9592  -55.4280 C.2       19 UNK         0.5000 
    108 O         -9.1226  -24.2463  -56.1730 O.2       19 UNK        -0.5000 
    109 N         -7.0994  -23.2835  -55.8245 N.am      20 UNK        -0.5000 
    110 CA        -6.8846  -22.7405  -57.1616 C.3       20 UNK         0.1400 
    111 CB        -5.5831  -23.3401  -57.7280 C.3       20 UNK        -0.1800 
    112 C         -6.8555  -21.2014  -57.0940 C.2       20 UNK         0.5000 
    113 O         -7.4146  -20.6071  -56.1695 O.2       20 UNK        -0.5000 
    114 N         -6.1999  -20.5745  -58.0776 N.am      21 UNK        -0.5000 
    115 CA        -6.0171  -19.1253  -58.1921 C.3       21 UNK         0.1400 
    116 CB        -6.0168  -18.7529  -59.6860 C.3       21 UNK        -0.1800 
    117 C         -4.7436  -18.6274  -57.4711 C.2       21 UNK         0.5000 
    118 O         -4.1942  -17.5949  -57.8582 O.2       21 UNK        -0.5000 
    119 N         -4.2838  -19.3703  -56.4539 N.am      22 UNK        -0.5000 
    120 CA        -3.0884  -19.0923  -55.6347 C.3       22 UNK         0.1400 
    121 C         -1.7289  -19.2752  -56.3781 C.2       22 UNK         0.5000 
    122 N         -1.6897  -19.9066  -57.5452 N.am      22 UNK        -0.7600 
    123 O         -0.6834  -18.8715  -55.8763 O.2       22 UNK        -0.5000 
    124 C124       -3.1635  -17.7426  -54.8648 C.3       23 UNK        -0.0398 
    125 S125       -4.6625  -17.5967  -53.8333 S.3       23 UNK        -0.2404 
    126 C126       -4.3251  -16.0471  -52.9355 C.3       23 UNK        -0.0205 
    127 H127        1.5516  -18.3113  -48.3700 H         1 UNK         0.0600 
    128 H128        3.3097  -18.1974  -48.2238 H         1 UNK         0.0600 
    129 H129        2.5132  -17.7254  -49.7299 H         1 UNK         0.0600 
    130 H130        2.7943  -15.4975  -49.8875 H         1 UNK         0.3000 
    131 H131        1.5579  -13.7405  -47.9121 H         1 UNK         0.0600 
    132 H132        2.1802  -11.9555  -49.6765 H         1 UNK         0.0800 
    133 H133        2.6905  -13.2602  -50.7138 H         1 UNK         0.0800 
    134 H134        1.2396  -15.1618  -51.4331 H         1 UNK         0.0800 
    135 H135        0.3639  -14.1615  -52.5635 H         1 UNK         0.0800 
    136 H136       -1.9917  -14.6167  -53.0030 H         1 UNK         0.1150 
    137 H137       -3.9885  -17.7238  -50.8259 H         1 UNK         0.1150 
    138 H138       -0.0300  -16.5328  -49.7106 H         1 UNK         0.1150 
    139 H139       -2.8857  -18.9186  -49.1258 H         1 UNK         0.0800 
    140 H140       -1.1381  -18.9455  -49.1903 H         1 UNK         0.0800 
    141 H141       -2.8540  -18.4811  -45.3716 H         1 UNK         0.0800 
    142 H142       -3.7338  -18.9801  -46.7919 H         1 UNK         0.0800 
    143 H143       -1.6953  -20.4199  -47.4260 H         1 UNK         0.0600 
    144 H144       -0.5578  -19.3174  -45.0353 H         1 UNK         0.3000 
    145 H145        2.1177  -21.7627  -44.9487 H         1 UNK         0.0600 
    146 H146        2.7904  -19.9385  -46.4561 H         1 UNK         0.0600 
    147 H147        1.9110  -18.7576  -45.4983 H         1 UNK         0.0600 
    148 H148        3.3261  -19.5666  -44.8245 H         1 UNK         0.0600 
    149 H149        1.5703  -19.7203  -43.1036 H         1 UNK         0.3000 
    150 H150       -0.5024  -21.6121  -40.8609 H         1 UNK         0.0600 
    151 H151        1.3545  -20.9306  -39.3645 H         1 UNK         0.0600 
    152 H152        2.3870  -20.5933  -40.7520 H         1 UNK         0.0600 
    153 H153        1.8629  -22.2392  -40.4213 H         1 UNK         0.0600 
    154 H154        0.5854  -18.9117  -40.9612 H         1 UNK         0.3000 
    155 H155       -2.4476  -17.4104  -42.1098 H         1 UNK         0.0600 
    156 H156       -0.9923  -17.2960  -39.4123 H         1 UNK         0.0600 
    157 H157       -2.6904  -17.7128  -39.6245 H         1 UNK         0.0600 
    158 H158       -2.1259  -16.1022  -40.0413 H         1 UNK         0.0600 
    159 H159       -0.0078  -16.1973  -41.4199 H         1 UNK         0.3000 
    160 H160        1.7846  -16.7206  -44.4633 H         1 UNK         0.0600 
    161 H161        0.2739  -14.8002  -44.9346 H         1 UNK         0.0600 
    162 H162        1.8373  -14.2349  -44.3719 H         1 UNK         0.0600 
    163 H163        0.4531  -14.2286  -43.2797 H         1 UNK         0.0600 
    164 H164        2.5455  -15.2402  -42.2236 H         1 UNK         0.3000 
    165 H165        3.9818  -17.8633  -40.2711 H         1 UNK         0.0600 
    166 H166        5.9516  -16.4075  -40.6068 H         1 UNK         0.0600 
    167 H167        5.6111  -17.3010  -42.0812 H         1 UNK         0.0600 
    168 H168        5.1727  -15.6014  -41.9652 H         1 UNK         0.0600 
    169 H169        3.5805  -14.9382  -40.2293 H         1 UNK         0.3000 
    170 H170        1.0051  -15.0638  -37.8033 H         1 UNK         0.0600 
    171 H171        2.5527  -13.6711  -36.4594 H         1 UNK         0.0600 
    172 H172        3.0396  -15.3567  -36.3812 H         1 UNK         0.0600 
    173 H173        3.9307  -14.2366  -37.4048 H         1 UNK         0.0600 
    174 H174        2.4899  -12.8886  -38.9087 H         1 UNK         0.3000 
    175 H175        0.4298  -12.4070  -41.7904 H         1 UNK         0.0600 
    176 H176        0.7471  -10.8220  -39.1947 H         1 UNK         0.0600 
    177 H177       -0.7765  -11.4462  -39.8156 H         1 UNK         0.0600 
    178 H178        0.0986  -10.2240  -40.7219 H         1 UNK         0.0600 
    179 H179        2.4148  -10.7173  -41.2087 H         1 UNK         0.3000 
    180 H180        4.1415  -10.6653  -42.7123 H         1 UNK         0.0600 
    181 H181        5.2338  -10.9839  -40.4810 H         1 UNK         0.0600 
    182 H182        6.4376  -10.9660  -41.7597 H         1 UNK         0.0600 
    183 H183        5.9507  -12.4951  -41.0272 H         1 UNK         0.0600 
    184 H184        5.8379  -12.9080  -43.4295 H         1 UNK         0.3000 
    185 H185        5.7523  -13.1278  -46.2280 H         1 UNK         0.0600 
    186 H186        4.5553  -15.2896  -44.3989 H         1 UNK         0.0600 
    187 H187        5.6776  -15.6142  -45.7160 H         1 UNK         0.0600 
    188 H188        6.2043  -14.6701  -44.3389 H         1 UNK         0.0600 
    189 H189        3.2304  -14.6804  -46.4095 H         1 UNK         0.3000 
    190 H190       -2.1573  -21.2433  -44.0100 H         1 UNK         0.3000 
    191 H191       -4.4937  -22.8735  -44.4317 H         1 UNK         0.0600 
    192 H192       -2.3720  -22.9538  -42.2240 H         1 UNK         0.0600 
    193 H193       -3.8979  -23.8270  -42.2004 H         1 UNK         0.0600 
    194 H194       -3.8972  -22.0716  -42.1815 H         1 UNK         0.0600 
    195 H195       -0.9748  -23.5077  -44.5383 H         1 UNK         0.3000 
    196 H196       -1.1910  -26.3213  -45.0804 H         1 UNK         0.0600 
    197 H197        1.2346  -26.1088  -45.6190 H         1 UNK         0.0600 
    198 H198        0.8445  -25.3137  -44.1007 H         1 UNK         0.0600 
    199 H199        1.1115  -24.3549  -45.5532 H         1 UNK         0.0600 
    200 H200       -0.6552  -23.4545  -47.2022 H         1 UNK         0.3000 
    201 H201       -0.4901  -24.9504  -49.6275 H         1 UNK         0.0600 
    202 H202        0.5173  -22.6976  -49.3304 H         1 UNK         0.0600 
    203 H203       -1.0831  -21.9776  -49.1756 H         1 UNK         0.0600 
    204 H204       -0.5842  -22.7060  -50.6981 H         1 UNK         0.0600 
    205 H205       -3.2346  -23.3975  -47.9813 H         1 UNK         0.3000 
    206 H206       -5.4141  -23.3177  -48.2852 H         1 UNK         0.0600 
    207 H207       -6.5639  -25.3683  -49.0645 H         1 UNK         0.0600 
    208 H208       -5.0756  -25.9733  -49.7806 H         1 UNK         0.0600 
    209 H209       -5.2067  -25.7907  -48.0327 H         1 UNK         0.0600 
    210 H210       -4.1333  -21.6483  -49.9570 H         1 UNK         0.3000 
    211 H211       -4.2175  -20.3658  -51.7824 H         1 UNK         0.0600 
    212 H212       -6.6216  -20.1045  -51.1743 H         1 UNK         0.0600 
    213 H213       -7.0456  -21.4706  -52.2057 H         1 UNK         0.0600 
    214 H214       -6.3864  -20.0057  -52.9115 H         1 UNK         0.0600 
    215 H215       -2.8274  -22.6692  -52.0653 H         1 UNK         0.3000 
    216 H216       -1.7519  -24.0153  -53.4435 H         1 UNK         0.0600 
    217 H217       -1.5590  -23.4696  -55.8545 H         1 UNK         0.0600 
    218 H218       -1.4096  -22.0194  -54.8776 H         1 UNK         0.0600 
    219 H219       -2.9082  -22.3509  -55.7433 H         1 UNK         0.0600 
    220 H220       -3.7945  -25.1164  -52.3337 H         1 UNK         0.3000 
    221 H221       -5.3001  -26.7301  -52.2605 H         1 UNK         0.0600 
    222 H222       -4.1558  -27.6704  -54.9439 H         1 UNK         0.0600 
    223 H223       -3.5015  -28.0630  -53.3546 H         1 UNK         0.0600 
    224 H224       -5.0955  -28.6374  -53.8166 H         1 UNK         0.0600 
    225 H225       -6.5038  -24.5354  -52.7232 H         1 UNK         0.3000 
    226 H226       -8.3033  -23.4654  -53.3685 H         1 UNK         0.0600 
    227 H227       -9.4093  -25.5346  -52.5270 H         1 UNK         0.0600 
    228 H228      -10.3504  -24.7807  -53.8031 H         1 UNK         0.0600 
    229 H229       -9.3992  -26.2179  -54.1524 H         1 UNK         0.0600 
    230 H230       -6.4006  -23.0174  -55.1355 H         1 UNK         0.3000 
    231 H231       -7.7048  -23.0142  -57.8276 H         1 UNK         0.0600 
    232 H232       -4.7081  -22.9889  -57.1808 H         1 UNK         0.0600 
    233 H233       -5.5949  -24.4285  -57.6630 H         1 UNK         0.0600 
    234 H234       -5.4460  -23.0879  -58.7797 H         1 UNK         0.0600 
    235 H235       -5.7552  -21.1341  -58.7909 H         1 UNK         0.3000 
    236 H236       -6.8623  -18.6159  -57.7249 H         1 UNK         0.0600 
    237 H237       -5.1632  -19.1865  -60.2084 H         1 UNK         0.0600 
    238 H238       -6.9246  -19.1011  -60.1791 H         1 UNK         0.0600 
    239 H239       -5.9731  -17.6718  -59.8238 H         1 UNK         0.0600 
    240 H240       -4.8134  -20.1874  -56.1837 H         1 UNK         0.3000 
    241 H241       -3.0805  -19.8781  -54.8798 H         1 UNK         0.0600 
    242 H242       -0.8051  -20.0295  -58.0121 H         1 UNK         0.3800 
    243 H243       -2.5344  -20.2486  -57.9725 H         1 UNK         0.3800 
    244 H244       -2.2968  -17.6417  -54.2100 H         1 UNK         0.0800 
    245 H245       -3.1236  -16.8971  -55.5525 H         1 UNK         0.0800 
    246 H246       -4.1925  -15.2386  -53.6561 H         1 UNK         0.0800 
    247 H247       -5.1998  -15.7873  -52.3379 H         1 UNK         0.0800 
@<TRIPOS>BOND
     1    1    2 1    
     2    1  127 1    
     3    1  128 1    
     4    1  129 1    
     5    2    3 2    
     6    2    4 am   BACKBONE|DICT|INTERRES
     7    4    5 1    
     8    4  130 1    
     9    5    6 1    
    10    5   65 1    
    11    5  131 1    
    12    6    7 1    
    13    6  132 1    
    14    6  133 1    
    15    7    8 1    
    16    8    9 1    
    17    8  134 1    
    18    8  135 1    
    19    9   10 ar   
    20    9   14 ar   
    21   10   11 ar   
    22   10  136 1    
    23   11   12 ar   
    24   11  126 1    
    25   12   13 ar   
    26   12  137 1    
    27   13   14 ar   
    28   13   15 1    
    29   14  138 1    
    30   15   16 1    
    31   15  139 1    
    32   15  140 1    
    33   16   17 1    
    34   17   18 1    
    35   17  141 1    
    36   17  142 1    
    37   18   19 1    
    38   18   67 1    
    39   18  143 1    
    40   19   20 am   BACKBONE|DICT|INTERRES
    41   19  144 1    
    42   20   21 2    
    43   20   22 1    
    44   22   23 1    
    45   22   24 1    
    46   22  145 1    
    47   23  146 1    
    48   23  147 1    
    49   23  148 1    
    50   24   25 am   BACKBONE|DICT|INTERRES
    51   24  149 1    
    52   25   26 2    
    53   25   27 1    
    54   27   28 1    
    55   27   29 1    
    56   27  150 1    
    57   28  151 1    
    58   28  152 1    
    59   28  153 1    
    60   29   30 am   BACKBONE|DICT|INTERRES
    61   29  154 1    
    62   30   31 2    
    63   30   32 1    
    64   32   33 1    
    65   32   34 1    
    66   32  155 1    
    67   33  156 1    
    68   33  157 1    
    69   33  158 1    
    70   34   35 am   BACKBONE|DICT|INTERRES
    71   34  159 1    
    72   35   36 2    
    73   35   37 1    
    74   37   38 1    
    75   37   39 1    
    76   37  160 1    
    77   38  161 1    
    78   38  162 1    
    79   38  163 1    
    80   39   40 am   BACKBONE|DICT|INTERRES
    81   39  164 1    
    82   40   41 2    
    83   40   42 1    
    84   42   43 1    
    85   42   44 1    
    86   42  165 1    
    87   43  166 1    
    88   43  167 1    
    89   43  168 1    
    90   44   45 am   BACKBONE|DICT|INTERRES
    91   44  169 1    
    92   45   46 2    
    93   45   47 1    
    94   47   48 1    
    95   47   49 1    
    96   47  170 1    
    97   48  171 1    
    98   48  172 1    
    99   48  173 1    
   100   49   50 am   BACKBONE|DICT|INTERRES
   101   49  174 1    
   102   50   51 2    
   103   50   52 1    
   104   52   53 1    
   105   52   54 1    
   106   52  175 1    
   107   53  176 1    
   108   53  177 1    
   109   53  178 1    
   110   54   55 am   BACKBONE|DICT|INTERRES
   111   54  179 1    
   112   55   56 2    
   113   55   57 1    
   114   57   58 1    
   115   57   59 1    
   116   57  180 1    
   117   58  181 1    
   118   58  182 1    
   119   58  183 1    
   120   59   60 am   BACKBONE|DICT|INTERRES
   121   59  184 1    
   122   60   61 2    
   123   60   62 1    
   124   62   63 1    
   125   62   64 1    
   126   62  185 1    
   127   63  186 1    
   128   63  187 1    
   129   63  188 1    
   130   64   65 am   BACKBONE|DICT|INTERRES
   131   64  189 1    
   132   65   66 2    
   133   67   68 2    
   134   67   69 am   BACKBONE|DICT|INTERRES
   135   69   70 1    
   136   69  190 1    
   137   70   71 1    
   138   70   72 1    
   139   70  191 1    
   140   71  192 1    
   141   71  193 1    
   142   71  194 1    
   143   72   73 2    
   144   72   74 am   BACKBONE|DICT|INTERRES
   145   74   75 1    
   146   74  195 1    
   147   75   76 1    
   148   75   77 1    
   149   75  196 1    
   150   76  197 1    
   151   76  198 1    
   152   76  199 1    
   153   77   78 2    
   154   77   79 am   BACKBONE|DICT|INTERRES
   155   79   80 1    
   156   79  200 1    
   157   80   81 1    
   158   80   82 1    
   159   80  201 1    
   160   81  202 1    
   161   81  203 1    
   162   81  204 1    
   163   82   83 2    
   164   82   84 am   BACKBONE|DICT|INTERRES
   165   84   85 1    
   166   84  205 1    
   167   85   86 1    
   168   85   87 1    
   169   85  206 1    
   170   86  207 1    
   171   86  208 1    
   172   86  209 1    
   173   87   88 2    
   174   87   89 am   BACKBONE|DICT|INTERRES
   175   89   90 1    
   176   89  210 1    
   177   90   91 1    
   178   90   92 1    
   179   90  211 1    
   180   91  212 1    
   181   91  213 1    
   182   91  214 1    
   183   92   93 2    
   184   92   94 am   BACKBONE|DICT|INTERRES
   185   94   95 1    
   186   94  215 1    
   187   95   96 1    
   188   95   97 1    
   189   95  216 1    
   190   96  217 1    
   191   96  218 1    
   192   96  219 1    
   193   97   98 2    
   194   97   99 am   BACKBONE|DICT|INTERRES
   195   99  100 1    
   196   99  220 1    
   197  100  101 1    
   198  100  102 1    
   199  100  221 1    
   200  101  222 1    
   201  101  223 1    
   202  101  224 1    
   203  102  103 2    
   204  102  104 am   BACKBONE|DICT|INTERRES
   205  104  105 1    
   206  104  225 1    
   207  105  106 1    
   208  105  107 1    
   209  105  226 1    
   210  106  227 1    
   211  106  228 1    
   212  106  229 1    
   213  107  108 2    
   214  107  109 am   BACKBONE|DICT|INTERRES
   215  109  110 1    
   216  109  230 1    
   217  110  111 1    
   218  110  112 1    
   219  110  231 1    
   220  111  232 1    
   221  111  233 1    
   222  111  234 1    
   223  112  113 2    
   224  112  114 am   BACKBONE|DICT|INTERRES
   225  114  115 1    
   226  114  235 1    
   227  115  116 1    
   228  115  117 1    
   229  115  236 1    
   230  116  237 1    
   231  116  238 1    
   232  116  239 1    
   233  117  118 2    
   234  117  119 am   BACKBONE|DICT|INTERRES
   235  119  120 1    
   236  119  240 1    
   237  120  121 1    
   238  120  124 1    
   239  120  241 1    
   240  121  122 am   BACKBONE|DICT|INTERRES
   241  121  123 2    
   242  122  242 1    
   243  122  243 1    
   244  124  125 1    
   245  124  244 1    
   246  124  245 1    
   247  125  126 1    
   248  126  246 1    
   249  126  247 1    
@<TRIPOS>SUBSTRUCTURE
     1 UNK         1 GROUP             0       ****    0 ROOT    
