@<TRIPOS>MOLECULE
3R540
247   249    1
SMALL
USER_CHARGES


@<TRIPOS>ATOM
      1 CA          0.7456  -16.4696  -51.6527 C.3       0 UNK        -0.1800 
      2 C           2.0788  -15.9585  -51.1367 C.2       0 UNK         0.5000 
      3 O           2.3776  -16.1066  -49.9533 O.2       0 UNK        -0.5000 
      4 N           2.8642  -15.3270  -52.0206 N.am      1 UNK        -0.5000 
      5 CA          4.2180  -14.8050  -51.7744 C.3       1 UNK         0.1400 
      6 C6          5.2849  -15.9263  -51.6601 C.3       23 UNK        -0.0398 
      7 S7          5.4336  -16.8715  -53.2170 S.3       23 UNK        -0.2404 
      8 C8          5.4842  -18.5935  -52.6310 C.3       23 UNK        -0.0205 
      9 C9          4.1170  -19.1104  -52.2078 C.ar      23 UNK        -0.0193 
     10 C10         3.1759  -19.4857  -53.1727 C.ar      23 UNK        -0.1150 
     11 C11         1.9375  -20.0099  -52.7897 C.ar      23 UNK        -0.0193 
     12 C12         1.6520  -20.1678  -51.4320 C.ar      23 UNK        -0.1150 
     13 C13         2.5670  -19.7605  -50.4555 C.ar      23 UNK        -0.0193 
     14 C14         3.8030  -19.2431  -50.8521 C.ar      23 UNK        -0.1150 
     15 C15         2.2339  -19.8940  -48.9753 C.3       23 UNK        -0.0205 
     16 S16         0.5779  -19.2468  -48.5799 S.3       23 UNK        -0.2404 
     17 C17         0.3961  -19.7252  -46.8305 C.3       23 UNK        -0.0398 
     18 CA          0.3726  -21.2411  -46.5072 C.3       11 UNK         0.1400 
     19 N           0.1963  -21.4452  -45.0662 N.am      11 UNK        -0.5000 
     20 C           0.2497  -22.6109  -44.4059 C.2       10 UNK         0.5000 
     21 O           0.4725  -23.6960  -44.9438 O.2       10 UNK        -0.5000 
     22 CA         -0.0552  -22.5464  -42.9004 C.3       10 UNK         0.1400 
     23 CB          1.1872  -22.1086  -42.1093 C.3       10 UNK        -0.1800 
     24 N          -1.1573  -21.6198  -42.6320 N.am      10 UNK        -0.5000 
     25 C          -2.4544  -21.9519  -42.6896 C.2       9 UNK         0.5000 
     26 O          -2.8544  -23.0969  -42.8977 O.2       9 UNK        -0.5000 
     27 CA         -3.4835  -20.8211  -42.4900 C.3       9 UNK         0.1400 
     28 CB         -3.8616  -20.6950  -41.0065 C.3       9 UNK        -0.1800 
     29 N          -3.0236  -19.5189  -42.9729 N.am      9 UNK        -0.5000 
     30 C          -2.8448  -19.1965  -44.2613 C.2       8 UNK         0.5000 
     31 O          -3.0659  -19.9631  -45.1980 O.2       8 UNK        -0.5000 
     32 CA         -2.2796  -17.7909  -44.5463 C.3       8 UNK         0.1400 
     33 CB         -3.4167  -16.7669  -44.6629 C.3       8 UNK        -0.1800 
     34 N          -1.3064  -17.3197  -43.5574 N.am      8 UNK        -0.5000 
     35 C          -0.2063  -17.9647  -43.1431 C.2       7 UNK         0.5000 
     36 O           0.1166  -19.0846  -43.5364 O.2       7 UNK        -0.5000 
     37 CA          0.6708  -17.2581  -42.0963 C.3       7 UNK         0.1400 
     38 CB          1.8292  -16.5154  -42.7781 C.3       7 UNK        -0.1800 
     39 N          -0.0887  -16.3184  -41.2705 N.am      7 UNK        -0.5000 
     40 C          -0.8654  -16.6663  -40.2351 C.2       6 UNK         0.5000 
     41 O          -1.0167  -17.8278  -39.8555 O.2       6 UNK        -0.5000 
     42 CA         -1.6007  -15.5242  -39.5064 C.3       6 UNK         0.1400 
     43 CB         -0.7136  -14.9354  -38.3989 C.3       6 UNK        -0.1800 
     44 N          -2.0093  -14.4507  -40.4146 N.am      6 UNK        -0.5000 
     45 C          -3.0431  -14.5353  -41.2634 C.2       5 UNK         0.5000 
     46 O          -3.8075  -15.4989  -41.3109 O.2       5 UNK        -0.5000 
     47 CA         -3.2393  -13.3617  -42.2470 C.3       5 UNK         0.1400 
     48 CB         -4.2006  -12.3202  -41.6549 C.3       5 UNK        -0.1800 
     49 N          -1.9947  -12.6939  -42.6515 N.am      5 UNK        -0.5000 
     50 C          -0.9721  -13.2983  -43.2705 C.2       4 UNK         0.5000 
     51 O          -0.9535  -14.5046  -43.5173 O.2       4 UNK        -0.5000 
     52 CA          0.2543  -12.4283  -43.6051 C.3       4 UNK         0.1400 
     53 CB          1.0392  -12.1012  -42.3240 C.3       4 UNK        -0.1800 
     54 N           1.1586  -13.1036  -44.5376 N.am      4 UNK        -0.5000 
     55 C           0.9143  -13.3010  -45.8387 C.2       3 UNK         0.5000 
     56 O          -0.0671  -12.8469  -46.4330 O.2       3 UNK        -0.5000 
     57 CA          1.9395  -14.1675  -46.5989 C.3       3 UNK         0.1400 
     58 CB          1.3922  -15.5921  -46.7950 C.3       3 UNK        -0.1800 
     59 N           2.2894  -13.5955  -47.9015 N.am      3 UNK        -0.5000 
     60 C           2.8711  -12.3993  -48.0786 C.2       2 UNK         0.5000 
     61 O           3.2740  -11.6997  -47.1467 O.2       2 UNK        -0.5000 
     62 CA          3.0052  -11.8903  -49.5316 C.3       2 UNK         0.1400 
     63 CB          4.0598  -10.7734  -49.6867 C.3       2 UNK        -0.1800 
     64 N           3.2214  -12.9522  -50.5200 N.am      2 UNK        -0.5000 
     65 C           4.2692  -13.7869  -50.6081 C.2       1 UNK         0.5000 
     66 O           5.2284  -13.7705  -49.8344 O.2       1 UNK        -0.5000 
     67 C          -0.6499  -22.0356  -47.3534 C.2       11 UNK         0.5000 
     68 O          -0.3324  -22.4164  -48.4801 O.2       11 UNK        -0.5000 
     69 N          -1.8149  -22.3593  -46.7730 N.am      12 UNK        -0.5000 
     70 CA         -2.8428  -23.2437  -47.3267 C.3       12 UNK         0.1400 
     71 CB         -3.9962  -23.3644  -46.3216 C.3       12 UNK        -0.1800 
     72 C          -2.3489  -24.6385  -47.7615 C.2       12 UNK         0.5000 
     73 O          -2.9723  -25.2411  -48.6359 O.2       12 UNK        -0.5000 
     74 N          -1.2296  -25.1139  -47.1966 N.am      13 UNK        -0.5000 
     75 CA         -0.5490  -26.3362  -47.6279 C.3       13 UNK         0.1400 
     76 CB          0.5152  -26.7120  -46.5864 C.3       13 UNK        -0.1800 
     77 C           0.0877  -26.2188  -49.0298 C.2       13 UNK         0.5000 
     78 O           0.1702  -27.2236  -49.7366 O.2       13 UNK        -0.5000 
     79 N           0.5170  -25.0069  -49.4085 N.am      14 UNK        -0.5000 
     80 CA          1.1118  -24.6947  -50.7092 C.3       14 UNK         0.1400 
     81 CB          2.2923  -23.7338  -50.5066 C.3       14 UNK        -0.1800 
     82 C           0.0781  -24.0764  -51.6646 C.2       14 UNK         0.5000 
     83 O           0.1047  -24.3732  -52.8590 O.2       14 UNK        -0.5000 
     84 N          -0.8283  -23.2473  -51.1258 N.am      15 UNK        -0.5000 
     85 CA         -1.9170  -22.6013  -51.8635 C.3       15 UNK         0.1400 
     86 CB         -2.4217  -21.3858  -51.0687 C.3       15 UNK        -0.1800 
     87 C          -3.0708  -23.5514  -52.2503 C.2       15 UNK         0.5000 
     88 O          -3.9120  -23.1624  -53.0615 O.2       15 UNK        -0.5000 
     89 N          -3.0632  -24.7736  -51.6987 N.am      16 UNK        -0.5000 
     90 CA         -3.9832  -25.8853  -51.9479 C.3       16 UNK         0.1400 
     91 CB         -4.0120  -26.2801  -53.4405 C.3       16 UNK        -0.1800 
     92 C          -5.3777  -25.6291  -51.3497 C.2       16 UNK         0.5000 
     93 O          -6.3673  -25.5391  -52.0785 O.2       16 UNK        -0.5000 
     94 N          -5.4107  -25.5407  -50.0125 N.am      17 UNK        -0.5000 
     95 CA         -6.5936  -25.4029  -49.1558 C.3       17 UNK         0.1400 
     96 CB         -7.5088  -26.6407  -49.2708 C.3       17 UNK        -0.1800 
     97 C          -7.3394  -24.0702  -49.3666 C.2       17 UNK         0.5000 
     98 O          -8.5715  -24.0393  -49.3882 O.2       17 UNK        -0.5000 
     99 N          -6.5681  -22.9881  -49.5024 N.am      18 UNK        -0.5000 
    100 CA        -7.0425  -21.6161  -49.6254 C.3       18 UNK         0.1400 
    101 CB        -7.0229  -21.2110  -51.1055 C.3       18 UNK        -0.1800 
    102 C         -6.1163  -20.7170  -48.7998 C.2       18 UNK         0.5000 
    103 O         -4.9299  -21.0242  -48.6734 O.2       18 UNK        -0.5000 
    104 N         -6.6554  -19.6156  -48.2655 N.am      19 UNK        -0.5000 
    105 CA        -5.9469  -18.6577  -47.4124 C.3       19 UNK         0.1400 
    106 CB        -6.9865  -17.8484  -46.6160 C.3       19 UNK        -0.1800 
    107 C         -4.9899  -17.7593  -48.2242 C.2       19 UNK         0.5000 
    108 O         -5.2573  -16.5705  -48.4013 O.2       19 UNK        -0.5000 
    109 N         -3.9136  -18.3703  -48.7371 N.am      20 UNK        -0.5000 
    110 CA        -2.8487  -17.7953  -49.5706 C.3       20 UNK         0.1400 
    111 CB        -2.1121  -16.6619  -48.8266 C.3       20 UNK        -0.1800 
    112 C         -3.2983  -17.3773  -50.9898 C.2       20 UNK         0.5000 
    113 O         -2.5101  -16.7899  -51.7295 O.2       20 UNK        -0.5000 
    114 N         -4.5366  -17.7107  -51.3730 N.am      21 UNK        -0.5000 
    115 CA        -5.0902  -17.5056  -52.7088 C.3       21 UNK         0.1400 
    116 CB        -6.5878  -17.1747  -52.5787 C.3       21 UNK        -0.1800 
    117 C         -4.8268  -18.7698  -53.5436 C.2       21 UNK         0.5000 
    118 O         -5.7187  -19.6066  -53.6804 O.2       21 UNK        -0.5000 
    119 N         -3.5782  -18.9056  -54.0082 N.am      22 UNK        -0.5000 
    120 CA        -2.9974  -20.0876  -54.6681 C.3       22 UNK         0.1400 
    121 C         -3.8611  -20.6837  -55.8145 C.2       22 UNK         0.5000 
    122 N         -4.3256  -21.9179  -55.6704 N.am      22 UNK        -0.7600 
    123 O         -4.0768  -20.0471  -56.8433 O.2       22 UNK        -0.5000 
    124 C124       -1.5530  -19.8126  -55.1645 C.3       23 UNK        -0.0398 
    125 S125       -0.4578  -19.1733  -53.8516 S.3       23 UNK        -0.2404 
    126 C126        0.8956  -20.3905  -53.8304 C.3       23 UNK        -0.0205 
    127 H127        0.4986  -17.4265  -51.1927 H         1 UNK         0.0600 
    128 H128       -0.0427  -15.7579  -51.4114 H         1 UNK         0.0600 
    129 H129        0.7626  -16.6102  -52.7332 H         1 UNK         0.0600 
    130 H130        2.5431  -15.2389  -52.9744 H         1 UNK         0.3000 
    131 H131        4.4689  -14.2162  -52.6581 H         1 UNK         0.0600 
    132 H132        5.0501  -16.5916  -50.8286 H         1 UNK         0.0800 
    133 H133        6.2701  -15.5076  -51.4488 H         1 UNK         0.0800 
    134 H134        6.2033  -18.6798  -51.8148 H         1 UNK         0.0800 
    135 H135        5.8665  -19.2230  -53.4358 H         1 UNK         0.0800 
    136 H136        3.4107  -19.3681  -54.2213 H         1 UNK         0.1150 
    137 H137        0.6988  -20.5797  -51.1338 H         1 UNK         0.1150 
    138 H138        4.5233  -18.9445  -50.1037 H         1 UNK         0.1150 
    139 H139        2.2983  -20.9462  -48.7043 H         1 UNK         0.0800 
    140 H140        2.9670  -19.3640  -48.3655 H         1 UNK         0.0800 
    141 H141        1.1872  -19.2341  -46.2619 H         1 UNK         0.0800 
    142 H142       -0.5361  -19.2819  -46.4917 H         1 UNK         0.0800 
    143 H143        1.3537  -21.6522  -46.7482 H         1 UNK         0.0600 
    144 H144        0.0508  -20.6007  -44.5169 H         1 UNK         0.3000 
    145 H145       -0.3304  -23.5494  -42.5671 H         1 UNK         0.0600 
    146 H146        0.9857  -22.0946  -41.0381 H         1 UNK         0.0600 
    147 H147        2.0162  -22.7976  -42.2752 H         1 UNK         0.0600 
    148 H148        1.5257  -21.1132  -42.3987 H         1 UNK         0.0600 
    149 H149       -0.9082  -20.6459  -42.5146 H         1 UNK         0.3000 
    150 H150       -4.3813  -21.0913  -43.0502 H         1 UNK         0.0600 
    151 H151       -4.2279  -21.6445  -40.6138 H         1 UNK         0.0600 
    152 H152       -4.6521  -19.9582  -40.8623 H         1 UNK         0.0600 
    153 H153       -3.0075  -20.3944  -40.3979 H         1 UNK         0.0600 
    154 H154       -2.8034  -18.8250  -42.2727 H         1 UNK         0.3000 
    155 H155       -1.7722  -17.8163  -45.5084 H         1 UNK         0.0600 
    156 H156       -3.9740  -16.6752  -43.7307 H         1 UNK         0.0600 
    157 H157       -4.1225  -17.0572  -45.4397 H         1 UNK         0.0600 
    158 H158       -3.0354  -15.7802  -44.9270 H         1 UNK         0.0600 
    159 H159       -1.4152  -16.3564  -43.2555 H         1 UNK         0.3000 
    160 H160        1.0975  -18.0288  -41.4508 H         1 UNK         0.0600 
    161 H161        2.4941  -16.0621  -42.0429 H         1 UNK         0.0600 
    162 H162        1.4687  -15.7263  -43.4364 H         1 UNK         0.0600 
    163 H163        2.4287  -17.1977  -43.3824 H         1 UNK         0.0600 
    164 H164       -0.0794  -15.3534  -41.5665 H         1 UNK         0.3000 
    165 H165       -2.4926  -15.9465  -39.0382 H         1 UNK         0.0600 
    166 H166       -1.2461  -14.1713  -37.8322 H         1 UNK         0.0600 
    167 H167       -0.4073  -15.7081  -37.6925 H         1 UNK         0.0600 
    168 H168        0.1925  -14.4832  -38.8042 H         1 UNK         0.0600 
    169 H169       -1.4429  -13.6156  -40.4254 H         1 UNK         0.3000 
    170 H170       -3.6972  -13.7723  -43.1494 H         1 UNK         0.0600 
    171 H171       -5.1465  -12.7806  -41.3662 H         1 UNK         0.0600 
    172 H172       -3.7820  -11.8453  -40.7666 H         1 UNK         0.0600 
    173 H173       -4.4301  -11.5379  -42.3786 H         1 UNK         0.0600 
    174 H174       -1.9363  -11.7036  -42.4621 H         1 UNK         0.3000 
    175 H175       -0.0926  -11.4986  -44.0605 H         1 UNK         0.0600 
    176 H176        1.3936  -13.0047  -41.8256 H         1 UNK         0.0600 
    177 H177        1.9069  -11.4784  -42.5430 H         1 UNK         0.0600 
    178 H178        0.4237  -11.5523  -41.6103 H         1 UNK         0.0600 
    179 H179        1.9829  -13.5187  -44.1306 H         1 UNK         0.3000 
    180 H180        2.8551  -14.2310  -46.0075 H         1 UNK         0.0600 
    181 H181        0.5289  -15.6025  -47.4614 H         1 UNK         0.0600 
    182 H182        1.0767  -16.0307  -45.8477 H         1 UNK         0.0600 
    183 H183        2.1488  -16.2517  -47.2204 H         1 UNK         0.0600 
    184 H184        2.0332  -14.1407  -48.7139 H         1 UNK         0.3000 
    185 H185        2.0365  -11.4520  -49.7756 H         1 UNK         0.0600 
    186 H186        3.8110   -9.9110  -49.0672 H         1 UNK         0.0600 
    187 H187        5.0541  -11.1099  -49.3919 H         1 UNK         0.0600 
    188 H188        4.1156  -10.4233  -50.7174 H         1 UNK         0.0600 
    189 H189        2.4810  -13.0715  -51.1973 H         1 UNK         0.3000 
    190 H190       -2.0174  -21.9563  -45.8679 H         1 UNK         0.3000 
    191 H191       -3.2251  -22.7688  -48.2255 H         1 UNK         0.0600 
    192 H192       -3.6700  -23.8338  -45.3932 H         1 UNK         0.0600 
    193 H193       -4.8097  -23.9660  -46.7268 H         1 UNK         0.0600 
    194 H194       -4.4095  -22.3851  -46.0779 H         1 UNK         0.0600 
    195 H195       -0.7685  -24.5664  -46.4784 H         1 UNK         0.3000 
    196 H196       -1.2872  -27.1401  -47.6658 H         1 UNK         0.0600 
    197 H197        1.0145  -27.6436  -46.8556 H         1 UNK         0.0600 
    198 H198        0.0707  -26.8535  -45.6011 H         1 UNK         0.0600 
    199 H199        1.2818  -25.9408  -46.4997 H         1 UNK         0.0600 
    200 H200        0.3556  -24.2166  -48.7933 H         1 UNK         0.3000 
    201 H201        1.4967  -25.6042  -51.1753 H         1 UNK         0.0600 
    202 H202        3.0611  -24.1801  -49.8760 H         1 UNK         0.0600 
    203 H203        1.9724  -22.8045  -50.0380 H         1 UNK         0.0600 
    204 H204        2.7579  -23.4765  -51.4589 H         1 UNK         0.0600 
    205 H205       -0.7370  -23.0007  -50.1424 H         1 UNK         0.3000 
    206 H206       -1.5028  -22.2332  -52.8022 H         1 UNK         0.0600 
    207 H207       -3.2950  -20.9295  -51.5361 H         1 UNK         0.0600 
    208 H208       -1.6525  -20.6171  -51.0037 H         1 UNK         0.0600 
    209 H209       -2.7031  -21.6568  -50.0547 H         1 UNK         0.0600 
    210 H210       -2.3506  -24.9561  -51.0059 H         1 UNK         0.3000 
    211 H211       -3.5707  -26.7380  -51.4060 H         1 UNK         0.0600 
    212 H212       -4.4612  -25.5073  -54.0644 H         1 UNK         0.0600 
    213 H213       -4.5942  -27.1905  -53.5868 H         1 UNK         0.0600 
    214 H214       -3.0071  -26.4726  -53.8162 H         1 UNK         0.0600 
    215 H215       -4.5197  -25.5689  -49.5184 H         1 UNK         0.3000 
    216 H216       -6.2195  -25.3772  -48.1319 H         1 UNK         0.0600 
    217 H217       -7.9765  -26.7117  -50.2531 H         1 UNK         0.0600 
    218 H218       -8.3094  -26.6039  -48.5311 H         1 UNK         0.0600 
    219 H219       -6.9509  -27.5608  -49.0971 H         1 UNK         0.0600 
    220 H220       -5.5639  -23.0798  -49.4315 H         1 UNK         0.3000 
    221 H221       -8.0574  -21.5257  -49.2326 H         1 UNK         0.0600 
    222 H222       -6.0179  -21.2780  -51.5252 H         1 UNK         0.0600 
    223 H223       -7.6723  -21.8546  -51.6991 H         1 UNK         0.0600 
    224 H224       -7.3711  -20.1870  -51.2381 H         1 UNK         0.0600 
    225 H225       -7.6293  -19.4142  -48.4412 H         1 UNK         0.3000 
    226 H226       -5.3406  -19.2127  -46.6928 H         1 UNK         0.0600 
    227 H227       -7.5925  -18.4995  -45.9857 H         1 UNK         0.0600 
    228 H228       -6.5036  -17.1236  -45.9600 H         1 UNK         0.0600 
    229 H229       -7.6599  -17.2973  -47.2737 H         1 UNK         0.0600 
    230 H230       -3.8587  -19.3752  -48.5913 H         1 UNK         0.3000 
    231 H231       -2.1307  -18.6015  -49.7200 H         1 UNK         0.0600 
    232 H232       -1.7966  -16.9816  -47.8340 H         1 UNK         0.0600 
    233 H233       -2.7347  -15.7744  -48.7136 H         1 UNK         0.0600 
    234 H234       -1.2129  -16.3621  -49.3643 H         1 UNK         0.0600 
    235 H235       -5.1156  -18.2123  -50.7174 H         1 UNK         0.3000 
    236 H236       -4.6041  -16.6600  -53.2003 H         1 UNK         0.0600 
    237 H237       -7.0437  -17.0424  -53.5606 H         1 UNK         0.0600 
    238 H238       -7.1383  -17.9619  -52.0636 H         1 UNK         0.0600 
    239 H239       -6.7365  -16.2484  -52.0235 H         1 UNK         0.0600 
    240 H240       -2.9155  -18.1718  -53.7955 H         1 UNK         0.3000 
    241 H241       -2.9307  -20.8422  -53.8895 H         1 UNK         0.0600 
    242 H242       -4.8812  -22.3260  -56.4050 H         1 UNK         0.3800 
    243 H243       -4.2050  -22.4218  -54.7943 H         1 UNK         0.3800 
    244 H244       -1.1181  -20.7227  -55.5813 H         1 UNK         0.0800 
    245 H245       -1.5629  -19.0821  -55.9753 H         1 UNK         0.0800 
    246 H246        1.3471  -20.4460  -54.8221 H         1 UNK         0.0800 
    247 H247        0.5050  -21.3837  -53.6088 H         1 UNK         0.0800 
@<TRIPOS>BOND
     1    1    2 1    
     2    1  127 1    
     3    1  128 1    
     4    1  129 1    
     5    2    3 2    
     6    2    4 am   BACKBONE|DICT|INTERRES
     7    4    5 1    
     8    4  130 1    
     9    5    6 1    
    10    5   65 1    
    11    5  131 1    
    12    6    7 1    
    13    6  132 1    
    14    6  133 1    
    15    7    8 1    
    16    8    9 1    
    17    8  134 1    
    18    8  135 1    
    19    9   10 ar   
    20    9   14 ar   
    21   10   11 ar   
    22   10  136 1    
    23   11   12 ar   
    24   11  126 1    
    25   12   13 ar   
    26   12  137 1    
    27   13   14 ar   
    28   13   15 1    
    29   14  138 1    
    30   15   16 1    
    31   15  139 1    
    32   15  140 1    
    33   16   17 1    
    34   17   18 1    
    35   17  141 1    
    36   17  142 1    
    37   18   19 1    
    38   18   67 1    
    39   18  143 1    
    40   19   20 am   BACKBONE|DICT|INTERRES
    41   19  144 1    
    42   20   21 2    
    43   20   22 1    
    44   22   23 1    
    45   22   24 1    
    46   22  145 1    
    47   23  146 1    
    48   23  147 1    
    49   23  148 1    
    50   24   25 am   BACKBONE|DICT|INTERRES
    51   24  149 1    
    52   25   26 2    
    53   25   27 1    
    54   27   28 1    
    55   27   29 1    
    56   27  150 1    
    57   28  151 1    
    58   28  152 1    
    59   28  153 1    
    60   29   30 am   BACKBONE|DICT|INTERRES
    61   29  154 1    
    62   30   31 2    
    63   30   32 1    
    64   32   33 1    
    65   32   34 1    
    66   32  155 1    
    67   33  156 1    
    68   33  157 1    
    69   33  158 1    
    70   34   35 am   BACKBONE|DICT|INTERRES
    71   34  159 1    
    72   35   36 2    
    73   35   37 1    
    74   37   38 1    
    75   37   39 1    
    76   37  160 1    
    77   38  161 1    
    78   38  162 1    
    79   38  163 1    
    80   39   40 am   BACKBONE|DICT|INTERRES
    81   39  164 1    
    82   40   41 2    
    83   40   42 1    
    84   42   43 1    
    85   42   44 1    
    86   42  165 1    
    87   43  166 1    
    88   43  167 1    
    89   43  168 1    
    90   44   45 am   BACKBONE|DICT|INTERRES
    91   44  169 1    
    92   45   46 2    
    93   45   47 1    
    94   47   48 1    
    95   47   49 1    
    96   47  170 1    
    97   48  171 1    
    98   48  172 1    
    99   48  173 1    
   100   49   50 am   BACKBONE|DICT|INTERRES
   101   49  174 1    
   102   50   51 2    
   103   50   52 1    
   104   52   53 1    
   105   52   54 1    
   106   52  175 1    
   107   53  176 1    
   108   53  177 1    
   109   53  178 1    
   110   54   55 am   BACKBONE|DICT|INTERRES
   111   54  179 1    
   112   55   56 2    
   113   55   57 1    
   114   57   58 1    
   115   57   59 1    
   116   57  180 1    
   117   58  181 1    
   118   58  182 1    
   119   58  183 1    
   120   59   60 am   BACKBONE|DICT|INTERRES
   121   59  184 1    
   122   60   61 2    
   123   60   62 1    
   124   62   63 1    
   125   62   64 1    
   126   62  185 1    
   127   63  186 1    
   128   63  187 1    
   129   63  188 1    
   130   64   65 am   BACKBONE|DICT|INTERRES
   131   64  189 1    
   132   65   66 2    
   133   67   68 2    
   134   67   69 am   BACKBONE|DICT|INTERRES
   135   69   70 1    
   136   69  190 1    
   137   70   71 1    
   138   70   72 1    
   139   70  191 1    
   140   71  192 1    
   141   71  193 1    
   142   71  194 1    
   143   72   73 2    
   144   72   74 am   BACKBONE|DICT|INTERRES
   145   74   75 1    
   146   74  195 1    
   147   75   76 1    
   148   75   77 1    
   149   75  196 1    
   150   76  197 1    
   151   76  198 1    
   152   76  199 1    
   153   77   78 2    
   154   77   79 am   BACKBONE|DICT|INTERRES
   155   79   80 1    
   156   79  200 1    
   157   80   81 1    
   158   80   82 1    
   159   80  201 1    
   160   81  202 1    
   161   81  203 1    
   162   81  204 1    
   163   82   83 2    
   164   82   84 am   BACKBONE|DICT|INTERRES
   165   84   85 1    
   166   84  205 1    
   167   85   86 1    
   168   85   87 1    
   169   85  206 1    
   170   86  207 1    
   171   86  208 1    
   172   86  209 1    
   173   87   88 2    
   174   87   89 am   BACKBONE|DICT|INTERRES
   175   89   90 1    
   176   89  210 1    
   177   90   91 1    
   178   90   92 1    
   179   90  211 1    
   180   91  212 1    
   181   91  213 1    
   182   91  214 1    
   183   92   93 2    
   184   92   94 am   BACKBONE|DICT|INTERRES
   185   94   95 1    
   186   94  215 1    
   187   95   96 1    
   188   95   97 1    
   189   95  216 1    
   190   96  217 1    
   191   96  218 1    
   192   96  219 1    
   193   97   98 2    
   194   97   99 am   BACKBONE|DICT|INTERRES
   195   99  100 1    
   196   99  220 1    
   197  100  101 1    
   198  100  102 1    
   199  100  221 1    
   200  101  222 1    
   201  101  223 1    
   202  101  224 1    
   203  102  103 2    
   204  102  104 am   BACKBONE|DICT|INTERRES
   205  104  105 1    
   206  104  225 1    
   207  105  106 1    
   208  105  107 1    
   209  105  226 1    
   210  106  227 1    
   211  106  228 1    
   212  106  229 1    
   213  107  108 2    
   214  107  109 am   BACKBONE|DICT|INTERRES
   215  109  110 1    
   216  109  230 1    
   217  110  111 1    
   218  110  112 1    
   219  110  231 1    
   220  111  232 1    
   221  111  233 1    
   222  111  234 1    
   223  112  113 2    
   224  112  114 am   BACKBONE|DICT|INTERRES
   225  114  115 1    
   226  114  235 1    
   227  115  116 1    
   228  115  117 1    
   229  115  236 1    
   230  116  237 1    
   231  116  238 1    
   232  116  239 1    
   233  117  118 2    
   234  117  119 am   BACKBONE|DICT|INTERRES
   235  119  120 1    
   236  119  240 1    
   237  120  121 1    
   238  120  124 1    
   239  120  241 1    
   240  121  122 am   BACKBONE|DICT|INTERRES
   241  121  123 2    
   242  122  242 1    
   243  122  243 1    
   244  124  125 1    
   245  124  244 1    
   246  124  245 1    
   247  125  126 1    
   248  126  246 1    
   249  126  247 1    
@<TRIPOS>SUBSTRUCTURE
     1 UNK         1 GROUP             0       ****    0 ROOT    
