@<TRIPOS>MOLECULE
3R540
247   249    1
SMALL
USER_CHARGES


@<TRIPOS>ATOM
      1 CA          6.9487  -14.3357  -45.6598 C.3       0 UNK        -0.1800 
      2 C           5.4399  -14.2756  -45.4758 C.2       0 UNK         0.5000 
      3 O           4.9620  -13.6999  -44.4987 O.2       0 UNK        -0.5000 
      4 N           4.6820  -14.8550  -46.4174 N.am      1 UNK        -0.5000 
      5 CA          3.2140  -14.9353  -46.3947 C.3       1 UNK         0.1400 
      6 C6          2.6725  -15.9182  -47.4614 C.3       23 UNK        -0.0398 
      7 S7          3.0305  -15.4104  -49.1822 S.3       23 UNK        -0.2404 
      8 C8          1.3552  -15.0916  -49.8252 C.3       23 UNK        -0.0205 
      9 C9          0.8144  -16.2871  -50.5975 C.ar      23 UNK        -0.0193 
     10 C10         0.7170  -16.2288  -51.9918 C.ar      23 UNK        -0.1150 
     11 C11         0.2322  -17.3209  -52.7162 C.ar      23 UNK        -0.0193 
     12 C12        -0.1474  -18.4816  -52.0389 C.ar      23 UNK        -0.1150 
     13 C13        -0.0557  -18.5541  -50.6469 C.ar      23 UNK        -0.0193 
     14 C14         0.4148  -17.4501  -49.9287 C.ar      23 UNK        -0.1150 
     15 C15        -0.4492  -19.8355  -49.9315 C.3       23 UNK        -0.0205 
     16 S16         1.0173  -20.8632  -49.6021 S.3       23 UNK        -0.2404 
     17 C17         1.1534  -20.7424  -47.7852 C.3       23 UNK        -0.0398 
     18 CA          0.7312  -22.0461  -47.0663 C.3       11 UNK         0.1400 
     19 N           1.0898  -22.0289  -45.6475 N.am      11 UNK        -0.5000 
     20 C           1.0107  -23.0868  -44.8273 C.2       10 UNK         0.5000 
     21 O           0.6579  -24.2084  -45.1908 O.2       10 UNK        -0.5000 
     22 CA          1.3187  -22.8350  -43.3403 C.3       10 UNK         0.1400 
     23 CB          2.8318  -22.7285  -43.1013 C.3       10 UNK        -0.1800 
     24 N           0.6543  -21.6338  -42.8353 N.am      10 UNK        -0.5000 
     25 C          -0.6750  -21.4651  -42.7851 C.2       9 UNK         0.5000 
     26 O          -1.4897  -22.3323  -43.0978 O.2       9 UNK        -0.5000 
     27 CA         -1.1762  -20.0722  -42.3715 C.3       9 UNK         0.1400 
     28 CB         -1.1934  -19.9173  -40.8432 C.3       9 UNK        -0.1800 
     29 N          -0.3717  -19.0056  -42.9655 N.am      9 UNK        -0.5000 
     30 C          -0.3508  -18.7103  -44.2728 C.2       8 UNK         0.5000 
     31 O          -1.0121  -19.3023  -45.1241 O.2       8 UNK        -0.5000 
     32 CA          0.6024  -17.5845  -44.7028 C.3       8 UNK         0.1400 
     33 CB         -0.0218  -16.2192  -44.3868 C.3       8 UNK        -0.1800 
     34 N           1.9114  -17.6944  -44.0566 N.am      8 UNK        -0.5000 
     35 C           2.7746  -18.6958  -44.2864 C.2       7 UNK         0.5000 
     36 O           2.5727  -19.5923  -45.1040 O.2       7 UNK        -0.5000 
     37 CA          4.0557  -18.7335  -43.4326 C.3       7 UNK         0.1400 
     38 CB          5.1754  -17.9386  -44.1188 C.3       7 UNK        -0.1800 
     39 N           3.8654  -18.2180  -42.0770 N.am      7 UNK        -0.5000 
     40 C           2.9930  -18.6903  -41.1766 C.2       6 UNK         0.5000 
     41 O           2.2728  -19.6701  -41.3718 O.2       6 UNK        -0.5000 
     42 CA          2.8581  -17.9027  -39.8588 C.3       6 UNK         0.1400 
     43 CB          4.1589  -17.1815  -39.4415 C.3       6 UNK        -0.1800 
     44 N           1.7372  -16.9535  -39.8835 N.am      6 UNK        -0.5000 
     45 C           1.5242  -15.9657  -40.7656 C.2       5 UNK         0.5000 
     46 O           2.2218  -15.7656  -41.7661 O.2       5 UNK        -0.5000 
     47 CA          0.3302  -15.0409  -40.4805 C.3       5 UNK         0.1400 
     48 CB          0.5394  -14.2308  -39.1873 C.3       5 UNK        -0.1800 
     49 N           0.1891  -14.1311  -41.6090 N.am      5 UNK        -0.5000 
     50 C          -0.9088  -13.4649  -41.9781 C.2       4 UNK         0.5000 
     51 O          -1.9808  -13.5301  -41.3742 O.2       4 UNK        -0.5000 
     52 CA         -0.7770  -12.5977  -43.2504 C.3       4 UNK         0.1400 
     53 CB         -1.8209  -11.4639  -43.3211 C.3       4 UNK        -0.1800 
     54 N           0.5815  -12.0785  -43.4602 N.am      4 UNK        -0.5000 
     55 C           1.2613  -11.2344  -42.6641 C.2       3 UNK         0.5000 
     56 O           0.8033  -10.7507  -41.6284 O.2       3 UNK        -0.5000 
     57 CA          2.7076  -10.8788  -43.0715 C.3       3 UNK         0.1400 
     58 CB          3.7051  -11.6231  -42.1697 C.3       3 UNK        -0.1800 
     59 N           3.0177  -11.1855  -44.4690 N.am      3 UNK        -0.5000 
     60 C           2.5118  -10.5359  -45.5291 C.2       2 UNK         0.5000 
     61 O           1.8111   -9.5277  -45.4353 O.2       2 UNK        -0.5000 
     62 CA          2.8052  -11.1205  -46.9284 C.3       2 UNK         0.1400 
     63 CB          3.8797  -10.2891  -47.6455 C.3       2 UNK        -0.1800 
     64 N           3.2285  -12.5231  -46.9143 N.am      2 UNK        -0.5000 
     65 C           2.5086  -13.5589  -46.4582 C.2       1 UNK         0.5000 
     66 O           1.3533  -13.4488  -46.0473 O.2       1 UNK        -0.5000 
     67 C          -0.7615  -22.3787  -47.2749 C.2       11 UNK         0.5000 
     68 O          -1.0722  -23.2472  -48.0878 O.2       11 UNK        -0.5000 
     69 N          -1.6534  -21.7285  -46.5142 N.am      12 UNK        -0.5000 
     70 CA         -3.1001  -21.9578  -46.5611 C.3       12 UNK         0.1400 
     71 CB         -3.8132  -20.8958  -45.7117 C.3       12 UNK        -0.1800 
     72 C          -3.5255  -23.3750  -46.1272 C.2       12 UNK         0.5000 
     73 O          -4.5572  -23.8579  -46.5920 O.2       12 UNK        -0.5000 
     74 N          -2.7361  -24.0136  -45.2534 N.am      13 UNK        -0.5000 
     75 CA         -2.9150  -25.4067  -44.8503 C.3       13 UNK         0.1400 
     76 CB         -2.2241  -25.6390  -43.4975 C.3       13 UNK        -0.1800 
     77 C          -2.3860  -26.3919  -45.9099 C.2       13 UNK         0.5000 
     78 O          -3.0190  -27.4222  -46.1446 O.2       13 UNK        -0.5000 
     79 N          -1.2296  -26.0758  -46.5098 N.am      14 UNK        -0.5000 
     80 CA         -0.5578  -26.9050  -47.5108 C.3       14 UNK         0.1400 
     81 CB          0.9042  -26.4510  -47.6485 C.3       14 UNK        -0.1800 
     82 C          -1.2631  -26.8898  -48.8789 C.2       14 UNK         0.5000 
     83 O          -1.4792  -27.9521  -49.4649 O.2       14 UNK        -0.5000 
     84 N          -1.5934  -25.6893  -49.3671 N.am      15 UNK        -0.5000 
     85 CA         -2.2990  -25.4574  -50.6251 C.3       15 UNK         0.1400 
     86 CB         -1.8837  -24.0770  -51.1686 C.3       15 UNK        -0.1800 
     87 C          -3.8249  -25.5302  -50.4323 C.2       15 UNK         0.5000 
     88 O          -4.3127  -25.6324  -49.3057 O.2       15 UNK        -0.5000 
     89 N          -4.5623  -25.4260  -51.5457 N.am      16 UNK        -0.5000 
     90 CA         -6.0274  -25.3382  -51.5634 C.3       16 UNK         0.1400 
     91 CB         -6.5469  -25.8961  -52.8987 C.3       16 UNK        -0.1800 
     92 C          -6.5542  -23.9084  -51.2930 C.2       16 UNK         0.5000 
     93 O          -7.7664  -23.6934  -51.3420 O.2       16 UNK        -0.5000 
     94 N          -5.6443  -22.9591  -51.0181 N.am      17 UNK        -0.5000 
     95 CA         -5.8834  -21.5668  -50.6275 C.3       17 UNK         0.1400 
     96 CB         -6.4631  -21.5075  -49.1964 C.3       17 UNK        -0.1800 
     97 C          -6.7198  -20.8131  -51.6792 C.2       17 UNK         0.5000 
     98 O          -6.2376  -20.6126  -52.7948 O.2       17 UNK        -0.5000 
     99 N          -7.9601  -20.4429  -51.3361 N.am      18 UNK        -0.5000 
    100 CA        -8.9083  -19.7510  -52.2121 C.3       18 UNK         0.1400 
    101 CB       -10.1602  -19.3841  -51.4011 C.3       18 UNK        -0.1800 
    102 C         -9.2977  -20.5463  -53.4747 C.2       18 UNK         0.5000 
    103 O         -9.6436  -19.9319  -54.4838 O.2       18 UNK        -0.5000 
    104 N         -9.2202  -21.8837  -53.4113 N.am      19 UNK        -0.5000 
    105 CA        -9.4555  -22.7665  -54.5545 C.3       19 UNK         0.1400 
    106 CB        -9.9561  -24.1279  -54.0515 C.3       19 UNK        -0.1800 
    107 C         -8.2108  -22.9246  -55.4509 C.2       19 UNK         0.5000 
    108 O         -8.3623  -23.2854  -56.6187 O.2       19 UNK        -0.5000 
    109 N         -7.0132  -22.6453  -54.9131 N.am      20 UNK        -0.5000 
    110 CA        -5.7670  -22.5881  -55.6806 C.3       20 UNK         0.1400 
    111 CB        -4.5629  -22.8897  -54.7708 C.3       20 UNK        -0.1800 
    112 C         -5.6081  -21.2160  -56.3548 C.2       20 UNK         0.5000 
    113 O         -5.2433  -21.1525  -57.5299 O.2       20 UNK        -0.5000 
    114 N         -5.8837  -20.1466  -55.5903 N.am      21 UNK        -0.5000 
    115 CA        -5.8988  -18.7341  -55.9954 C.3       21 UNK         0.1400 
    116 CB        -7.1091  -18.4639  -56.9125 C.3       21 UNK        -0.1800 
    117 C         -4.5696  -18.2389  -56.6104 C.2       21 UNK         0.5000 
    118 O         -4.5780  -17.3363  -57.4495 O.2       21 UNK        -0.5000 
    119 N         -3.4566  -18.8585  -56.1941 N.am      22 UNK        -0.5000 
    120 CA        -2.0957  -18.6702  -56.7291 C.3       22 UNK         0.1400 
    121 C         -1.9056  -19.1627  -58.1987 C.2       22 UNK         0.5000 
    122 N         -2.7995  -19.9749  -58.7525 N.am      22 UNK        -0.7600 
    123 O         -0.9134  -18.8334  -58.8433 O.2       22 UNK        -0.5000 
    124 C124       -1.5285  -17.2391  -56.4963 C.3       23 UNK        -0.0398 
    125 S125       -1.5520  -16.7566  -54.7363 S.3       23 UNK        -0.2404 
    126 C126        0.1205  -17.2582  -54.2298 C.3       23 UNK        -0.0205 
    127 H127        7.3617  -13.3279  -45.7021 H         1 UNK         0.0600 
    128 H128        7.2249  -14.8567  -46.5767 H         1 UNK         0.0600 
    129 H129        7.4064  -14.8585  -44.8200 H         1 UNK         0.0600 
    130 H130        5.1266  -15.2890  -47.2145 H         1 UNK         0.3000 
    131 H131        2.9532  -15.3526  -45.4203 H         1 UNK         0.0600 
    132 H132        1.5995  -16.0546  -47.3268 H         1 UNK         0.0800 
    133 H133        3.1092  -16.9057  -47.3042 H         1 UNK         0.0800 
    134 H134        0.6697  -14.8238  -49.0200 H         1 UNK         0.0800 
    135 H135        1.4030  -14.2158  -50.4741 H         1 UNK         0.0800 
    136 H136        1.0181  -15.3328  -52.5164 H         1 UNK         0.1150 
    137 H137       -0.5130  -19.3313  -52.5986 H         1 UNK         0.1150 
    138 H138        0.4900  -17.5073  -48.8527 H         1 UNK         0.1150 
    139 H139       -0.9893  -19.6030  -49.0128 H         1 UNK         0.0800 
    140 H140       -1.1437  -20.4116  -50.5451 H         1 UNK         0.0800 
    141 H141        0.5977  -19.8837  -47.4061 H         1 UNK         0.0800 
    142 H142        2.2011  -20.5328  -47.5666 H         1 UNK         0.0800 
    143 H143        1.3020  -22.8623  -47.5148 H         1 UNK         0.0600 
    144 H144        1.4318  -21.1451  -45.2816 H         1 UNK         0.3000 
    145 H145        0.9425  -23.6878  -42.7715 H         1 UNK         0.0600 
    146 H146        3.0551  -22.5770  -42.0450 H         1 UNK         0.0600 
    147 H147        3.3401  -23.6409  -43.4153 H         1 UNK         0.0600 
    148 H148        3.2708  -21.9011  -43.6581 H         1 UNK         0.0600 
    149 H149        1.2508  -20.8810  -42.5044 H         1 UNK         0.3000 
    150 H150       -2.2009  -19.9651  -42.7335 H         1 UNK         0.0600 
    151 H151       -1.8215  -20.6813  -40.3834 H         1 UNK         0.0600 
    152 H152       -1.5949  -18.9472  -40.5499 H         1 UNK         0.0600 
    153 H153       -0.1965  -20.0118  -40.4123 H         1 UNK         0.0600 
    154 H154        0.2634  -18.5222  -42.3486 H         1 UNK         0.3000 
    155 H155        0.7503  -17.6589  -45.7815 H         1 UNK         0.0600 
    156 H156       -0.3877  -16.1747  -43.3616 H         1 UNK         0.0600 
    157 H157       -0.8693  -16.0187  -45.0431 H         1 UNK         0.0600 
    158 H158        0.6934  -15.4103  -44.5164 H         1 UNK         0.0600 
    159 H159        2.1393  -17.0083  -43.3431 H         1 UNK         0.3000 
    160 H160        4.3714  -19.7750  -43.3521 H         1 UNK         0.0600 
    161 H161        4.9369  -16.8761  -44.1642 H         1 UNK         0.0600 
    162 H162        5.3358  -18.2850  -45.1408 H         1 UNK         0.0600 
    163 H163        6.1204  -18.0475  -43.5866 H         1 UNK         0.0600 
    164 H164        4.3670  -17.3730  -41.8443 H         1 UNK         0.3000 
    165 H165        2.6290  -18.6387  -39.0866 H         1 UNK         0.0600 
    166 H166        4.0655  -16.7673  -38.4376 H         1 UNK         0.0600 
    167 H167        5.0035  -17.8716  -39.4262 H         1 UNK         0.0600 
    168 H168        4.4134  -16.3589  -40.1106 H         1 UNK         0.0600 
    169 H169        1.0844  -17.0519  -39.1186 H         1 UNK         0.3000 
    170 H170       -0.5677  -15.6563  -40.3959 H         1 UNK         0.0600 
    171 H171        0.6351  -14.8831  -38.3188 H         1 UNK         0.0600 
    172 H172        1.4406  -13.6186  -39.2415 H         1 UNK         0.0600 
    173 H173       -0.3026  -13.5654  -38.9965 H         1 UNK         0.0600 
    174 H174        1.0214  -14.0689  -42.1822 H         1 UNK         0.3000 
    175 H175       -0.9705  -13.2683  -44.0888 H         1 UNK         0.0600 
    176 H176       -2.8346  -11.8661  -43.3286 H         1 UNK         0.0600 
    177 H177       -1.7454  -10.7877  -42.4693 H         1 UNK         0.0600 
    178 H178       -1.7006  -10.8743  -44.2299 H         1 UNK         0.0600 
    179 H179        1.0414  -12.4198  -44.2979 H         1 UNK         0.3000 
    180 H180        2.8396   -9.8057  -42.9191 H         1 UNK         0.0600 
    181 H181        3.6031  -12.7052  -42.2654 H         1 UNK         0.0600 
    182 H182        3.5482  -11.3714  -41.1200 H         1 UNK         0.0600 
    183 H183        4.7341  -11.3608  -42.4163 H         1 UNK         0.0600 
    184 H184        3.6043  -11.9970  -44.6283 H         1 UNK         0.3000 
    185 H185        1.8801  -11.0599  -47.5051 H         1 UNK         0.0600 
    186 H186        3.5871   -9.2400  -47.7067 H         1 UNK         0.0600 
    187 H187        4.8364  -10.3334  -47.1233 H         1 UNK         0.0600 
    188 H188        4.0359  -10.6407  -48.6655 H         1 UNK         0.0600 
    189 H189        4.1701  -12.7105  -47.2263 H         1 UNK         0.3000 
    190 H190       -1.3334  -20.9955  -45.8859 H         1 UNK         0.3000 
    191 H191       -3.4170  -21.8296  -47.5982 H         1 UNK         0.0600 
    192 H192       -3.5942  -19.8903  -46.0713 H         1 UNK         0.0600 
    193 H193       -4.8955  -21.0256  -45.7498 H         1 UNK         0.0600 
    194 H194       -3.5109  -20.9520  -44.6656 H         1 UNK         0.0600 
    195 H195       -1.9513  -23.5157  -44.8503 H         1 UNK         0.3000 
    196 H196       -3.9816  -25.5998  -44.7170 H         1 UNK         0.0600 
    197 H197       -2.3562  -26.6686  -43.1631 H         1 UNK         0.0600 
    198 H198       -2.6409  -24.9900  -42.7271 H         1 UNK         0.0600 
    199 H199       -1.1525  -25.4455  -43.5514 H         1 UNK         0.0600 
    200 H200       -0.7451  -25.2319  -46.2227 H         1 UNK         0.3000 
    201 H201       -0.5541  -27.9360  -47.1507 H         1 UNK         0.0600 
    202 H202        1.4370  -26.5489  -46.7024 H         1 UNK         0.0600 
    203 H203        0.9747  -25.4093  -47.9640 H         1 UNK         0.0600 
    204 H204        1.4346  -27.0555  -48.3852 H         1 UNK         0.0600 
    205 H205       -1.4121  -24.8610  -48.8020 H         1 UNK         0.3000 
    206 H206       -2.0068  -26.2198  -51.3503 H         1 UNK         0.0600 
    207 H207       -0.7991  -23.9932  -51.2423 H         1 UNK         0.0600 
    208 H208       -2.2864  -23.9021  -52.1667 H         1 UNK         0.0600 
    209 H209       -2.2337  -23.2679  -50.5262 H         1 UNK         0.0600 
    210 H210       -4.0977  -25.3572  -52.4397 H         1 UNK         0.3000 
    211 H211       -6.4230  -25.9755  -50.7697 H         1 UNK         0.0600 
    212 H212       -6.3709  -25.2138  -53.7288 H         1 UNK         0.0600 
    213 H213       -7.6193  -26.0798  -52.8459 H         1 UNK         0.0600 
    214 H214       -6.0772  -26.8496  -53.1409 H         1 UNK         0.0600 
    215 H215       -4.6762  -23.2397  -51.0412 H         1 UNK         0.3000 
    216 H216       -4.9086  -21.0771  -50.6084 H         1 UNK         0.0600 
    217 H217       -6.5920  -20.4766  -48.8641 H         1 UNK         0.0600 
    218 H218       -5.7906  -21.9895  -48.4869 H         1 UNK         0.0600 
    219 H219       -7.4282  -22.0092  -49.1187 H         1 UNK         0.0600 
    220 H220       -8.2901  -20.6774  -50.4112 H         1 UNK         0.3000 
    221 H221       -8.4339  -18.8259  -52.5463 H         1 UNK         0.0600 
    222 H222      -10.6630  -20.2717  -51.0150 H         1 UNK         0.0600 
    223 H223       -9.9095  -18.7440  -50.5550 H         1 UNK         0.0600 
    224 H224      -10.8792  -18.8406  -52.0157 H         1 UNK         0.0600 
    225 H225       -8.9137  -22.3241  -52.5504 H         1 UNK         0.3000 
    226 H226      -10.2453  -22.3404  -55.1772 H         1 UNK         0.0600 
    227 H227      -10.9006  -24.0247  -53.5172 H         1 UNK         0.0600 
    228 H228      -10.1251  -24.8163  -54.8806 H         1 UNK         0.0600 
    229 H229       -9.2426  -24.5944  -53.3761 H         1 UNK         0.0600 
    230 H230       -6.9788  -22.2901  -53.9671 H         1 UNK         0.3000 
    231 H231       -5.7877  -23.3473  -56.4654 H         1 UNK         0.0600 
    232 H232       -4.6074  -23.9028  -54.3759 H         1 UNK         0.0600 
    233 H233       -4.4997  -22.2040  -53.9265 H         1 UNK         0.0600 
    234 H234       -3.6280  -22.8069  -55.3266 H         1 UNK         0.0600 
    235 H235       -6.1050  -20.3139  -54.6108 H         1 UNK         0.3000 
    236 H236       -6.0412  -18.1579  -55.0802 H         1 UNK         0.0600 
    237 H237       -7.2228  -17.3978  -57.1119 H         1 UNK         0.0600 
    238 H238       -7.0067  -18.9693  -57.8734 H         1 UNK         0.0600 
    239 H239       -8.0359  -18.8057  -56.4523 H         1 UNK         0.0600 
    240 H240       -3.5572  -19.5845  -55.5006 H         1 UNK         0.3000 
    241 H241       -1.4727  -19.3502  -56.1476 H         1 UNK         0.0600 
    242 H242       -2.6556  -20.2921  -59.6979 H         1 UNK         0.3800 
    243 H243       -3.6273  -20.2765  -58.2474 H         1 UNK         0.3800 
    244 H244       -0.5029  -17.1633  -56.8611 H         1 UNK         0.0800 
    245 H245       -2.0990  -16.5031  -57.0637 H         1 UNK         0.0800 
    246 H246        0.3572  -18.2358  -54.6527 H         1 UNK         0.0800 
    247 H247        0.8505  -16.5585  -54.6399 H         1 UNK         0.0800 
@<TRIPOS>BOND
     1    1    2 1    
     2    1  127 1    
     3    1  128 1    
     4    1  129 1    
     5    2    3 2    
     6    2    4 am   BACKBONE|DICT|INTERRES
     7    4    5 1    
     8    4  130 1    
     9    5    6 1    
    10    5   65 1    
    11    5  131 1    
    12    6    7 1    
    13    6  132 1    
    14    6  133 1    
    15    7    8 1    
    16    8    9 1    
    17    8  134 1    
    18    8  135 1    
    19    9   10 ar   
    20    9   14 ar   
    21   10   11 ar   
    22   10  136 1    
    23   11   12 ar   
    24   11  126 1    
    25   12   13 ar   
    26   12  137 1    
    27   13   14 ar   
    28   13   15 1    
    29   14  138 1    
    30   15   16 1    
    31   15  139 1    
    32   15  140 1    
    33   16   17 1    
    34   17   18 1    
    35   17  141 1    
    36   17  142 1    
    37   18   19 1    
    38   18   67 1    
    39   18  143 1    
    40   19   20 am   BACKBONE|DICT|INTERRES
    41   19  144 1    
    42   20   21 2    
    43   20   22 1    
    44   22   23 1    
    45   22   24 1    
    46   22  145 1    
    47   23  146 1    
    48   23  147 1    
    49   23  148 1    
    50   24   25 am   BACKBONE|DICT|INTERRES
    51   24  149 1    
    52   25   26 2    
    53   25   27 1    
    54   27   28 1    
    55   27   29 1    
    56   27  150 1    
    57   28  151 1    
    58   28  152 1    
    59   28  153 1    
    60   29   30 am   BACKBONE|DICT|INTERRES
    61   29  154 1    
    62   30   31 2    
    63   30   32 1    
    64   32   33 1    
    65   32   34 1    
    66   32  155 1    
    67   33  156 1    
    68   33  157 1    
    69   33  158 1    
    70   34   35 am   BACKBONE|DICT|INTERRES
    71   34  159 1    
    72   35   36 2    
    73   35   37 1    
    74   37   38 1    
    75   37   39 1    
    76   37  160 1    
    77   38  161 1    
    78   38  162 1    
    79   38  163 1    
    80   39   40 am   BACKBONE|DICT|INTERRES
    81   39  164 1    
    82   40   41 2    
    83   40   42 1    
    84   42   43 1    
    85   42   44 1    
    86   42  165 1    
    87   43  166 1    
    88   43  167 1    
    89   43  168 1    
    90   44   45 am   BACKBONE|DICT|INTERRES
    91   44  169 1    
    92   45   46 2    
    93   45   47 1    
    94   47   48 1    
    95   47   49 1    
    96   47  170 1    
    97   48  171 1    
    98   48  172 1    
    99   48  173 1    
   100   49   50 am   BACKBONE|DICT|INTERRES
   101   49  174 1    
   102   50   51 2    
   103   50   52 1    
   104   52   53 1    
   105   52   54 1    
   106   52  175 1    
   107   53  176 1    
   108   53  177 1    
   109   53  178 1    
   110   54   55 am   BACKBONE|DICT|INTERRES
   111   54  179 1    
   112   55   56 2    
   113   55   57 1    
   114   57   58 1    
   115   57   59 1    
   116   57  180 1    
   117   58  181 1    
   118   58  182 1    
   119   58  183 1    
   120   59   60 am   BACKBONE|DICT|INTERRES
   121   59  184 1    
   122   60   61 2    
   123   60   62 1    
   124   62   63 1    
   125   62   64 1    
   126   62  185 1    
   127   63  186 1    
   128   63  187 1    
   129   63  188 1    
   130   64   65 am   BACKBONE|DICT|INTERRES
   131   64  189 1    
   132   65   66 2    
   133   67   68 2    
   134   67   69 am   BACKBONE|DICT|INTERRES
   135   69   70 1    
   136   69  190 1    
   137   70   71 1    
   138   70   72 1    
   139   70  191 1    
   140   71  192 1    
   141   71  193 1    
   142   71  194 1    
   143   72   73 2    
   144   72   74 am   BACKBONE|DICT|INTERRES
   145   74   75 1    
   146   74  195 1    
   147   75   76 1    
   148   75   77 1    
   149   75  196 1    
   150   76  197 1    
   151   76  198 1    
   152   76  199 1    
   153   77   78 2    
   154   77   79 am   BACKBONE|DICT|INTERRES
   155   79   80 1    
   156   79  200 1    
   157   80   81 1    
   158   80   82 1    
   159   80  201 1    
   160   81  202 1    
   161   81  203 1    
   162   81  204 1    
   163   82   83 2    
   164   82   84 am   BACKBONE|DICT|INTERRES
   165   84   85 1    
   166   84  205 1    
   167   85   86 1    
   168   85   87 1    
   169   85  206 1    
   170   86  207 1    
   171   86  208 1    
   172   86  209 1    
   173   87   88 2    
   174   87   89 am   BACKBONE|DICT|INTERRES
   175   89   90 1    
   176   89  210 1    
   177   90   91 1    
   178   90   92 1    
   179   90  211 1    
   180   91  212 1    
   181   91  213 1    
   182   91  214 1    
   183   92   93 2    
   184   92   94 am   BACKBONE|DICT|INTERRES
   185   94   95 1    
   186   94  215 1    
   187   95   96 1    
   188   95   97 1    
   189   95  216 1    
   190   96  217 1    
   191   96  218 1    
   192   96  219 1    
   193   97   98 2    
   194   97   99 am   BACKBONE|DICT|INTERRES
   195   99  100 1    
   196   99  220 1    
   197  100  101 1    
   198  100  102 1    
   199  100  221 1    
   200  101  222 1    
   201  101  223 1    
   202  101  224 1    
   203  102  103 2    
   204  102  104 am   BACKBONE|DICT|INTERRES
   205  104  105 1    
   206  104  225 1    
   207  105  106 1    
   208  105  107 1    
   209  105  226 1    
   210  106  227 1    
   211  106  228 1    
   212  106  229 1    
   213  107  108 2    
   214  107  109 am   BACKBONE|DICT|INTERRES
   215  109  110 1    
   216  109  230 1    
   217  110  111 1    
   218  110  112 1    
   219  110  231 1    
   220  111  232 1    
   221  111  233 1    
   222  111  234 1    
   223  112  113 2    
   224  112  114 am   BACKBONE|DICT|INTERRES
   225  114  115 1    
   226  114  235 1    
   227  115  116 1    
   228  115  117 1    
   229  115  236 1    
   230  116  237 1    
   231  116  238 1    
   232  116  239 1    
   233  117  118 2    
   234  117  119 am   BACKBONE|DICT|INTERRES
   235  119  120 1    
   236  119  240 1    
   237  120  121 1    
   238  120  124 1    
   239  120  241 1    
   240  121  122 am   BACKBONE|DICT|INTERRES
   241  121  123 2    
   242  122  242 1    
   243  122  243 1    
   244  124  125 1    
   245  124  244 1    
   246  124  245 1    
   247  125  126 1    
   248  126  246 1    
   249  126  247 1    
@<TRIPOS>SUBSTRUCTURE
     1 UNK         1 GROUP             0       ****    0 ROOT    
