@<TRIPOS>MOLECULE
3R540
247   249    1
SMALL
USER_CHARGES


@<TRIPOS>ATOM
      1 CA         -2.8182  -14.4598  -53.7491 C.3       0 UNK        -0.1800 
      2 C          -2.1534  -13.6696  -52.6294 C.2       0 UNK         0.5000 
      3 O          -2.5218  -12.5192  -52.3887 O.2       0 UNK        -0.5000 
      4 N          -1.1700  -14.2815  -51.9596 N.am      1 UNK        -0.5000 
      5 CA         -0.4282  -13.7419  -50.8141 C.3       1 UNK         0.1400 
      6 C6          0.7349  -14.6868  -50.4203 C.3       23 UNK        -0.0398 
      7 S7          2.1646  -13.7997  -49.7105 S.3       23 UNK        -0.2404 
      8 C8          2.9918  -15.1318  -48.7718 C.3       23 UNK        -0.0205 
      9 C9          3.2552  -16.3984  -49.5848 C.ar      23 UNK        -0.0193 
     10 C10         3.6627  -16.3385  -50.9231 C.ar      23 UNK        -0.1150 
     11 C11         3.8298  -17.5030  -51.6777 C.ar      23 UNK        -0.0193 
     12 C12         3.6405  -18.7435  -51.0589 C.ar      23 UNK        -0.1150 
     13 C13         3.2356  -18.8220  -49.7254 C.ar      23 UNK        -0.0193 
     14 C14         3.0624  -17.6475  -48.9895 C.ar      23 UNK        -0.1150 
     15 C15         2.9529  -20.1776  -49.1008 C.3       23 UNK        -0.0205 
     16 S16         1.1758  -20.3870  -48.7590 S.3       23 UNK        -0.2404 
     17 C17         0.9759  -22.1845  -49.0027 C.3       23 UNK        -0.0398 
     18 CA          0.1568  -22.9040  -47.9081 C.3       11 UNK         0.1400 
     19 N           0.6912  -22.7161  -46.5554 N.am      11 UNK        -0.5000 
     20 C           0.4033  -23.5276  -45.5301 C.2       10 UNK         0.5000 
     21 O          -0.3383  -24.5029  -45.6495 O.2       10 UNK        -0.5000 
     22 CA          0.9588  -23.1902  -44.1330 C.3       10 UNK         0.1400 
     23 CB          1.5539  -24.4277  -43.4320 C.3       10 UNK        -0.1800 
     24 N           1.8809  -22.0528  -44.0738 N.am      10 UNK        -0.5000 
     25 C           3.1359  -21.9522  -44.5328 C.2       9 UNK         0.5000 
     26 O           3.7030  -22.8317  -45.1807 O.2       9 UNK        -0.5000 
     27 CA          3.8902  -20.6419  -44.2130 C.3       9 UNK         0.1400 
     28 CB          4.1229  -19.8214  -45.4882 C.3       9 UNK        -0.1800 
     29 N           3.1974  -19.7958  -43.2381 N.am      9 UNK        -0.5000 
     30 C           3.1635  -20.0106  -41.9161 C.2       8 UNK         0.5000 
     31 O           3.7842  -20.9120  -41.3519 O.2       8 UNK        -0.5000 
     32 CA          2.2366  -19.0919  -41.0972 C.3       8 UNK         0.1400 
     33 CB          2.9275  -17.7579  -40.7767 C.3       8 UNK        -0.1800 
     34 N           0.9601  -18.8389  -41.7726 N.am      8 UNK        -0.5000 
     35 C           0.0306  -19.7773  -42.0103 C.2       7 UNK         0.5000 
     36 O           0.1343  -20.9474  -41.6450 O.2       7 UNK        -0.5000 
     37 CA         -1.2002  -19.3579  -42.8296 C.3       7 UNK         0.1400 
     38 CB         -2.2502  -18.6961  -41.9262 C.3       7 UNK        -0.1800 
     39 N          -0.8390  -18.4616  -43.9275 N.am      7 UNK        -0.5000 
     40 C          -0.2326  -18.8582  -45.0544 C.2       6 UNK         0.5000 
     41 O          -0.0378  -20.0402  -45.3382 O.2       6 UNK        -0.5000 
     42 CA          0.2475  -17.7695  -46.0297 C.3       6 UNK         0.1400 
     43 CB         -0.7956  -17.4897  -47.1112 C.3       6 UNK        -0.1800 
     44 N           0.6000  -16.5111  -45.3817 N.am      6 UNK        -0.5000 
     45 C           1.6641  -16.3422  -44.5895 C.2       5 UNK         0.5000 
     46 O           2.4540  -17.2408  -44.3045 O.2       5 UNK        -0.5000 
     47 CA          1.8467  -14.9422  -43.9844 C.3       5 UNK         0.1400 
     48 CB          2.4494  -13.9754  -45.0160 C.3       5 UNK        -0.1800 
     49 N           0.5847  -14.4000  -43.4824 N.am      5 UNK        -0.5000 
     50 C          -0.0777  -14.8818  -42.4217 C.2       4 UNK         0.5000 
     51 O           0.3134  -15.8303  -41.7405 O.2       4 UNK        -0.5000 
     52 CA         -1.4275  -14.2150  -42.1002 C.3       4 UNK         0.1400 
     53 CB         -1.2178  -12.8758  -41.3774 C.3       4 UNK        -0.1800 
     54 N          -2.2467  -14.0026  -43.2954 N.am      4 UNK        -0.5000 
     55 C          -2.7591  -14.9943  -44.0371 C.2       3 UNK         0.5000 
     56 O          -2.6007  -16.1856  -43.7852 O.2       3 UNK        -0.5000 
     57 CA         -3.5512  -14.5980  -45.2930 C.3       3 UNK         0.1400 
     58 CB         -5.0181  -14.3127  -44.9383 C.3       3 UNK        -0.1800 
     59 N          -2.9955  -13.4560  -46.0208 N.am      3 UNK        -0.5000 
     60 C          -1.7622  -13.4012  -46.5396 C.2       2 UNK         0.5000 
     61 O          -0.8856  -14.2452  -46.3391 O.2       2 UNK        -0.5000 
     62 CA         -1.4564  -12.1888  -47.4358 C.3       2 UNK         0.1400 
     63 CB         -0.5401  -11.1997  -46.6995 C.3       2 UNK        -0.1800 
     64 N          -0.8225  -12.5817  -48.6947 N.am      2 UNK        -0.5000 
     65 C          -1.3310  -13.4345  -49.5961 C.2       1 UNK         0.5000 
     66 O          -2.4359  -13.9737  -49.4844 O.2       1 UNK        -0.5000 
     67 C          -1.3517  -22.5920  -47.9874 C.2       11 UNK         0.5000 
     68 O          -2.0797  -23.3250  -48.6579 O.2       11 UNK        -0.5000 
     69 N          -1.8151  -21.5701  -47.2485 N.am      12 UNK        -0.5000 
     70 CA         -3.2443  -21.2687  -47.1113 C.3       12 UNK         0.1400 
     71 CB         -3.4557  -19.8463  -46.5745 C.3       12 UNK        -0.1800 
     72 C          -3.9820  -22.2835  -46.2231 C.2       12 UNK         0.5000 
     73 O          -5.1876  -22.4483  -46.3871 O.2       12 UNK        -0.5000 
     74 N          -3.2610  -22.9569  -45.3163 N.am      13 UNK        -0.5000 
     75 CA         -3.7988  -24.0511  -44.5085 C.3       13 UNK         0.1400 
     76 CB         -2.9033  -24.2879  -43.2820 C.3       13 UNK        -0.1800 
     77 C          -3.9588  -25.3324  -45.3468 C.2       13 UNK         0.5000 
     78 O          -4.9993  -25.9846  -45.2642 O.2       13 UNK        -0.5000 
     79 N          -2.9396  -25.6474  -46.1595 N.am      14 UNK        -0.5000 
     80 CA         -2.9028  -26.8031  -47.0550 C.3       14 UNK         0.1400 
     81 CB         -1.4832  -26.9640  -47.6212 C.3       14 UNK        -0.1800 
     82 C          -3.9359  -26.7185  -48.1925 C.2       14 UNK         0.5000 
     83 O          -4.6648  -27.6845  -48.4215 O.2       14 UNK        -0.5000 
     84 N          -3.9884  -25.5678  -48.8782 N.am      15 UNK        -0.5000 
     85 CA         -4.9146  -25.3205  -49.9879 C.3       15 UNK         0.1400 
     86 CB         -4.3165  -24.2442  -50.9015 C.3       15 UNK        -0.1800 
     87 C          -6.3249  -24.9052  -49.5300 C.2       15 UNK         0.5000 
     88 O          -7.2449  -24.9038  -50.3476 O.2       15 UNK        -0.5000 
     89 N          -6.4576  -24.5326  -48.2500 N.am      16 UNK        -0.5000 
     90 CA         -7.6501  -24.0345  -47.5539 C.3       16 UNK         0.1400 
     91 CB         -8.8212  -25.0341  -47.6488 C.3       16 UNK        -0.1800 
     92 C          -8.0782  -22.6028  -47.9467 C.2       16 UNK         0.5000 
     93 O          -9.0110  -22.0787  -47.3350 O.2       16 UNK        -0.5000 
     94 N          -7.4007  -21.9779  -48.9198 N.am      17 UNK        -0.5000 
     95 CA         -7.6617  -20.6279  -49.4084 C.3       17 UNK         0.1400 
     96 CB         -8.9947  -20.5915  -50.1863 C.3       17 UNK        -0.1800 
     97 C          -6.5153  -20.1583  -50.3179 C.2       17 UNK         0.5000 
     98 O          -5.7256  -20.9759  -50.8004 O.2       17 UNK        -0.5000 
     99 N          -6.4911  -18.8396  -50.5626 N.am      18 UNK        -0.5000 
    100 CA        -5.7904  -18.1277  -51.6418 C.3       18 UNK         0.1400 
    101 CB        -6.4326  -18.4927  -52.9974 C.3       18 UNK        -0.1800 
    102 C         -4.2561  -18.2812  -51.6885 C.2       18 UNK         0.5000 
    103 O         -3.6647  -18.0128  -52.7346 O.2       18 UNK        -0.5000 
    104 N         -3.6341  -18.7295  -50.5871 N.am      19 UNK        -0.5000 
    105 CA        -2.1971  -19.0189  -50.4590 C.3       19 UNK         0.1400 
    106 CB        -1.3812  -17.7094  -50.5089 C.3       19 UNK        -0.1800 
    107 C         -1.6991  -20.0524  -51.4933 C.2       19 UNK         0.5000 
    108 O         -0.5887  -19.9244  -52.0086 O.2       19 UNK        -0.5000 
    109 N         -2.5645  -21.0209  -51.8359 N.am      20 UNK        -0.5000 
    110 CA        -2.3748  -22.0181  -52.8984 C.3       20 UNK         0.1400 
    111 CB        -1.2251  -22.9839  -52.5374 C.3       20 UNK        -0.1800 
    112 C         -2.2095  -21.3941  -54.3049 C.2       20 UNK         0.5000 
    113 O         -1.5711  -21.9946  -55.1701 O.2       20 UNK        -0.5000 
    114 N         -2.7784  -20.1926  -54.4952 N.am      21 UNK        -0.5000 
    115 CA        -2.6926  -19.3209  -55.6720 C.3       21 UNK         0.1400 
    116 CB        -3.2611  -20.0100  -56.9303 C.3       21 UNK        -0.1800 
    117 C         -1.2898  -18.7151  -55.9002 C.2       21 UNK         0.5000 
    118 O         -1.0295  -18.1828  -56.9808 O.2       21 UNK        -0.5000 
    119 N         -0.4147  -18.7845  -54.8892 N.am      22 UNK        -0.5000 
    120 CA         0.9145  -18.1664  -54.8843 C.3       22 UNK         0.1400 
    121 C          0.8155  -16.6399  -54.6242 C.2       22 UNK         0.5000 
    122 N          1.4644  -15.8153  -55.4345 N.am      22 UNK        -0.7600 
    123 O          0.1800  -16.2017  -53.6688 O.2       22 UNK        -0.5000 
    124 C124        1.8214  -18.8546  -53.8379 C.3       23 UNK        -0.0398 
    125 S125        3.6037  -18.7459  -54.2313 S.3       23 UNK        -0.2404 
    126 C126        4.1833  -17.3786  -53.1603 C.3       23 UNK        -0.0205 
    127 H127       -3.9016  -14.4423  -53.6306 H         1 UNK         0.0600 
    128 H128       -2.5704  -14.0237  -54.7167 H         1 UNK         0.0600 
    129 H129       -2.4990  -15.5028  -53.7524 H         1 UNK         0.0600 
    130 H130       -0.8629  -15.1904  -52.2927 H         1 UNK         0.3000 
    131 H131       -0.0087  -12.7940  -51.1580 H         1 UNK         0.0600 
    132 H132        1.1048  -15.2105  -51.3027 H         1 UNK         0.0800 
    133 H133        0.4027  -15.4672  -49.7337 H         1 UNK         0.0800 
    134 H134        2.3738  -15.3642  -47.9026 H         1 UNK         0.0800 
    135 H135        3.9406  -14.7568  -48.3868 H         1 UNK         0.0800 
    136 H136        3.8144  -15.3772  -51.3931 H         1 UNK         0.1150 
    137 H137        3.7701  -19.6546  -51.6246 H         1 UNK         0.1150 
    138 H138        2.7538  -17.7086  -47.9574 H         1 UNK         0.1150 
    139 H139        3.2969  -20.9667  -49.7706 H         1 UNK         0.0800 
    140 H140        3.5225  -20.2917  -48.1820 H         1 UNK         0.0800 
    141 H141        1.9597  -22.6521  -49.0500 H         1 UNK         0.0800 
    142 H142        0.5302  -22.3472  -49.9857 H         1 UNK         0.0800 
    143 H143        0.2446  -23.9698  -48.1318 H         1 UNK         0.0600 
    144 H144        1.2330  -21.8808  -46.3832 H         1 UNK         0.3000 
    145 H145        0.0895  -22.8822  -43.5513 H         1 UNK         0.0600 
    146 H146        1.9017  -24.1819  -42.4285 H         1 UNK         0.0600 
    147 H147        0.8084  -25.2173  -43.3301 H         1 UNK         0.0600 
    148 H148        2.3939  -24.8449  -43.9876 H         1 UNK         0.0600 
    149 H149        1.5155  -21.2481  -43.5839 H         1 UNK         0.3000 
    150 H150        4.8642  -20.9173  -43.8036 H         1 UNK         0.0600 
    151 H151        4.7130  -20.3868  -46.2097 H         1 UNK         0.0600 
    152 H152        4.6702  -18.9033  -45.2735 H         1 UNK         0.0600 
    153 H153        3.1800  -19.5444  -45.9608 H         1 UNK         0.0600 
    154 H154        2.7264  -18.9735  -43.6087 H         1 UNK         0.3000 
    155 H155        2.0214  -19.5955  -40.1525 H         1 UNK         0.0600 
    156 H156        3.1466  -17.1877  -41.6795 H         1 UNK         0.0600 
    157 H157        3.8709  -17.9223  -40.2548 H         1 UNK         0.0600 
    158 H158        2.3039  -17.1368  -40.1334 H         1 UNK         0.0600 
    159 H159        0.7855  -17.8854  -42.0696 H         1 UNK         0.3000 
    160 H160       -1.6448  -20.2622  -43.2513 H         1 UNK         0.0600 
    161 H161       -3.1686  -18.4933  -42.4770 H         1 UNK         0.0600 
    162 H162       -1.8903  -17.7529  -41.5134 H         1 UNK         0.0600 
    163 H163       -2.5118  -19.3445  -41.0891 H         1 UNK         0.0600 
    164 H164       -1.0757  -17.4819  -43.8106 H         1 UNK         0.3000 
    165 H165        1.1412  -18.1580  -46.5170 H         1 UNK         0.0600 
    166 H166       -0.4450  -16.7225  -47.8010 H         1 UNK         0.0600 
    167 H167       -0.9837  -18.3894  -47.6937 H         1 UNK         0.0600 
    168 H168       -1.7403  -17.1503  -46.6854 H         1 UNK         0.0600 
    169 H169        0.0112  -15.7079  -45.5923 H         1 UNK         0.3000 
    170 H170        2.5419  -15.0264  -43.1464 H         1 UNK         0.0600 
    171 H171        3.4001  -14.3529  -45.3947 H         1 UNK         0.0600 
    172 H172        1.7900  -13.8319  -45.8727 H         1 UNK         0.0600 
    173 H173        2.6410  -12.9974  -44.5744 H         1 UNK         0.0600 
    174 H174        0.1582  -13.6650  -44.0268 H         1 UNK         0.3000 
    175 H175       -1.9744  -14.8812  -41.4294 H         1 UNK         0.0600 
    176 H176       -2.1692  -12.4405  -41.0712 H         1 UNK         0.0600 
    177 H177       -0.6178  -13.0092  -40.4762 H         1 UNK         0.0600 
    178 H178       -0.7044  -12.1500  -42.0093 H         1 UNK         0.0600 
    179 H179       -2.4170  -13.0487  -43.5774 H         1 UNK         0.3000 
    180 H180       -3.5289  -15.4536  -45.9712 H         1 UNK         0.0600 
    181 H181       -5.1146  -13.4364  -44.2962 H         1 UNK         0.0600 
    182 H182       -5.4637  -15.1573  -44.4107 H         1 UNK         0.0600 
    183 H183       -5.6148  -14.1409  -45.8343 H         1 UNK         0.0600 
    184 H184       -3.6417  -12.7090  -46.2303 H         1 UNK         0.3000 
    185 H185       -2.3912  -11.6813  -47.6820 H         1 UNK         0.0600 
    186 H186        0.4262  -11.6470  -46.4617 H         1 UNK         0.0600 
    187 H187       -0.3582  -10.3078  -47.2994 H         1 UNK         0.0600 
    188 H188       -0.9903  -10.8727  -45.7613 H         1 UNK         0.0600 
    189 H189        0.1133  -12.2326  -48.8439 H         1 UNK         0.3000 
    190 H190       -1.1622  -21.0317  -46.6865 H         1 UNK         0.3000 
    191 H191       -3.7033  -21.3191  -48.1016 H         1 UNK         0.0600 
    192 H192       -3.1028  -19.1006  -47.2824 H         1 UNK         0.0600 
    193 H193       -2.9508  -19.6922  -45.6216 H         1 UNK         0.0600 
    194 H194       -4.5156  -19.6443  -46.4132 H         1 UNK         0.0600 
    195 H195       -2.2700  -22.7822  -45.2577 H         1 UNK         0.3000 
    196 H196       -4.7874  -23.7613  -44.1451 H         1 UNK         0.0600 
    197 H197       -3.3398  -25.0426  -42.6268 H         1 UNK         0.0600 
    198 H198       -2.7874  -23.3765  -42.6950 H         1 UNK         0.0600 
    199 H199       -1.9094  -24.6373  -43.5586 H         1 UNK         0.0600 
    200 H200       -2.0902  -25.0915  -46.1137 H         1 UNK         0.3000 
    201 H201       -3.1324  -27.6912  -46.4625 H         1 UNK         0.0600 
    202 H202       -0.7558  -27.1119  -46.8227 H         1 UNK         0.0600 
    203 H203       -1.1757  -26.0885  -48.1939 H         1 UNK         0.0600 
    204 H204       -1.4210  -27.8291  -48.2825 H         1 UNK         0.0600 
    205 H205       -3.3304  -24.8238  -48.6603 H         1 UNK         0.3000 
    206 H206       -5.0204  -26.2355  -50.5747 H         1 UNK         0.0600 
    207 H207       -3.3572  -24.5701  -51.3009 H         1 UNK         0.0600 
    208 H208       -4.9705  -24.0398  -51.7502 H         1 UNK         0.0600 
    209 H209       -4.1628  -23.3035  -50.3719 H         1 UNK         0.0600 
    210 H210       -5.6214  -24.5428  -47.6829 H         1 UNK         0.3000 
    211 H211       -7.3664  -23.9803  -46.5020 H         1 UNK         0.0600 
    212 H212       -9.2360  -25.0842  -48.6556 H         1 UNK         0.0600 
    213 H213       -9.6333  -24.7452  -46.9807 H         1 UNK         0.0600 
    214 H214       -8.5079  -26.0379  -47.3615 H         1 UNK         0.0600 
    215 H215       -6.6324  -22.4506  -49.3769 H         1 UNK         0.3000 
    216 H216       -7.7167  -19.9530  -48.5518 H         1 UNK         0.0600 
    217 H217       -9.1908  -19.6002  -50.5964 H         1 UNK         0.0600 
    218 H218       -9.8427  -20.8409  -49.5491 H         1 UNK         0.0600 
    219 H219       -8.9871  -21.2945  -51.0203 H         1 UNK         0.0600 
    220 H220       -7.1552  -18.2679  -50.0589 H         1 UNK         0.3000 
    221 H221       -5.9717  -17.0661  -51.4684 H         1 UNK         0.0600 
    222 H222       -6.2381  -19.5315  -53.2672 H         1 UNK         0.0600 
    223 H223       -7.5130  -18.3500  -52.9737 H         1 UNK         0.0600 
    224 H224       -6.0457  -17.8671  -53.8028 H         1 UNK         0.0600 
    225 H225       -4.2090  -18.9437  -49.7858 H         1 UNK         0.3000 
    226 H226       -2.0524  -19.4760  -49.4805 H         1 UNK         0.0600 
    227 H227       -1.7863  -16.9619  -49.8273 H         1 UNK         0.0600 
    228 H228       -0.3418  -17.8861  -50.2283 H         1 UNK         0.0600 
    229 H229       -1.3760  -17.2751  -51.5090 H         1 UNK         0.0600 
    230 H230       -3.4755  -21.0239  -51.3918 H         1 UNK         0.3000 
    231 H231       -3.2978  -22.5957  -52.9403 H         1 UNK         0.0600 
    232 H232       -1.3261  -23.3600  -51.5196 H         1 UNK         0.0600 
    233 H233       -0.2506  -22.5012  -52.6171 H         1 UNK         0.0600 
    234 H234       -1.2166  -23.8465  -53.2043 H         1 UNK         0.0600 
    235 H235       -3.2252  -19.7522  -53.6981 H         1 UNK         0.3000 
    236 H236       -3.3417  -18.4724  -55.4514 H         1 UNK         0.0600 
    237 H237       -3.3684  -19.2983  -57.7495 H         1 UNK         0.0600 
    238 H238       -2.6139  -20.8131  -57.2830 H         1 UNK         0.0600 
    239 H239       -4.2478  -20.4313  -56.7381 H         1 UNK         0.0600 
    240 H240       -0.7068  -19.2015  -54.0128 H         1 UNK         0.3000 
    241 H241        1.3509  -18.3287  -55.8720 H         1 UNK         0.0600 
    242 H242        1.4123  -14.8236  -55.2650 H         1 UNK         0.3800 
    243 H243        1.9944  -16.1567  -56.2210 H         1 UNK         0.3800 
    244 H244        1.6056  -18.4867  -52.8341 H         1 UNK         0.0800 
    245 H245        1.5944  -19.9213  -53.8012 H         1 UNK         0.0800 
    246 H246        3.7751  -16.4478  -53.5572 H         1 UNK         0.0800 
    247 H247        5.2673  -17.3024  -53.2516 H         1 UNK         0.0800 
@<TRIPOS>BOND
     1    1    2 1    
     2    1  127 1    
     3    1  128 1    
     4    1  129 1    
     5    2    3 2    
     6    2    4 am   BACKBONE|DICT|INTERRES
     7    4    5 1    
     8    4  130 1    
     9    5    6 1    
    10    5   65 1    
    11    5  131 1    
    12    6    7 1    
    13    6  132 1    
    14    6  133 1    
    15    7    8 1    
    16    8    9 1    
    17    8  134 1    
    18    8  135 1    
    19    9   10 ar   
    20    9   14 ar   
    21   10   11 ar   
    22   10  136 1    
    23   11   12 ar   
    24   11  126 1    
    25   12   13 ar   
    26   12  137 1    
    27   13   14 ar   
    28   13   15 1    
    29   14  138 1    
    30   15   16 1    
    31   15  139 1    
    32   15  140 1    
    33   16   17 1    
    34   17   18 1    
    35   17  141 1    
    36   17  142 1    
    37   18   19 1    
    38   18   67 1    
    39   18  143 1    
    40   19   20 am   BACKBONE|DICT|INTERRES
    41   19  144 1    
    42   20   21 2    
    43   20   22 1    
    44   22   23 1    
    45   22   24 1    
    46   22  145 1    
    47   23  146 1    
    48   23  147 1    
    49   23  148 1    
    50   24   25 am   BACKBONE|DICT|INTERRES
    51   24  149 1    
    52   25   26 2    
    53   25   27 1    
    54   27   28 1    
    55   27   29 1    
    56   27  150 1    
    57   28  151 1    
    58   28  152 1    
    59   28  153 1    
    60   29   30 am   BACKBONE|DICT|INTERRES
    61   29  154 1    
    62   30   31 2    
    63   30   32 1    
    64   32   33 1    
    65   32   34 1    
    66   32  155 1    
    67   33  156 1    
    68   33  157 1    
    69   33  158 1    
    70   34   35 am   BACKBONE|DICT|INTERRES
    71   34  159 1    
    72   35   36 2    
    73   35   37 1    
    74   37   38 1    
    75   37   39 1    
    76   37  160 1    
    77   38  161 1    
    78   38  162 1    
    79   38  163 1    
    80   39   40 am   BACKBONE|DICT|INTERRES
    81   39  164 1    
    82   40   41 2    
    83   40   42 1    
    84   42   43 1    
    85   42   44 1    
    86   42  165 1    
    87   43  166 1    
    88   43  167 1    
    89   43  168 1    
    90   44   45 am   BACKBONE|DICT|INTERRES
    91   44  169 1    
    92   45   46 2    
    93   45   47 1    
    94   47   48 1    
    95   47   49 1    
    96   47  170 1    
    97   48  171 1    
    98   48  172 1    
    99   48  173 1    
   100   49   50 am   BACKBONE|DICT|INTERRES
   101   49  174 1    
   102   50   51 2    
   103   50   52 1    
   104   52   53 1    
   105   52   54 1    
   106   52  175 1    
   107   53  176 1    
   108   53  177 1    
   109   53  178 1    
   110   54   55 am   BACKBONE|DICT|INTERRES
   111   54  179 1    
   112   55   56 2    
   113   55   57 1    
   114   57   58 1    
   115   57   59 1    
   116   57  180 1    
   117   58  181 1    
   118   58  182 1    
   119   58  183 1    
   120   59   60 am   BACKBONE|DICT|INTERRES
   121   59  184 1    
   122   60   61 2    
   123   60   62 1    
   124   62   63 1    
   125   62   64 1    
   126   62  185 1    
   127   63  186 1    
   128   63  187 1    
   129   63  188 1    
   130   64   65 am   BACKBONE|DICT|INTERRES
   131   64  189 1    
   132   65   66 2    
   133   67   68 2    
   134   67   69 am   BACKBONE|DICT|INTERRES
   135   69   70 1    
   136   69  190 1    
   137   70   71 1    
   138   70   72 1    
   139   70  191 1    
   140   71  192 1    
   141   71  193 1    
   142   71  194 1    
   143   72   73 2    
   144   72   74 am   BACKBONE|DICT|INTERRES
   145   74   75 1    
   146   74  195 1    
   147   75   76 1    
   148   75   77 1    
   149   75  196 1    
   150   76  197 1    
   151   76  198 1    
   152   76  199 1    
   153   77   78 2    
   154   77   79 am   BACKBONE|DICT|INTERRES
   155   79   80 1    
   156   79  200 1    
   157   80   81 1    
   158   80   82 1    
   159   80  201 1    
   160   81  202 1    
   161   81  203 1    
   162   81  204 1    
   163   82   83 2    
   164   82   84 am   BACKBONE|DICT|INTERRES
   165   84   85 1    
   166   84  205 1    
   167   85   86 1    
   168   85   87 1    
   169   85  206 1    
   170   86  207 1    
   171   86  208 1    
   172   86  209 1    
   173   87   88 2    
   174   87   89 am   BACKBONE|DICT|INTERRES
   175   89   90 1    
   176   89  210 1    
   177   90   91 1    
   178   90   92 1    
   179   90  211 1    
   180   91  212 1    
   181   91  213 1    
   182   91  214 1    
   183   92   93 2    
   184   92   94 am   BACKBONE|DICT|INTERRES
   185   94   95 1    
   186   94  215 1    
   187   95   96 1    
   188   95   97 1    
   189   95  216 1    
   190   96  217 1    
   191   96  218 1    
   192   96  219 1    
   193   97   98 2    
   194   97   99 am   BACKBONE|DICT|INTERRES
   195   99  100 1    
   196   99  220 1    
   197  100  101 1    
   198  100  102 1    
   199  100  221 1    
   200  101  222 1    
   201  101  223 1    
   202  101  224 1    
   203  102  103 2    
   204  102  104 am   BACKBONE|DICT|INTERRES
   205  104  105 1    
   206  104  225 1    
   207  105  106 1    
   208  105  107 1    
   209  105  226 1    
   210  106  227 1    
   211  106  228 1    
   212  106  229 1    
   213  107  108 2    
   214  107  109 am   BACKBONE|DICT|INTERRES
   215  109  110 1    
   216  109  230 1    
   217  110  111 1    
   218  110  112 1    
   219  110  231 1    
   220  111  232 1    
   221  111  233 1    
   222  111  234 1    
   223  112  113 2    
   224  112  114 am   BACKBONE|DICT|INTERRES
   225  114  115 1    
   226  114  235 1    
   227  115  116 1    
   228  115  117 1    
   229  115  236 1    
   230  116  237 1    
   231  116  238 1    
   232  116  239 1    
   233  117  118 2    
   234  117  119 am   BACKBONE|DICT|INTERRES
   235  119  120 1    
   236  119  240 1    
   237  120  121 1    
   238  120  124 1    
   239  120  241 1    
   240  121  122 am   BACKBONE|DICT|INTERRES
   241  121  123 2    
   242  122  242 1    
   243  122  243 1    
   244  124  125 1    
   245  124  244 1    
   246  124  245 1    
   247  125  126 1    
   248  126  246 1    
   249  126  247 1    
@<TRIPOS>SUBSTRUCTURE
     1 UNK         1 GROUP             0       ****    0 ROOT    
