@<TRIPOS>MOLECULE
3R540
247   249    1
SMALL
USER_CHARGES


@<TRIPOS>ATOM
      1 CA         -4.2707  -14.7525  -50.7188 C.3       0 UNK        -0.1800 
      2 C          -2.9437  -14.2999  -50.1254 C.2       0 UNK         0.5000 
      3 O          -2.6033  -14.7183  -49.0206 O.2       0 UNK        -0.5000 
      4 N          -2.2090  -13.4573  -50.8667 N.am      1 UNK        -0.5000 
      5 CA         -0.8985  -12.8737  -50.5435 C.3       1 UNK         0.1400 
      6 C6          0.2944  -13.8373  -50.8519 C.3       23 UNK        -0.0398 
      7 S7          0.7801  -15.0486  -49.5680 S.3       23 UNK        -0.2404 
      8 C8         -0.1790  -16.5294  -50.0099 C.3       23 UNK        -0.0205 
      9 C9          0.7111  -17.7032  -50.3851 C.ar      23 UNK        -0.0193 
     10 C10         0.5998  -18.2923  -51.6436 C.ar      23 UNK        -0.1150 
     11 C11         1.4016  -19.3787  -52.0001 C.ar      23 UNK        -0.0193 
     12 C12         2.3101  -19.8989  -51.0704 C.ar      23 UNK        -0.1150 
     13 C13         2.4273  -19.3207  -49.8001 C.ar      23 UNK        -0.0193 
     14 C14         1.6299  -18.2219  -49.4706 C.ar      23 UNK        -0.1150 
     15 C15         3.4422  -19.8358  -48.7889 C.3       23 UNK        -0.0205 
     16 S16         2.6556  -20.4278  -47.2545 S.3       23 UNK        -0.2404 
     17 C17         2.2571  -22.1493  -47.7018 C.3       23 UNK        -0.0398 
     18 CA          1.0860  -22.7699  -46.9018 C.3       11 UNK         0.1400 
     19 N           1.2369  -22.6360  -45.4498 N.am      11 UNK        -0.5000 
     20 C           0.5461  -23.3360  -44.5397 C.2       10 UNK         0.5000 
     21 O          -0.2997  -24.1778  -44.8455 O.2       10 UNK        -0.5000 
     22 CA          0.7761  -23.0202  -43.0487 C.3       10 UNK         0.1400 
     23 CB          1.0558  -24.2932  -42.2259 C.3       10 UNK        -0.1800 
     24 N           1.7747  -21.9782  -42.7861 N.am      10 UNK        -0.5000 
     25 C           3.1065  -22.0199  -42.9328 C.2       9 UNK         0.5000 
     26 O           3.7243  -23.0033  -43.3405 O.2       9 UNK        -0.5000 
     27 CA          3.8823  -20.7310  -42.5872 C.3       9 UNK         0.1400 
     28 CB          4.3627  -20.0377  -43.8711 C.3       9 UNK        -0.1800 
     29 N           3.0971  -19.7713  -41.8066 N.am      9 UNK        -0.5000 
     30 C           2.7886  -19.8990  -40.5090 C.2       8 UNK         0.5000 
     31 O           3.2034  -20.8111  -39.7933 O.2       8 UNK        -0.5000 
     32 CA          1.8157  -18.8544  -39.9280 C.3       8 UNK         0.1400 
     33 CB          2.5605  -17.5720  -39.5277 C.3       8 UNK        -0.1800 
     34 N           0.7238  -18.5245  -40.8494 N.am      8 UNK        -0.5000 
     35 C          -0.2340  -19.3844  -41.2279 C.2       7 UNK         0.5000 
     36 O          -0.3164  -20.5398  -40.8132 O.2       7 UNK        -0.5000 
     37 CA         -1.2481  -18.8920  -42.2735 C.3       7 UNK         0.1400 
     38 CB         -2.3647  -18.0737  -41.6094 C.3       7 UNK        -0.1800 
     39 N          -0.6145  -18.1018  -43.3268 N.am      7 UNK        -0.5000 
     40 C           0.1906  -18.6002  -44.2750 C.2       6 UNK         0.5000 
     41 O           0.3993  -19.8042  -44.4273 O.2       6 UNK        -0.5000 
     42 CA          0.8906  -17.5851  -45.1978 C.3       6 UNK         0.1400 
     43 CB         -0.0022  -17.2330  -46.3909 C.3       6 UNK        -0.1800 
     44 N           1.2675  -16.3510  -44.5107 N.am      6 UNK        -0.5000 
     45 C           2.1636  -16.2724  -43.5190 C.2       5 UNK         0.5000 
     46 O           2.7916  -17.2370  -43.0860 O.2       5 UNK        -0.5000 
     47 CA          2.3468  -14.8928  -42.8671 C.3       5 UNK         0.1400 
     48 CB          3.3168  -14.0228  -43.6808 C.3       5 UNK        -0.1800 
     49 N           1.0687  -14.1987  -42.7135 N.am      5 UNK        -0.5000 
     50 C           0.1263  -14.5464  -41.8265 C.2       4 UNK         0.5000 
     51 O           0.2546  -15.4681  -41.0199 O.2       4 UNK        -0.5000 
     52 CA         -1.1952  -13.7569  -41.8807 C.3       4 UNK         0.1400 
     53 CB         -1.0617  -12.4212  -41.1344 C.3       4 UNK        -0.1800 
     54 N          -1.6483  -13.5061  -43.2508 N.am      4 UNK        -0.5000 
     55 C          -2.0486  -14.4655  -44.0967 C.2       3 UNK         0.5000 
     56 O          -2.1015  -15.6566  -43.7963 O.2       3 UNK        -0.5000 
     57 CA         -2.4171  -14.0354  -45.5284 C.3       3 UNK         0.1400 
     58 CB         -3.9010  -13.6495  -45.6110 C.3       3 UNK        -0.1800 
     59 N          -1.6057  -12.9465  -46.0787 N.am      3 UNK        -0.5000 
     60 C          -0.2703  -12.9372  -46.1772 C.2       2 UNK         0.5000 
     61 O           0.4616  -13.7940  -45.6783 O.2       2 UNK        -0.5000 
     62 CA          0.3336  -11.8106  -47.0368 C.3       2 UNK         0.1400 
     63 CB          1.8106  -11.5454  -46.6962 C.3       2 UNK        -0.1800 
     64 N           0.2328  -12.1915  -48.4435 N.am      2 UNK        -0.5000 
     65 C          -0.8849  -12.1326  -49.1782 C.2       1 UNK         0.5000 
     66 O          -1.8870  -11.5082  -48.8170 O.2       1 UNK        -0.5000 
     67 C          -0.2939  -22.3001  -47.4056 C.2       11 UNK         0.5000 
     68 O          -0.7714  -22.8326  -48.4079 O.2       11 UNK        -0.5000 
     69 N          -0.9440  -21.3769  -46.6768 N.am      12 UNK        -0.5000 
     70 CA         -2.3340  -20.9868  -46.9192 C.3       12 UNK         0.1400 
     71 CB         -2.7428  -19.8251  -46.0026 C.3       12 UNK        -0.1800 
     72 C          -3.3093  -22.1624  -46.7471 C.2       12 UNK         0.5000 
     73 O          -4.1365  -22.3959  -47.6277 O.2       12 UNK        -0.5000 
     74 N          -3.1667  -22.8817  -45.6262 N.am      13 UNK        -0.5000 
     75 CA         -3.9967  -24.0249  -45.2551 C.3       13 UNK         0.1400 
     76 CB         -3.8262  -24.3068  -43.7545 C.3       13 UNK        -0.1800 
     77 C          -3.6755  -25.2781  -46.0839 C.2       13 UNK         0.5000 
     78 O          -4.5980  -25.9798  -46.4996 O.2       13 UNK        -0.5000 
     79 N          -2.3811  -25.5266  -46.3343 N.am      14 UNK        -0.5000 
     80 CA         -1.8896  -26.6618  -47.1218 C.3       14 UNK         0.1400 
     81 CB         -0.3569  -26.7112  -47.0505 C.3       14 UNK        -0.1800 
     82 C          -2.3585  -26.6323  -48.5887 C.2       14 UNK         0.5000 
     83 O          -2.5966  -27.6906  -49.1709 O.2       14 UNK        -0.5000 
     84 N          -2.5202  -25.4225  -49.1389 N.am      15 UNK        -0.5000 
     85 CA         -3.0606  -25.1647  -50.4723 C.3       15 UNK         0.1400 
     86 CB         -2.1460  -24.1552  -51.1813 C.3       15 UNK        -0.1800 
     87 C          -4.5299  -24.6933  -50.4105 C.2       15 UNK         0.5000 
     88 O          -4.9715  -23.9601  -51.2992 O.2       15 UNK        -0.5000 
     89 N          -5.2563  -25.1107  -49.3608 N.am      16 UNK        -0.5000 
     90 CA         -6.6761  -24.8924  -49.0461 C.3       16 UNK         0.1400 
     91 CB         -7.5864  -25.4957  -50.1328 C.3       16 UNK        -0.1800 
     92 C          -7.0584  -23.4298  -48.7487 C.2       16 UNK         0.5000 
     93 O          -7.6677  -23.1553  -47.7140 O.2       16 UNK        -0.5000 
     94 N          -6.6928  -22.5274  -49.6590 N.am      17 UNK        -0.5000 
     95 CA         -6.8687  -21.0836  -49.5770 C.3       17 UNK         0.1400 
     96 CB         -8.2731  -20.6936  -50.0765 C.3       17 UNK        -0.1800 
     97 C          -5.7325  -20.4176  -50.3680 C.2       17 UNK         0.5000 
     98 O          -5.9866  -19.6060  -51.2608 O.2       17 UNK        -0.5000 
     99 N          -4.4909  -20.8332  -50.0691 N.am      18 UNK        -0.5000 
    100 CA        -3.2329  -20.3794  -50.6828 C.3       18 UNK         0.1400 
    101 CB        -2.9749  -18.9047  -50.3119 C.3       18 UNK        -0.1800 
    102 C         -3.1585  -20.6049  -52.2105 C.2       18 UNK         0.5000 
    103 O         -2.4453  -19.8739  -52.9014 O.2       18 UNK        -0.5000 
    104 N         -3.9462  -21.5651  -52.7221 N.am      19 UNK        -0.5000 
    105 CA        -4.2353  -21.8164  -54.1388 C.3       19 UNK         0.1400 
    106 CB        -3.0244  -22.4766  -54.8303 C.3       19 UNK        -0.1800 
    107 C         -4.7495  -20.5655  -54.8899 C.2       19 UNK         0.5000 
    108 O         -4.4534  -20.4005  -56.0731 O.2       19 UNK        -0.5000 
    109 N         -5.4719  -19.6819  -54.1807 N.am      20 UNK        -0.5000 
    110 CA        -5.9202  -18.3588  -54.6311 C.3       20 UNK         0.1400 
    111 CB        -7.0065  -18.4871  -55.7195 C.3       20 UNK        -0.1800 
    112 C         -4.7391  -17.4512  -55.0459 C.2       20 UNK         0.5000 
    113 O         -4.7996  -16.7868  -56.0816 O.2       20 UNK        -0.5000 
    114 N         -3.6837  -17.4691  -54.2185 N.am      21 UNK        -0.5000 
    115 CA        -2.3827  -16.8221  -54.4008 C.3       21 UNK         0.1400 
    116 CB        -2.5102  -15.2909  -54.5483 C.3       21 UNK        -0.1800 
    117 C         -1.5582  -17.4959  -55.5173 C.2       21 UNK         0.5000 
    118 O         -1.1519  -16.8399  -56.4783 O.2       21 UNK        -0.5000 
    119 N         -1.3131  -18.8009  -55.3389 N.am      22 UNK        -0.5000 
    120 CA        -0.4464  -19.6528  -56.1778 C.3       22 UNK         0.1400 
    121 C         -0.9962  -19.9306  -57.6120 C.2       22 UNK         0.5000 
    122 N         -2.3030  -19.9390  -57.8338 N.am      22 UNK        -0.7600 
    123 O         -0.2326  -20.1634  -58.5459 O.2       22 UNK        -0.5000 
    124 C124        1.0468  -19.1988  -56.2086 C.3       23 UNK        -0.0398 
    125 S125        1.8332  -18.7181  -54.6278 S.3       23 UNK        -0.2404 
    126 C126        1.2788  -19.9524  -53.4033 C.3       23 UNK        -0.0205 
    127 H127       -4.2410  -15.8211  -50.9303 H         1 UNK         0.0600 
    128 H128       -5.0803  -14.5658  -50.0129 H         1 UNK         0.0600 
    129 H129       -4.5023  -14.2284  -51.6462 H         1 UNK         0.0600 
    130 H130       -2.5979  -13.1383  -51.7421 H         1 UNK         0.3000 
    131 H131       -0.8037  -12.0624  -51.2667 H         1 UNK         0.0600 
    132 H132        1.1817  -13.2346  -51.0508 H         1 UNK         0.0800 
    133 H133        0.1112  -14.3677  -51.7874 H         1 UNK         0.0800 
    134 H134       -0.8723  -16.2983  -50.8188 H         1 UNK         0.0800 
    135 H135       -0.7976  -16.8137  -49.1584 H         1 UNK         0.0800 
    136 H136       -0.1035  -17.8998  -52.3616 H         1 UNK         0.1150 
    137 H137        2.9362  -20.7372  -51.3413 H         1 UNK         0.1150 
    138 H138        1.7347  -17.7648  -48.4982 H         1 UNK         0.1150 
    139 H139        4.0609  -20.6263  -49.2163 H         1 UNK         0.0800 
    140 H140        4.1219  -19.0208  -48.5364 H         1 UNK         0.0800 
    141 H141        3.1568  -22.7426  -47.5341 H         1 UNK         0.0800 
    142 H142        2.0608  -22.2117  -48.7741 H         1 UNK         0.0800 
    143 H143        1.1203  -23.8400  -47.1100 H         1 UNK         0.0600 
    144 H144        1.8606  -21.9097  -45.1280 H         1 UNK         0.3000 
    145 H145       -0.1687  -22.6078  -42.6926 H         1 UNK         0.0600 
    146 H146        1.1883  -24.0581  -41.1698 H         1 UNK         0.0600 
    147 H147        0.2242  -24.9950  -42.2993 H         1 UNK         0.0600 
    148 H148        1.9492  -24.8138  -42.5709 H         1 UNK         0.0600 
    149 H149        1.3840  -21.0976  -42.4796 H         1 UNK         0.3000 
    150 H150        4.7585  -21.0213  -42.0041 H         1 UNK         0.0600 
    151 H151        4.9457  -20.7162  -44.4953 H         1 UNK         0.0600 
    152 H152        4.9958  -19.1805  -43.6421 H         1 UNK         0.0600 
    153 H153        3.5230  -19.6798  -44.4673 H         1 UNK         0.0600 
    154 H154        2.7817  -18.9393  -42.3007 H         1 UNK         0.3000 
    155 H155        1.3724  -19.2812  -39.0259 H         1 UNK         0.0600 
    156 H156        3.0235  -17.0875  -40.3872 H         1 UNK         0.0600 
    157 H157        3.3514  -17.7891  -38.8087 H         1 UNK         0.0600 
    158 H158        1.8858  -16.8532  -39.0624 H         1 UNK         0.0600 
    159 H159        0.6996  -17.5760  -41.2055 H         1 UNK         0.3000 
    160 H160       -1.7030  -19.7725  -42.7313 H         1 UNK         0.0600 
    161 H161       -3.1351  -17.8036  -42.3317 H         1 UNK         0.0600 
    162 H162       -1.9826  -17.1525  -41.1684 H         1 UNK         0.0600 
    163 H163       -2.8491  -18.6436  -40.8156 H         1 UNK         0.0600 
    164 H164       -0.8229  -17.1085  -43.3357 H         1 UNK         0.3000 
    165 H165        1.8051  -18.0458  -45.5750 H         1 UNK         0.0600 
    166 H166        0.4522  -16.4538  -47.0007 H         1 UNK         0.0600 
    167 H167       -0.1585  -18.1037  -47.0282 H         1 UNK         0.0600 
    168 H168       -0.9790  -16.8713  -46.0721 H         1 UNK         0.0600 
    169 H169        0.8316  -15.4920  -44.8354 H         1 UNK         0.3000 
    170 H170        2.7786  -15.0435  -41.8755 H         1 UNK         0.0600 
    171 H171        4.2910  -14.5056  -43.7671 H         1 UNK         0.0600 
    172 H172        2.9516  -13.8425  -44.6920 H         1 UNK         0.0600 
    173 H173        3.4743  -13.0555  -43.2037 H         1 UNK         0.0600 
    174 H174        0.8526  -13.4925  -43.4031 H         1 UNK         0.3000 
    175 H175       -1.9580  -14.3538  -41.3758 H         1 UNK         0.0600 
    176 H176       -2.0150  -11.8939  -41.0968 H         1 UNK         0.0600 
    177 H177       -0.7390  -12.5808  -40.1046 H         1 UNK         0.0600 
    178 H178       -0.3323  -11.7637  -41.6091 H         1 UNK         0.0600 
    179 H179       -1.6271  -12.5516  -43.5782 H         1 UNK         0.3000 
    180 H180       -2.2622  -14.9003  -46.1755 H         1 UNK         0.0600 
    181 H181       -4.1167  -12.7520  -45.0303 H         1 UNK         0.0600 
    182 H182       -4.5355  -14.4505  -45.2291 H         1 UNK         0.0600 
    183 H183       -4.2008  -13.4643  -46.6429 H         1 UNK         0.0600 
    184 H184       -2.1127  -12.2328  -46.5853 H         1 UNK         0.3000 
    185 H185       -0.2284  -10.8916  -46.8575 H         1 UNK         0.0600 
    186 H186        2.4360  -12.4173  -46.8932 H         1 UNK         0.0600 
    187 H187        2.2049  -10.7137  -47.2800 H         1 UNK         0.0600 
    188 H188        1.9277  -11.2885  -45.6426 H         1 UNK         0.0600 
    189 H189        0.9812  -12.7785  -48.7863 H         1 UNK         0.3000 
    190 H190       -0.4734  -20.9678  -45.8757 H         1 UNK         0.3000 
    191 H191       -2.4047  -20.6422  -47.9491 H         1 UNK         0.0600 
    192 H192       -2.1846  -18.9228  -46.2355 H         1 UNK         0.0600 
    193 H193       -2.5829  -20.0617  -44.9510 H         1 UNK         0.0600 
    194 H194       -3.7989  -19.5815  -46.1267 H         1 UNK         0.0600 
    195 H195       -2.4171  -22.6456  -44.9937 H         1 UNK         0.3000 
    196 H196       -5.0417  -23.7636  -45.4372 H         1 UNK         0.0600 
    197 H197       -4.4494  -25.1458  -43.4423 H         1 UNK         0.0600 
    198 H198       -4.1197  -23.4445  -43.1557 H         1 UNK         0.0600 
    199 H199       -2.7937  -24.5537  -43.5038 H         1 UNK         0.0600 
    200 H200       -1.6763  -24.9302  -45.9073 H         1 UNK         0.3000 
    201 H201       -2.2816  -27.5734  -46.6663 H         1 UNK         0.0600 
    202 H202       -0.0075  -26.7482  -46.0185 H         1 UNK         0.0600 
    203 H203        0.0921  -25.8417  -47.5290 H         1 UNK         0.0600 
    204 H204        0.0278  -27.5974  -47.5567 H         1 UNK         0.0600 
    205 H205       -2.2810  -24.6049  -48.5912 H         1 UNK         0.3000 
    206 H206       -3.0555  -26.0817  -51.0645 H         1 UNK         0.0600 
    207 H207       -1.1155  -24.5092  -51.2106 H         1 UNK         0.0600 
    208 H208       -2.4609  -23.9961  -52.2106 H         1 UNK         0.0600 
    209 H209       -2.1512  -23.1916  -50.6769 H         1 UNK         0.0600 
    210 H210       -4.7649  -25.6416  -48.6520 H         1 UNK         0.3000 
    211 H211       -6.8576  -25.4512  -48.1267 H         1 UNK         0.0600 
    212 H212       -7.4632  -24.9973  -51.0946 H         1 UNK         0.0600 
    213 H213       -8.6368  -25.4061  -49.8530 H         1 UNK         0.0600 
    214 H214       -7.3779  -26.5558  -50.2760 H         1 UNK         0.0600 
    215 H215       -6.1548  -22.8731  -50.4506 H         1 UNK         0.3000 
    216 H216       -6.7622  -20.7643  -48.5382 H         1 UNK         0.0600 
    217 H217       -8.4226  -19.6147  -50.0210 H         1 UNK         0.0600 
    218 H218       -9.0511  -21.1597  -49.4718 H         1 UNK         0.0600 
    219 H219       -8.4278  -20.9965  -51.1127 H         1 UNK         0.0600 
    220 H220       -4.3981  -21.5165  -49.3205 H         1 UNK         0.3000 
    221 H221       -2.4311  -20.9752  -50.2480 H         1 UNK         0.0600 
    222 H222       -3.6923  -18.2352  -50.7864 H         1 UNK         0.0600 
    223 H223       -3.0287  -18.7419  -49.2359 H         1 UNK         0.0600 
    224 H224       -1.9837  -18.5972  -50.6350 H         1 UNK         0.0600 
    225 H225       -4.4543  -22.1575  -52.0747 H         1 UNK         0.3000 
    226 H226       -5.0574  -22.5329  -54.1622 H         1 UNK         0.0600 
    227 H227       -2.7960  -23.4432  -54.3850 H         1 UNK         0.0600 
    228 H228       -3.2157  -22.6585  -55.8884 H         1 UNK         0.0600 
    229 H229       -2.1328  -21.8572  -54.7576 H         1 UNK         0.0600 
    230 H230       -5.6451  -19.8781  -53.1987 H         1 UNK         0.3000 
    231 H231       -6.3798  -17.8821  -53.7640 H         1 UNK         0.0600 
    232 H232       -7.8269  -19.1212  -55.3837 H         1 UNK         0.0600 
    233 H233       -6.6106  -18.9113  -56.6426 H         1 UNK         0.0600 
    234 H234       -7.4297  -17.5122  -55.9641 H         1 UNK         0.0600 
    235 H235       -3.7200  -18.1208  -53.4456 H         1 UNK         0.3000 
    236 H236       -1.8397  -16.9980  -53.4728 H         1 UNK         0.0600 
    237 H237       -1.5271  -14.8196  -54.5274 H         1 UNK         0.0600 
    238 H238       -2.9849  -15.0051  -55.4870 H         1 UNK         0.0600 
    239 H239       -3.0928  -14.8637  -53.7328 H         1 UNK         0.0600 
    240 H240       -1.7140  -19.2508  -54.5194 H         1 UNK         0.3000 
    241 H241       -0.4572  -20.6329  -55.7050 H         1 UNK         0.0600 
    242 H242       -2.6370  -20.1218  -58.7659 H         1 UNK         0.3800 
    243 H243       -2.9777  -19.8592  -57.0770 H         1 UNK         0.3800 
    244 H244        1.6606  -19.9898  -56.6424 H         1 UNK         0.0800 
    245 H245        1.1541  -18.3450  -56.8796 H         1 UNK         0.0800 
    246 H246        1.8695  -20.8630  -53.5120 H         1 UNK         0.0800 
    247 H247        0.2386  -20.2311  -53.5624 H         1 UNK         0.0800 
@<TRIPOS>BOND
     1    1    2 1    
     2    1  127 1    
     3    1  128 1    
     4    1  129 1    
     5    2    3 2    
     6    2    4 am   BACKBONE|DICT|INTERRES
     7    4    5 1    
     8    4  130 1    
     9    5    6 1    
    10    5   65 1    
    11    5  131 1    
    12    6    7 1    
    13    6  132 1    
    14    6  133 1    
    15    7    8 1    
    16    8    9 1    
    17    8  134 1    
    18    8  135 1    
    19    9   10 ar   
    20    9   14 ar   
    21   10   11 ar   
    22   10  136 1    
    23   11   12 ar   
    24   11  126 1    
    25   12   13 ar   
    26   12  137 1    
    27   13   14 ar   
    28   13   15 1    
    29   14  138 1    
    30   15   16 1    
    31   15  139 1    
    32   15  140 1    
    33   16   17 1    
    34   17   18 1    
    35   17  141 1    
    36   17  142 1    
    37   18   19 1    
    38   18   67 1    
    39   18  143 1    
    40   19   20 am   BACKBONE|DICT|INTERRES
    41   19  144 1    
    42   20   21 2    
    43   20   22 1    
    44   22   23 1    
    45   22   24 1    
    46   22  145 1    
    47   23  146 1    
    48   23  147 1    
    49   23  148 1    
    50   24   25 am   BACKBONE|DICT|INTERRES
    51   24  149 1    
    52   25   26 2    
    53   25   27 1    
    54   27   28 1    
    55   27   29 1    
    56   27  150 1    
    57   28  151 1    
    58   28  152 1    
    59   28  153 1    
    60   29   30 am   BACKBONE|DICT|INTERRES
    61   29  154 1    
    62   30   31 2    
    63   30   32 1    
    64   32   33 1    
    65   32   34 1    
    66   32  155 1    
    67   33  156 1    
    68   33  157 1    
    69   33  158 1    
    70   34   35 am   BACKBONE|DICT|INTERRES
    71   34  159 1    
    72   35   36 2    
    73   35   37 1    
    74   37   38 1    
    75   37   39 1    
    76   37  160 1    
    77   38  161 1    
    78   38  162 1    
    79   38  163 1    
    80   39   40 am   BACKBONE|DICT|INTERRES
    81   39  164 1    
    82   40   41 2    
    83   40   42 1    
    84   42   43 1    
    85   42   44 1    
    86   42  165 1    
    87   43  166 1    
    88   43  167 1    
    89   43  168 1    
    90   44   45 am   BACKBONE|DICT|INTERRES
    91   44  169 1    
    92   45   46 2    
    93   45   47 1    
    94   47   48 1    
    95   47   49 1    
    96   47  170 1    
    97   48  171 1    
    98   48  172 1    
    99   48  173 1    
   100   49   50 am   BACKBONE|DICT|INTERRES
   101   49  174 1    
   102   50   51 2    
   103   50   52 1    
   104   52   53 1    
   105   52   54 1    
   106   52  175 1    
   107   53  176 1    
   108   53  177 1    
   109   53  178 1    
   110   54   55 am   BACKBONE|DICT|INTERRES
   111   54  179 1    
   112   55   56 2    
   113   55   57 1    
   114   57   58 1    
   115   57   59 1    
   116   57  180 1    
   117   58  181 1    
   118   58  182 1    
   119   58  183 1    
   120   59   60 am   BACKBONE|DICT|INTERRES
   121   59  184 1    
   122   60   61 2    
   123   60   62 1    
   124   62   63 1    
   125   62   64 1    
   126   62  185 1    
   127   63  186 1    
   128   63  187 1    
   129   63  188 1    
   130   64   65 am   BACKBONE|DICT|INTERRES
   131   64  189 1    
   132   65   66 2    
   133   67   68 2    
   134   67   69 am   BACKBONE|DICT|INTERRES
   135   69   70 1    
   136   69  190 1    
   137   70   71 1    
   138   70   72 1    
   139   70  191 1    
   140   71  192 1    
   141   71  193 1    
   142   71  194 1    
   143   72   73 2    
   144   72   74 am   BACKBONE|DICT|INTERRES
   145   74   75 1    
   146   74  195 1    
   147   75   76 1    
   148   75   77 1    
   149   75  196 1    
   150   76  197 1    
   151   76  198 1    
   152   76  199 1    
   153   77   78 2    
   154   77   79 am   BACKBONE|DICT|INTERRES
   155   79   80 1    
   156   79  200 1    
   157   80   81 1    
   158   80   82 1    
   159   80  201 1    
   160   81  202 1    
   161   81  203 1    
   162   81  204 1    
   163   82   83 2    
   164   82   84 am   BACKBONE|DICT|INTERRES
   165   84   85 1    
   166   84  205 1    
   167   85   86 1    
   168   85   87 1    
   169   85  206 1    
   170   86  207 1    
   171   86  208 1    
   172   86  209 1    
   173   87   88 2    
   174   87   89 am   BACKBONE|DICT|INTERRES
   175   89   90 1    
   176   89  210 1    
   177   90   91 1    
   178   90   92 1    
   179   90  211 1    
   180   91  212 1    
   181   91  213 1    
   182   91  214 1    
   183   92   93 2    
   184   92   94 am   BACKBONE|DICT|INTERRES
   185   94   95 1    
   186   94  215 1    
   187   95   96 1    
   188   95   97 1    
   189   95  216 1    
   190   96  217 1    
   191   96  218 1    
   192   96  219 1    
   193   97   98 2    
   194   97   99 am   BACKBONE|DICT|INTERRES
   195   99  100 1    
   196   99  220 1    
   197  100  101 1    
   198  100  102 1    
   199  100  221 1    
   200  101  222 1    
   201  101  223 1    
   202  101  224 1    
   203  102  103 2    
   204  102  104 am   BACKBONE|DICT|INTERRES
   205  104  105 1    
   206  104  225 1    
   207  105  106 1    
   208  105  107 1    
   209  105  226 1    
   210  106  227 1    
   211  106  228 1    
   212  106  229 1    
   213  107  108 2    
   214  107  109 am   BACKBONE|DICT|INTERRES
   215  109  110 1    
   216  109  230 1    
   217  110  111 1    
   218  110  112 1    
   219  110  231 1    
   220  111  232 1    
   221  111  233 1    
   222  111  234 1    
   223  112  113 2    
   224  112  114 am   BACKBONE|DICT|INTERRES
   225  114  115 1    
   226  114  235 1    
   227  115  116 1    
   228  115  117 1    
   229  115  236 1    
   230  116  237 1    
   231  116  238 1    
   232  116  239 1    
   233  117  118 2    
   234  117  119 am   BACKBONE|DICT|INTERRES
   235  119  120 1    
   236  119  240 1    
   237  120  121 1    
   238  120  124 1    
   239  120  241 1    
   240  121  122 am   BACKBONE|DICT|INTERRES
   241  121  123 2    
   242  122  242 1    
   243  122  243 1    
   244  124  125 1    
   245  124  244 1    
   246  124  245 1    
   247  125  126 1    
   248  126  246 1    
   249  126  247 1    
@<TRIPOS>SUBSTRUCTURE
     1 UNK         1 GROUP             0       ****    0 ROOT    
