@<TRIPOS>MOLECULE
3R540
247   249    1
SMALL
USER_CHARGES


@<TRIPOS>ATOM
      1 CA         -0.4816  -11.6160  -44.9002 C.3       0 UNK        -0.1800 
      2 C           0.1832  -11.8756  -46.2437 C.2       0 UNK         0.5000 
      3 O           0.2827  -10.9565  -47.0556 O.2       0 UNK        -0.5000 
      4 N           0.6286  -13.1156  -46.4789 N.am      1 UNK        -0.5000 
      5 CA          1.2217  -13.5706  -47.7379 C.3       1 UNK         0.1400 
      6 C6          0.2633  -14.4637  -48.5640 C.3       23 UNK        -0.0398 
      7 S7         -1.2925  -13.6370  -49.0357 S.3       23 UNK        -0.2404 
      8 C8         -1.7682  -14.6004  -50.5038 C.3       23 UNK        -0.0205 
      9 C9         -1.9238  -16.0802  -50.1867 C.ar      23 UNK        -0.0193 
     10 C10        -3.0610  -16.5411  -49.5227 C.ar      23 UNK        -0.1150 
     11 C11        -3.2279  -17.9040  -49.2524 C.ar      23 UNK        -0.0193 
     12 C12        -2.2190  -18.7995  -49.6289 C.ar      23 UNK        -0.1150 
     13 C13        -1.0569  -18.3508  -50.2749 C.ar      23 UNK        -0.0193 
     14 C14        -0.9321  -16.9889  -50.5603 C.ar      23 UNK        -0.1150 
     15 C15         0.0994  -19.2643  -50.6978 C.3       23 UNK        -0.0205 
     16 S16         0.0531  -21.0004  -50.1361 S.3       23 UNK        -0.2404 
     17 C17         0.2486  -20.8313  -48.3284 C.3       23 UNK        -0.0398 
     18 CA         -0.0175  -22.1421  -47.5461 C.3       11 UNK         0.1400 
     19 N           0.2405  -21.9683  -46.1150 N.am      11 UNK        -0.5000 
     20 C           0.2508  -22.9561  -45.2089 C.2       10 UNK         0.5000 
     21 O           0.1109  -24.1450  -45.4895 O.2       10 UNK        -0.5000 
     22 CA          0.3762  -22.5439  -43.7326 C.3       10 UNK         0.1400 
     23 CB          1.8397  -22.2587  -43.3663 C.3       10 UNK        -0.1800 
     24 N          -0.4608  -21.3880  -43.4070 N.am      10 UNK        -0.5000 
     25 C          -1.7997  -21.3820  -43.4812 C.2       9 UNK         0.5000 
     26 O          -2.4678  -22.3745  -43.7688 O.2       9 UNK        -0.5000 
     27 CA         -2.5124  -20.0394  -43.2384 C.3       9 UNK         0.1400 
     28 CB         -2.6725  -19.7701  -41.7352 C.3       9 UNK        -0.1800 
     29 N          -1.8313  -18.9103  -43.8730 N.am      9 UNK        -0.5000 
     30 C          -1.6738  -18.7568  -45.1958 C.2       8 UNK         0.5000 
     31 O          -2.1210  -19.5418  -46.0312 O.2       8 UNK        -0.5000 
     32 CA         -0.8249  -17.5563  -45.6570 C.3       8 UNK         0.1400 
     33 CB         -1.6410  -16.2551  -45.6120 C.3       8 UNK        -0.1800 
     34 N           0.3942  -17.4110  -44.8574 N.am      8 UNK        -0.5000 
     35 C           1.3844  -18.3160  -44.8275 C.2       7 UNK         0.5000 
     36 O           1.3990  -19.3339  -45.5212 O.2       7 UNK        -0.5000 
     37 CA          2.5084  -18.0906  -43.7988 C.3       7 UNK         0.1400 
     38 CB          3.5992  -17.1553  -44.3362 C.3       7 UNK        -0.1800 
     39 N           2.0005  -17.5687  -42.5312 N.am      7 UNK        -0.5000 
     40 C           1.2798  -18.2852  -41.6576 C.2       6 UNK         0.5000 
     41 O           1.0013  -19.4724  -41.8140 O.2       6 UNK        -0.5000 
     42 CA          0.7434  -17.5371  -40.4244 C.3       6 UNK         0.1400 
     43 CB          1.7995  -17.5037  -39.3099 C.3       6 UNK        -0.1800 
     44 N           0.3247  -16.1705  -40.7373 N.am      6 UNK        -0.5000 
     45 C          -0.6900  -15.8540  -41.5548 C.2       5 UNK         0.5000 
     46 O          -1.4123  -16.6866  -42.0999 O.2       5 UNK        -0.5000 
     47 CA         -0.8987  -14.3593  -41.8511 C.3       5 UNK         0.1400 
     48 CB         -1.8769  -13.7378  -40.8440 C.3       5 UNK        -0.1800 
     49 N           0.3594  -13.6093  -41.8351 N.am      5 UNK        -0.5000 
     50 C           1.3097  -13.7121  -42.7719 C.2       4 UNK         0.5000 
     51 O           1.2086  -14.4171  -43.7797 O.2       4 UNK        -0.5000 
     52 CA          2.5914  -12.9098  -42.5293 C.3       4 UNK         0.1400 
     53 CB          3.7072  -13.8157  -41.9829 C.3       4 UNK        -0.1800 
     54 N           3.0243  -12.2891  -43.7788 N.am      4 UNK        -0.5000 
     55 C           3.5906  -11.0765  -43.8601 C.2       3 UNK         0.5000 
     56 O           3.8105  -10.3724  -42.8731 O.2       3 UNK        -0.5000 
     57 CA          3.9845  -10.5530  -45.2556 C.3       3 UNK         0.1400 
     58 CB          5.3049   -9.7553  -45.2265 C.3       3 UNK        -0.1800 
     59 N           4.0763  -11.6253  -46.2476 N.am      3 UNK        -0.5000 
     60 C           3.9175  -11.4562  -47.5670 C.2       2 UNK         0.5000 
     61 O           3.6532  -10.3769  -48.0960 O.2       2 UNK        -0.5000 
     62 CA          4.0721  -12.7078  -48.4516 C.3       2 UNK         0.1400 
     63 CB          5.5215  -12.8250  -48.9475 C.3       2 UNK        -0.1800 
     64 N           3.7107  -13.9478  -47.7581 N.am      2 UNK        -0.5000 
     65 C           2.4930  -14.3664  -47.3811 C.2       1 UNK         0.5000 
     66 O           2.3581  -15.4068  -46.7438 O.2       1 UNK        -0.5000 
     67 C          -1.4275  -22.7246  -47.7985 C.2       11 UNK         0.5000 
     68 O          -1.5573  -23.6934  -48.5497 O.2       11 UNK        -0.5000 
     69 N          -2.4517  -22.1648  -47.1381 N.am      12 UNK        -0.5000 
     70 CA         -3.8348  -22.6444  -47.1942 C.3       12 UNK         0.1400 
     71 CB         -4.7459  -21.7141  -46.3794 C.3       12 UNK        -0.1800 
     72 C          -3.9929  -24.1023  -46.7236 C.2       12 UNK         0.5000 
     73 O          -4.7283  -24.8638  -47.3508 O.2       12 UNK        -0.5000 
     74 N          -3.2907  -24.4622  -45.6429 N.am      13 UNK        -0.5000 
     75 CA         -3.3000  -25.7980  -45.0573 C.3       13 UNK         0.1400 
     76 CB         -2.7704  -25.7238  -43.6157 C.3       13 UNK        -0.1800 
     77 C          -2.5038  -26.8237  -45.8839 C.2       13 UNK         0.5000 
     78 O          -3.0565  -27.8576  -46.2612 O.2       13 UNK        -0.5000 
     79 N          -1.2135  -26.5472  -46.1129 N.am      14 UNK        -0.5000 
     80 CA         -0.2550  -27.5241  -46.6312 C.3       14 UNK         0.1400 
     81 CB          1.1486  -27.1856  -46.1047 C.3       14 UNK        -0.1800 
     82 C          -0.2357  -27.6155  -48.1639 C.2       14 UNK         0.5000 
     83 O          -0.0564  -28.7126  -48.6945 O.2       14 UNK        -0.5000 
     84 N          -0.3975  -26.4759  -48.8476 N.am      15 UNK        -0.5000 
     85 CA         -0.2911  -26.3702  -50.3057 C.3       15 UNK         0.1400 
     86 CB          0.6378  -25.1919  -50.6525 C.3       15 UNK        -0.1800 
     87 C          -1.6612  -26.2037  -50.9844 C.2       15 UNK         0.5000 
     88 O          -1.7029  -26.0174  -52.2009 O.2       15 UNK        -0.5000 
     89 N          -2.7523  -26.2200  -50.2012 N.am      16 UNK        -0.5000 
     90 CA         -4.1361  -25.9454  -50.6165 C.3       16 UNK         0.1400 
     91 CB         -4.6644  -27.0684  -51.5332 C.3       16 UNK        -0.1800 
     92 C          -4.2948  -24.5382  -51.2366 C.2       16 UNK         0.5000 
     93 O          -5.0745  -24.3516  -52.1722 O.2       16 UNK        -0.5000 
     94 N          -3.4925  -23.5883  -50.7323 N.am      17 UNK        -0.5000 
     95 CA         -3.3089  -22.2145  -51.2074 C.3       17 UNK         0.1400 
     96 CB         -4.6115  -21.4069  -51.0885 C.3       17 UNK        -0.1800 
     97 C          -2.6723  -22.1089  -52.6110 C.2       17 UNK         0.5000 
     98 O          -2.7317  -21.0436  -53.2290 O.2       17 UNK        -0.5000 
     99 N          -2.1016  -23.2198  -53.1087 N.am      18 UNK        -0.5000 
    100 CA        -1.4476  -23.4045  -54.4114 C.3       18 UNK         0.1400 
    101 CB        -0.1440  -22.5815  -54.4636 C.3       18 UNK        -0.1800 
    102 C         -2.3557  -23.1265  -55.6318 C.2       18 UNK         0.5000 
    103 O         -1.8478  -23.0007  -56.7469 O.2       18 UNK        -0.5000 
    104 N         -3.6713  -22.9930  -55.3938 N.am      19 UNK        -0.5000 
    105 CA        -4.6992  -22.4584  -56.2960 C.3       19 UNK         0.1400 
    106 CB        -4.9426  -23.4196  -57.4778 C.3       19 UNK        -0.1800 
    107 C         -4.4208  -21.0053  -56.7557 C.2       19 UNK         0.5000 
    108 O         -4.9544  -20.5774  -57.7809 O.2       19 UNK        -0.5000 
    109 N         -3.5851  -20.2750  -56.0035 N.am      20 UNK        -0.5000 
    110 CA        -3.0911  -18.9428  -56.3507 C.3       20 UNK         0.1400 
    111 CB        -1.6045  -18.8673  -55.9658 C.3       20 UNK        -0.1800 
    112 C         -3.8736  -17.8211  -55.6487 C.2       20 UNK         0.5000 
    113 O         -3.8527  -16.6835  -56.1209 O.2       20 UNK        -0.5000 
    114 N         -4.5348  -18.1489  -54.5353 N.am      21 UNK        -0.5000 
    115 CA        -5.2570  -17.2349  -53.6587 C.3       21 UNK         0.1400 
    116 CB        -4.2475  -16.4200  -52.8279 C.3       21 UNK        -0.1800 
    117 C         -6.1949  -18.0548  -52.7593 C.2       21 UNK         0.5000 
    118 O         -6.2101  -19.2841  -52.8552 O.2       21 UNK        -0.5000 
    119 N         -6.9588  -17.3619  -51.9047 N.am      22 UNK        -0.5000 
    120 CA        -7.8384  -17.9376  -50.8675 C.3       22 UNK         0.1400 
    121 C         -9.0306  -18.7947  -51.4011 C.2       22 UNK         0.5000 
    122 N         -9.4151  -18.6768  -52.6661 N.am      22 UNK        -0.7600 
    123 O         -9.6468  -19.5494  -50.6532 O.2       22 UNK        -0.5000 
    124 C124       -7.0388  -18.6477  -49.7353 C.3       23 UNK        -0.0398 
    125 S125       -5.9930  -17.4814  -48.7941 S.3       23 UNK        -0.2404 
    126 C126       -4.4516  -18.4225  -48.4978 C.3       23 UNK        -0.0205 
    127 H127        0.2264  -11.1640  -44.2062 H         1 UNK         0.0600 
    128 H128       -0.8644  -12.5374  -44.4634 H         1 UNK         0.0600 
    129 H129       -1.3229  -10.9336  -45.0214 H         1 UNK         0.0600 
    130 H130        0.5988  -13.8151  -45.7437 H         1 UNK         0.3000 
    131 H131        1.4696  -12.7132  -48.3604 H         1 UNK         0.0600 
    132 H132        0.7671  -14.7874  -49.4763 H         1 UNK         0.0800 
    133 H133        0.0060  -15.3746  -48.0209 H         1 UNK         0.0800 
    134 H134       -2.7104  -14.2121  -50.8930 H         1 UNK         0.0800 
    135 H135       -1.0286  -14.4495  -51.2917 H         1 UNK         0.0800 
    136 H136       -3.8134  -15.8281  -49.2188 H         1 UNK         0.1150 
    137 H137       -2.3420  -19.8440  -49.3917 H         1 UNK         0.1150 
    138 H138       -0.0488  -16.6314  -51.0707 H         1 UNK         0.1150 
    139 H139        0.1372  -19.2731  -51.7881 H         1 UNK         0.0800 
    140 H140        1.0405  -18.8262  -50.3618 H         1 UNK         0.0800 
    141 H141       -0.3988  -20.0348  -47.9643 H         1 UNK         0.0800 
    142 H142        1.2679  -20.4931  -48.1368 H         1 UNK         0.0800 
    143 H143        0.6976  -22.8857  -47.9048 H         1 UNK         0.0600 
    144 H144        0.4075  -21.0175  -45.7988 H         1 UNK         0.3000 
    145 H145        0.0338  -23.3836  -43.1242 H         1 UNK         0.0600 
    146 H146        1.9449  -22.0439  -42.3029 H         1 UNK         0.0600 
    147 H147        2.4717  -23.1197  -43.5876 H         1 UNK         0.0600 
    148 H148        2.2368  -21.4089  -43.9210 H         1 UNK         0.0600 
    149 H149        0.0199  -20.5520  -43.0880 H         1 UNK         0.3000 
    150 H150       -3.5098  -20.1107  -43.6766 H         1 UNK         0.0600 
    151 H151       -3.2069  -20.5862  -41.2473 H         1 UNK         0.0600 
    152 H152       -3.2399  -18.8566  -41.5569 H         1 UNK         0.0600 
    153 H153       -1.7075  -19.6662  -41.2393 H         1 UNK         0.0600 
    154 H154       -1.4800  -18.1858  -43.2523 H         1 UNK         0.3000 
    155 H155       -0.5259  -17.7318  -46.6928 H         1 UNK         0.0600 
    156 H156       -2.4797  -16.3027  -46.3079 H         1 UNK         0.0600 
    157 H157       -1.0356  -15.3944  -45.8916 H         1 UNK         0.0600 
    158 H158       -2.0494  -16.0633  -44.6201 H         1 UNK         0.0600 
    159 H159        0.4760  -16.5826  -44.2835 H         1 UNK         0.3000 
    160 H160        2.9721  -19.0604  -43.6072 H         1 UNK         0.0600 
    161 H161        3.2379  -16.1325  -44.4327 H         1 UNK         0.0600 
    162 H162        3.9442  -17.4775  -45.3195 H         1 UNK         0.0600 
    163 H163        4.4651  -17.1408  -43.6744 H         1 UNK         0.0600 
    164 H164        2.1546  -16.5893  -42.3476 H         1 UNK         0.3000 
    165 H165       -0.1277  -18.0823  -40.0554 H         1 UNK         0.0600 
    166 H166        1.4036  -17.0415  -38.4054 H         1 UNK         0.0600 
    167 H167        2.1181  -18.5128  -39.0449 H         1 UNK         0.0600 
    168 H168        2.6880  -16.9472  -39.6109 H         1 UNK         0.0600 
    169 H169        0.8604  -15.4229  -40.3228 H         1 UNK         0.3000 
    170 H170       -1.3390  -14.2801  -42.8470 H         1 UNK         0.0600 
    171 H171       -2.8307  -14.2672  -40.8497 H         1 UNK         0.0600 
    172 H172       -1.4870  -13.7741  -39.8261 H         1 UNK         0.0600 
    173 H173       -2.0838  -12.6957  -41.0883 H         1 UNK         0.0600 
    174 H174        0.5087  -12.9992  -41.0439 H         1 UNK         0.3000 
    175 H175        2.3699  -12.1396  -41.7872 H         1 UNK         0.0600 
    176 H176        3.9913  -14.5843  -42.7018 H         1 UNK         0.0600 
    177 H177        4.6002  -13.2370  -41.7464 H         1 UNK         0.0600 
    178 H178        3.3950  -14.3182  -41.0666 H         1 UNK         0.0600 
    179 H179        2.7940  -12.8057  -44.6154 H         1 UNK         0.3000 
    180 H180        3.1809   -9.8749  -45.5507 H         1 UNK         0.0600 
    181 H181        6.1423  -10.3832  -44.9203 H         1 UNK         0.0600 
    182 H182        5.2482   -8.9177  -44.5304 H         1 UNK         0.0600 
    183 H183        5.5408   -9.3378  -46.2053 H         1 UNK         0.0600 
    184 H184        4.3336  -12.5387  -45.9010 H         1 UNK         0.3000 
    185 H185        3.4378  -12.5907  -49.3319 H         1 UNK         0.0600 
    186 H186        5.8219  -11.9287  -49.4922 H         1 UNK         0.0600 
    187 H187        6.2223  -12.9568  -48.1220 H         1 UNK         0.0600 
    188 H188        5.6395  -13.6698  -49.6264 H         1 UNK         0.0600 
    189 H189        4.4920  -14.5388  -47.5158 H         1 UNK         0.3000 
    190 H190       -2.2779  -21.3408  -46.5672 H         1 UNK         0.3000 
    191 H191       -4.1543  -22.5969  -48.2345 H         1 UNK         0.0600 
    192 H192       -4.6413  -20.6770  -46.6912 H         1 UNK         0.0600 
    193 H193       -5.7937  -21.9887  -46.5063 H         1 UNK         0.0600 
    194 H194       -4.5241  -21.7610  -45.3139 H         1 UNK         0.0600 
    195 H195       -2.7548  -23.7517  -45.1531 H         1 UNK         0.3000 
    196 H196       -4.3354  -26.1428  -45.0109 H         1 UNK         0.0600 
    197 H197       -2.7599  -26.7101  -43.1503 H         1 UNK         0.0600 
    198 H198       -3.3990  -25.0800  -43.0002 H         1 UNK         0.0600 
    199 H199       -1.7544  -25.3293  -43.5765 H         1 UNK         0.0600 
    200 H200       -0.8279  -25.6540  -45.8090 H         1 UNK         0.3000 
    201 H201       -0.5182  -28.5117  -46.2454 H         1 UNK         0.0600 
    202 H202        1.1622  -27.1411  -45.0156 H         1 UNK         0.0600 
    203 H203        1.5018  -26.2259  -46.4838 H         1 UNK         0.0600 
    204 H204        1.8722  -27.9429  -46.4089 H         1 UNK         0.0600 
    205 H205       -0.5882  -25.6138  -48.3495 H         1 UNK         0.3000 
    206 H206        0.1572  -27.2738  -50.7234 H         1 UNK         0.0600 
    207 H207        1.6063  -25.2959  -50.1634 H         1 UNK         0.0600 
    208 H208        0.8230  -25.1419  -51.7263 H         1 UNK         0.0600 
    209 H209        0.2138  -24.2335  -50.3545 H         1 UNK         0.0600 
    210 H210       -2.6097  -26.3572  -49.2104 H         1 UNK         0.3000 
    211 H211       -4.7423  -25.9529  -49.7113 H         1 UNK         0.0600 
    212 H212       -4.1539  -27.0818  -52.4966 H         1 UNK         0.0600 
    213 H213       -5.7294  -26.9419  -51.7308 H         1 UNK         0.0600 
    214 H214       -4.5354  -28.0471  -51.0712 H         1 UNK         0.0600 
    215 H215       -2.8629  -23.8582  -49.9805 H         1 UNK         0.3000 
    216 H216       -2.5961  -21.7723  -50.5185 H         1 UNK         0.0600 
    217 H217       -4.4108  -20.3435  -51.2211 H         1 UNK         0.0600 
    218 H218       -5.0747  -21.5305  -50.1109 H         1 UNK         0.0600 
    219 H219       -5.3411  -21.6995  -51.8438 H         1 UNK         0.0600 
    220 H220       -2.1344  -24.0623  -52.5444 H         1 UNK         0.3000 
    221 H221       -1.1783  -24.4598  -54.4694 H         1 UNK         0.0600 
    222 H222       -0.3428  -21.5094  -54.4728 H         1 UNK         0.0600 
    223 H223        0.4913  -22.7963  -53.6041 H         1 UNK         0.0600 
    224 H224        0.4338  -22.8145  -55.3586 H         1 UNK         0.0600 
    225 H225       -3.9742  -23.1403  -54.4403 H         1 UNK         0.3000 
    226 H226       -5.6188  -22.4154  -55.7109 H         1 UNK         0.0600 
    227 H227       -5.1348  -24.4338  -57.1279 H         1 UNK         0.0600 
    228 H228       -5.8098  -23.1102  -58.0621 H         1 UNK         0.0600 
    229 H229       -4.0891  -23.4540  -58.1553 H         1 UNK         0.0600 
    230 H230       -3.2190  -20.6776  -55.1457 H         1 UNK         0.3000 
    231 H231       -3.1707  -18.7815  -57.4277 H         1 UNK         0.0600 
    232 H232       -1.4593  -19.0086  -54.8936 H         1 UNK         0.0600 
    233 H233       -1.1793  -17.8985  -56.2308 H         1 UNK         0.0600 
    234 H234       -1.0244  -19.6309  -56.4847 H         1 UNK         0.0600 
    235 H235       -4.5556  -19.1147  -54.2299 H         1 UNK         0.3000 
    236 H236       -5.8702  -16.5629  -54.2621 H         1 UNK         0.0600 
    237 H237       -3.6216  -15.7915  -53.4611 H         1 UNK         0.0600 
    238 H238       -3.5893  -17.0824  -52.2656 H         1 UNK         0.0600 
    239 H239       -4.7429  -15.7608  -52.1147 H         1 UNK         0.0600 
    240 H240       -6.8989  -16.3541  -51.9069 H         1 UNK         0.3000 
    241 H241       -8.3333  -17.0800  -50.4106 H         1 UNK         0.0600 
    242 H242      -10.1925  -19.2232  -53.0021 H         1 UNK         0.3800 
    243 H243       -8.9254  -18.0606  -53.2946 H         1 UNK         0.3800 
    244 H244       -6.4358  -19.4541  -50.1485 H         1 UNK         0.0800 
    245 H245       -7.7108  -19.1134  -49.0130 H         1 UNK         0.0800 
    246 H246       -4.6140  -19.4758  -48.7245 H         1 UNK         0.0800 
    247 H247       -4.2271  -18.3719  -47.4320 H         1 UNK         0.0800 
@<TRIPOS>BOND
     1    1    2 1    
     2    1  127 1    
     3    1  128 1    
     4    1  129 1    
     5    2    3 2    
     6    2    4 am   BACKBONE|DICT|INTERRES
     7    4    5 1    
     8    4  130 1    
     9    5    6 1    
    10    5   65 1    
    11    5  131 1    
    12    6    7 1    
    13    6  132 1    
    14    6  133 1    
    15    7    8 1    
    16    8    9 1    
    17    8  134 1    
    18    8  135 1    
    19    9   10 ar   
    20    9   14 ar   
    21   10   11 ar   
    22   10  136 1    
    23   11   12 ar   
    24   11  126 1    
    25   12   13 ar   
    26   12  137 1    
    27   13   14 ar   
    28   13   15 1    
    29   14  138 1    
    30   15   16 1    
    31   15  139 1    
    32   15  140 1    
    33   16   17 1    
    34   17   18 1    
    35   17  141 1    
    36   17  142 1    
    37   18   19 1    
    38   18   67 1    
    39   18  143 1    
    40   19   20 am   BACKBONE|DICT|INTERRES
    41   19  144 1    
    42   20   21 2    
    43   20   22 1    
    44   22   23 1    
    45   22   24 1    
    46   22  145 1    
    47   23  146 1    
    48   23  147 1    
    49   23  148 1    
    50   24   25 am   BACKBONE|DICT|INTERRES
    51   24  149 1    
    52   25   26 2    
    53   25   27 1    
    54   27   28 1    
    55   27   29 1    
    56   27  150 1    
    57   28  151 1    
    58   28  152 1    
    59   28  153 1    
    60   29   30 am   BACKBONE|DICT|INTERRES
    61   29  154 1    
    62   30   31 2    
    63   30   32 1    
    64   32   33 1    
    65   32   34 1    
    66   32  155 1    
    67   33  156 1    
    68   33  157 1    
    69   33  158 1    
    70   34   35 am   BACKBONE|DICT|INTERRES
    71   34  159 1    
    72   35   36 2    
    73   35   37 1    
    74   37   38 1    
    75   37   39 1    
    76   37  160 1    
    77   38  161 1    
    78   38  162 1    
    79   38  163 1    
    80   39   40 am   BACKBONE|DICT|INTERRES
    81   39  164 1    
    82   40   41 2    
    83   40   42 1    
    84   42   43 1    
    85   42   44 1    
    86   42  165 1    
    87   43  166 1    
    88   43  167 1    
    89   43  168 1    
    90   44   45 am   BACKBONE|DICT|INTERRES
    91   44  169 1    
    92   45   46 2    
    93   45   47 1    
    94   47   48 1    
    95   47   49 1    
    96   47  170 1    
    97   48  171 1    
    98   48  172 1    
    99   48  173 1    
   100   49   50 am   BACKBONE|DICT|INTERRES
   101   49  174 1    
   102   50   51 2    
   103   50   52 1    
   104   52   53 1    
   105   52   54 1    
   106   52  175 1    
   107   53  176 1    
   108   53  177 1    
   109   53  178 1    
   110   54   55 am   BACKBONE|DICT|INTERRES
   111   54  179 1    
   112   55   56 2    
   113   55   57 1    
   114   57   58 1    
   115   57   59 1    
   116   57  180 1    
   117   58  181 1    
   118   58  182 1    
   119   58  183 1    
   120   59   60 am   BACKBONE|DICT|INTERRES
   121   59  184 1    
   122   60   61 2    
   123   60   62 1    
   124   62   63 1    
   125   62   64 1    
   126   62  185 1    
   127   63  186 1    
   128   63  187 1    
   129   63  188 1    
   130   64   65 am   BACKBONE|DICT|INTERRES
   131   64  189 1    
   132   65   66 2    
   133   67   68 2    
   134   67   69 am   BACKBONE|DICT|INTERRES
   135   69   70 1    
   136   69  190 1    
   137   70   71 1    
   138   70   72 1    
   139   70  191 1    
   140   71  192 1    
   141   71  193 1    
   142   71  194 1    
   143   72   73 2    
   144   72   74 am   BACKBONE|DICT|INTERRES
   145   74   75 1    
   146   74  195 1    
   147   75   76 1    
   148   75   77 1    
   149   75  196 1    
   150   76  197 1    
   151   76  198 1    
   152   76  199 1    
   153   77   78 2    
   154   77   79 am   BACKBONE|DICT|INTERRES
   155   79   80 1    
   156   79  200 1    
   157   80   81 1    
   158   80   82 1    
   159   80  201 1    
   160   81  202 1    
   161   81  203 1    
   162   81  204 1    
   163   82   83 2    
   164   82   84 am   BACKBONE|DICT|INTERRES
   165   84   85 1    
   166   84  205 1    
   167   85   86 1    
   168   85   87 1    
   169   85  206 1    
   170   86  207 1    
   171   86  208 1    
   172   86  209 1    
   173   87   88 2    
   174   87   89 am   BACKBONE|DICT|INTERRES
   175   89   90 1    
   176   89  210 1    
   177   90   91 1    
   178   90   92 1    
   179   90  211 1    
   180   91  212 1    
   181   91  213 1    
   182   91  214 1    
   183   92   93 2    
   184   92   94 am   BACKBONE|DICT|INTERRES
   185   94   95 1    
   186   94  215 1    
   187   95   96 1    
   188   95   97 1    
   189   95  216 1    
   190   96  217 1    
   191   96  218 1    
   192   96  219 1    
   193   97   98 2    
   194   97   99 am   BACKBONE|DICT|INTERRES
   195   99  100 1    
   196   99  220 1    
   197  100  101 1    
   198  100  102 1    
   199  100  221 1    
   200  101  222 1    
   201  101  223 1    
   202  101  224 1    
   203  102  103 2    
   204  102  104 am   BACKBONE|DICT|INTERRES
   205  104  105 1    
   206  104  225 1    
   207  105  106 1    
   208  105  107 1    
   209  105  226 1    
   210  106  227 1    
   211  106  228 1    
   212  106  229 1    
   213  107  108 2    
   214  107  109 am   BACKBONE|DICT|INTERRES
   215  109  110 1    
   216  109  230 1    
   217  110  111 1    
   218  110  112 1    
   219  110  231 1    
   220  111  232 1    
   221  111  233 1    
   222  111  234 1    
   223  112  113 2    
   224  112  114 am   BACKBONE|DICT|INTERRES
   225  114  115 1    
   226  114  235 1    
   227  115  116 1    
   228  115  117 1    
   229  115  236 1    
   230  116  237 1    
   231  116  238 1    
   232  116  239 1    
   233  117  118 2    
   234  117  119 am   BACKBONE|DICT|INTERRES
   235  119  120 1    
   236  119  240 1    
   237  120  121 1    
   238  120  124 1    
   239  120  241 1    
   240  121  122 am   BACKBONE|DICT|INTERRES
   241  121  123 2    
   242  122  242 1    
   243  122  243 1    
   244  124  125 1    
   245  124  244 1    
   246  124  245 1    
   247  125  126 1    
   248  126  246 1    
   249  126  247 1    
@<TRIPOS>SUBSTRUCTURE
     1 UNK         1 GROUP             0       ****    0 ROOT    
