@<TRIPOS>MOLECULE
3R540
247   249    1
SMALL
USER_CHARGES


@<TRIPOS>ATOM
      1 CA         -0.0279  -13.9278  -49.8555 C.3       0 UNK        -0.1800 
      2 C           1.4576  -13.9664  -49.5299 C.2       0 UNK         0.5000 
      3 O           2.1588  -12.9763  -49.7373 O.2       0 UNK        -0.5000 
      4 N           1.9370  -15.1143  -49.0372 N.am      1 UNK        -0.5000 
      5 CA          3.3228  -15.3529  -48.6226 C.3       1 UNK         0.1400 
      6 C6          3.5744  -16.8364  -48.2589 C.3       23 UNK        -0.0398 
      7 S7          3.2092  -17.9968  -49.6203 S.3       23 UNK        -0.2404 
      8 C8          1.8521  -18.9836  -48.9131 C.3       23 UNK        -0.0205 
      9 C9          0.5048  -18.2974  -49.0661 C.ar      23 UNK        -0.0193 
     10 C10        -0.2418  -18.4824  -50.2332 C.ar      23 UNK        -0.1150 
     11 C11        -1.4946  -17.8750  -50.3905 C.ar      23 UNK        -0.0193 
     12 C12        -1.9910  -17.0829  -49.3516 C.ar      23 UNK        -0.1150 
     13 C13        -1.2585  -16.8937  -48.1770 C.ar      23 UNK        -0.0193 
     14 C14        -0.0073  -17.5007  -48.0391 C.ar      23 UNK        -0.1150 
     15 C15        -1.8398  -16.0578  -47.0493 C.3       23 UNK        -0.0205 
     16 S16        -3.1430  -16.9578  -46.1531 S.3       23 UNK        -0.2404 
     17 C17        -2.1666  -18.2358  -45.2949 C.3       23 UNK        -0.0398 
     18 CA         -2.0204  -19.5453  -46.1096 C.3       11 UNK         0.1400 
     19 N          -0.8329  -20.2996  -45.7052 N.am      11 UNK        -0.5000 
     20 C          -0.3270  -21.3595  -46.3475 C.2       10 UNK         0.5000 
     21 O          -0.7755  -21.7874  -47.4075 O.2       10 UNK        -0.5000 
     22 CA          0.8470  -22.0915  -45.6766 C.3       10 UNK         0.1400 
     23 CB          2.1936  -21.5117  -46.1302 C.3       10 UNK        -0.1800 
     24 N           0.7533  -22.0317  -44.2188 N.am      10 UNK        -0.5000 
     25 C          -0.0710  -22.7934  -43.4871 C.2       9 UNK         0.5000 
     26 O          -0.7864  -23.6760  -43.9617 O.2       9 UNK        -0.5000 
     27 CA         -0.1305  -22.4915  -41.9772 C.3       9 UNK         0.1400 
     28 CB          0.9958  -23.2245  -41.2336 C.3       9 UNK        -0.1800 
     29 N          -0.0575  -21.0587  -41.6774 N.am      9 UNK        -0.5000 
     30 C          -1.0086  -20.1719  -42.0016 C.2       8 UNK         0.5000 
     31 O          -2.0540  -20.4749  -42.5765 O.2       8 UNK        -0.5000 
     32 CA         -0.7309  -18.6919  -41.6720 C.3       8 UNK         0.1400 
     33 CB         -1.1711  -18.3735  -40.2360 C.3       8 UNK        -0.1800 
     34 N           0.6576  -18.2567  -41.8651 N.am      8 UNK        -0.5000 
     35 C           1.3741  -18.3963  -42.9915 C.2       7 UNK         0.5000 
     36 O           0.9826  -19.0379  -43.9656 O.2       7 UNK        -0.5000 
     37 CA          2.7420  -17.6936  -43.0464 C.3       7 UNK         0.1400 
     38 CB          3.1834  -17.3959  -44.4909 C.3       7 UNK        -0.1800 
     39 N           2.6911  -16.4349  -42.3090 N.am      7 UNK        -0.5000 
     40 C           3.5206  -16.0681  -41.3242 C.2       6 UNK         0.5000 
     41 O           4.4334  -16.7776  -40.9007 O.2       6 UNK        -0.5000 
     42 CA          3.3072  -14.6696  -40.7073 C.3       6 UNK         0.1400 
     43 CB          4.4170  -13.7102  -41.1654 C.3       6 UNK        -0.1800 
     44 N           2.0094  -14.0771  -41.0391 N.am      6 UNK        -0.5000 
     45 C           0.8298  -14.4776  -40.5450 C.2       5 UNK         0.5000 
     46 O           0.7112  -15.3597  -39.6953 O.2       5 UNK        -0.5000 
     47 CA         -0.4270  -13.8076  -41.1343 C.3       5 UNK         0.1400 
     48 CB         -0.8645  -12.6217  -40.2623 C.3       5 UNK        -0.1800 
     49 N          -0.2375  -13.3431  -42.5117 N.am      5 UNK        -0.5000 
     50 C          -0.0391  -14.1337  -43.5738 C.2       4 UNK         0.5000 
     51 O          -0.0011  -15.3618  -43.5096 O.2       4 UNK        -0.5000 
     52 CA          0.2253  -13.4380  -44.9190 C.3       4 UNK         0.1400 
     53 CB         -1.0270  -12.7253  -45.4651 C.3       4 UNK        -0.1800 
     54 N           1.4020  -12.5627  -44.8884 N.am      4 UNK        -0.5000 
     55 C           1.5754  -11.3932  -44.2534 C.2       3 UNK         0.5000 
     56 O           0.6944  -10.8504  -43.5849 O.2       3 UNK        -0.5000 
     57 CA          2.9718  -10.7369  -44.3325 C.3       3 UNK         0.1400 
     58 CB          3.4338  -10.2454  -42.9495 C.3       3 UNK        -0.1800 
     59 N           3.9893  -11.6471  -44.8646 N.am      3 UNK        -0.5000 
     60 C           4.3696  -11.7240  -46.1457 C.2       2 UNK         0.5000 
     61 O           3.9431  -10.9798  -47.0297 O.2       2 UNK        -0.5000 
     62 CA          5.3802  -12.8340  -46.5166 C.3       2 UNK         0.1400 
     63 CB          5.9165  -13.6362  -45.3065 C.3       2 UNK        -0.1800 
     64 N           4.8332  -13.7480  -47.5263 N.am      2 UNK        -0.5000 
     65 C           3.7005  -14.4584  -47.4241 C.2       1 UNK         0.5000 
     66 O           2.9751  -14.4521  -46.4273 O.2       1 UNK        -0.5000 
     67 C          -3.2949  -20.4099  -46.0701 C.2       11 UNK         0.5000 
     68 O          -4.0751  -20.3833  -47.0217 O.2       11 UNK        -0.5000 
     69 N          -3.4431  -21.2224  -45.0140 N.am      12 UNK        -0.5000 
     70 CA         -4.5196  -22.2046  -44.8581 C.3       12 UNK         0.1400 
     71 CB         -4.4338  -22.8235  -43.4549 C.3       12 UNK        -0.1800 
     72 C          -4.5094  -23.3060  -45.9389 C.2       12 UNK         0.5000 
     73 O          -5.5728  -23.8081  -46.3032 O.2       12 UNK        -0.5000 
     74 N          -3.3160  -23.6418  -46.4452 N.am      13 UNK        -0.5000 
     75 CA         -3.1061  -24.5819  -47.5466 C.3       13 UNK         0.1400 
     76 CB         -1.7465  -25.2701  -47.3432 C.3       13 UNK        -0.1800 
     77 C          -3.1555  -23.9086  -48.9330 C.2       13 UNK         0.5000 
     78 O          -3.1237  -24.6217  -49.9364 O.2       13 UNK        -0.5000 
     79 N          -3.1903  -22.5663  -48.9733 N.am      14 UNK        -0.5000 
     80 CA         -3.0321  -21.7000  -50.1474 C.3       14 UNK         0.1400 
     81 CB         -4.3003  -21.7360  -51.0169 C.3       14 UNK        -0.1800 
     82 C          -1.7459  -22.0438  -50.9263 C.2       14 UNK         0.5000 
     83 O          -1.8027  -22.4055  -52.1043 O.2       14 UNK        -0.5000 
     84 N          -0.6233  -22.0347  -50.1930 N.am      15 UNK        -0.5000 
     85 CA          0.6829  -22.6137  -50.5148 C.3       15 UNK         0.1400 
     86 CB          1.3093  -22.0044  -51.7867 C.3       15 UNK        -0.1800 
     87 C           0.5992  -24.1492  -50.5635 C.2       15 UNK         0.5000 
     88 O           1.0957  -24.8162  -49.6554 O.2       15 UNK        -0.5000 
     89 N          -0.0682  -24.6686  -51.5970 N.am      16 UNK        -0.5000 
     90 CA         -0.4234  -26.0754  -51.7655 C.3       16 UNK         0.1400 
     91 CB          0.7893  -26.8563  -52.3096 C.3       16 UNK        -0.1800 
     92 C          -1.6672  -26.2532  -52.6611 C.2       16 UNK         0.5000 
     93 O          -1.9799  -27.3872  -53.0280 O.2       16 UNK        -0.5000 
     94 N          -2.3468  -25.1561  -53.0312 N.am      17 UNK        -0.5000 
     95 CA         -3.4727  -25.1698  -53.9663 C.3       17 UNK         0.1400 
     96 CB         -3.6049  -23.7774  -54.5988 C.3       17 UNK        -0.1800 
     97 C          -4.8090  -25.5775  -53.3231 C.2       17 UNK         0.5000 
     98 O          -5.7322  -25.9380  -54.0549 O.2       17 UNK        -0.5000 
     99 N          -4.9122  -25.4708  -51.9898 N.am      18 UNK        -0.5000 
    100 CA        -6.0950  -25.6424  -51.1349 C.3       18 UNK         0.1400 
    101 CB        -6.6793  -27.0637  -51.2415 C.3       18 UNK        -0.1800 
    102 C         -7.1782  -24.5647  -51.3466 C.2       18 UNK         0.5000 
    103 O         -7.6614  -23.9913  -50.3699 O.2       18 UNK        -0.5000 
    104 N         -7.5307  -24.2969  -52.6084 N.am      19 UNK        -0.5000 
    105 CA        -8.4166  -23.2186  -53.0321 C.3       19 UNK         0.1400 
    106 CB        -8.8455  -23.4719  -54.4853 C.3       19 UNK        -0.1800 
    107 C         -7.7204  -21.8524  -52.9143 C.2       19 UNK         0.5000 
    108 O         -6.5312  -21.7382  -53.2223 O.2       19 UNK        -0.5000 
    109 N         -8.4957  -20.8271  -52.5366 N.am      20 UNK        -0.5000 
    110 CA        -8.0534  -19.4448  -52.3081 C.3       20 UNK         0.1400 
    111 CB        -9.2299  -18.6439  -51.7278 C.3       20 UNK        -0.1800 
    112 C         -7.4651  -18.7254  -53.5417 C.2       20 UNK         0.5000 
    113 O         -6.8633  -17.6619  -53.3886 O.2       20 UNK        -0.5000 
    114 N         -7.6256  -19.3201  -54.7322 N.am      21 UNK        -0.5000 
    115 CA        -7.0052  -18.9025  -55.9896 C.3       21 UNK         0.1400 
    116 CB        -7.5615  -19.7731  -57.1268 C.3       21 UNK        -0.1800 
    117 C         -5.4627  -18.9625  -55.9717 C.2       21 UNK         0.5000 
    118 O         -4.8321  -18.2290  -56.7337 O.2       21 UNK        -0.5000 
    119 N         -4.8847  -19.8065  -55.1007 N.am      22 UNK        -0.5000 
    120 CA        -3.4335  -19.9258  -54.8619 C.3       22 UNK         0.1400 
    121 C         -2.6299  -20.5841  -56.0288 C.2       22 UNK         0.5000 
    122 N         -3.2754  -21.2434  -56.9839 N.am      22 UNK        -0.7600 
    123 O         -1.4046  -20.5191  -56.0678 O.2       22 UNK        -0.5000 
    124 C124       -2.8131  -18.5815  -54.3728 C.3       23 UNK        -0.0398 
    125 S125       -1.5305  -18.7888  -53.0903 S.3       23 UNK        -0.2404 
    126 C126       -2.3596  -18.0459  -51.6415 C.3       23 UNK        -0.0205 
    127 H127       -0.3659  -14.8859  -50.2496 H         1 UNK         0.0600 
    128 H128       -0.2371  -13.1656  -50.6062 H         1 UNK         0.0600 
    129 H129       -0.6045  -13.6949  -48.9604 H         1 UNK         0.0600 
    130 H130        1.3094  -15.8964  -48.9129 H         1 UNK         0.3000 
    131 H131        3.9645  -15.0952  -49.4677 H         1 UNK         0.0600 
    132 H132        2.9935  -17.1148  -47.3796 H         1 UNK         0.0800 
    133 H133        4.6201  -16.9831  -47.9823 H         1 UNK         0.0800 
    134 H134        2.0533  -19.1960  -47.8636 H         1 UNK         0.0800 
    135 H135        1.8266  -19.9509  -49.4146 H         1 UNK         0.0800 
    136 H136        0.1640  -19.1079  -51.0131 H         1 UNK         0.1150 
    137 H137       -2.9621  -16.6177  -49.4501 H         1 UNK         0.1150 
    138 H138        0.5551  -17.3719  -47.1244 H         1 UNK         0.1150 
    139 H139       -1.0608  -15.7607  -46.3486 H         1 UNK         0.0800 
    140 H140       -2.2584  -15.1373  -47.4583 H         1 UNK         0.0800 
    141 H141       -2.6278  -18.4282  -44.3257 H         1 UNK         0.0800 
    142 H142       -1.1853  -17.8134  -45.0735 H         1 UNK         0.0800 
    143 H143       -1.8674  -19.2921  -47.1582 H         1 UNK         0.0600 
    144 H144       -0.3342  -19.9596  -44.8874 H         1 UNK         0.3000 
    145 H145        0.8094  -23.1369  -45.9907 H         1 UNK         0.0600 
    146 H146        3.0256  -22.0617  -45.6906 H         1 UNK         0.0600 
    147 H147        2.2993  -20.4647  -45.8469 H         1 UNK         0.0600 
    148 H148        2.2996  -21.5772  -47.2136 H         1 UNK         0.0600 
    149 H149        1.2488  -21.2758  -43.7661 H         1 UNK         0.3000 
    150 H150       -1.0857  -22.8667  -41.6034 H         1 UNK         0.0600 
    151 H151        0.9546  -24.2979  -41.4238 H         1 UNK         0.0600 
    152 H152        0.9136  -23.0835  -40.1557 H         1 UNK         0.0600 
    153 H153        1.9805  -22.8734  -41.5447 H         1 UNK         0.0600 
    154 H154        0.7752  -20.7262  -41.2137 H         1 UNK         0.3000 
    155 H155       -1.3430  -18.0913  -42.3464 H         1 UNK         0.0600 
    156 H156       -2.1963  -18.7009  -40.0576 H         1 UNK         0.0600 
    157 H157       -1.1396  -17.3016  -40.0430 H         1 UNK         0.0600 
    158 H158       -0.5348  -18.8673  -39.5006 H         1 UNK         0.0600 
    159 H159        1.0571  -17.7051  -41.1191 H         1 UNK         0.3000 
    160 H160        3.4641  -18.3781  -42.5978 H         1 UNK         0.0600 
    161 H161        4.1363  -16.8671  -44.5141 H         1 UNK         0.0600 
    162 H162        3.3086  -18.3149  -45.0641 H         1 UNK         0.0600 
    163 H163        2.4473  -16.7792  -45.0083 H         1 UNK         0.0600 
    164 H164        1.9312  -15.8173  -42.5688 H         1 UNK         0.3000 
    165 H165        3.3715  -14.7771  -39.6225 H         1 UNK         0.0600 
    166 H166        4.3311  -12.7434  -40.6693 H         1 UNK         0.0600 
    167 H167        5.4036  -14.1078  -40.9236 H         1 UNK         0.0600 
    168 H168        4.3863  -13.5445  -42.2425 H         1 UNK         0.0600 
    169 H169        2.0070  -13.3434  -41.7308 H         1 UNK         0.3000 
    170 H170       -1.2271  -14.5508  -41.1345 H         1 UNK         0.0600 
    171 H171       -0.1107  -11.8334  -40.2479 H         1 UNK         0.0600 
    172 H172       -1.7962  -12.1881  -40.6260 H         1 UNK         0.0600 
    173 H173       -1.0334  -12.9353  -39.2312 H         1 UNK         0.0600 
    174 H174       -0.1938  -12.3394  -42.6628 H         1 UNK         0.3000 
    175 H175        0.4775  -14.2260  -45.6285 H         1 UNK         0.0600 
    176 H176       -1.3488  -11.9022  -44.8274 H         1 UNK         0.0600 
    177 H177       -0.8452  -12.3252  -46.4626 H         1 UNK         0.0600 
    178 H178       -1.8659  -13.4177  -45.5402 H         1 UNK         0.0600 
    179 H179        2.1966  -12.9496  -45.3894 H         1 UNK         0.3000 
    180 H180        2.8783   -9.8652  -44.9831 H         1 UNK         0.0600 
    181 H181        4.4245   -9.7936  -43.0018 H         1 UNK         0.0600 
    182 H182        3.4728  -11.0578  -42.2244 H         1 UNK         0.0600 
    183 H183        2.7564   -9.4871  -42.5548 H         1 UNK         0.0600 
    184 H184        4.3856  -12.3074  -44.2125 H         1 UNK         0.3000 
    185 H185        6.2289  -12.3287  -46.9798 H         1 UNK         0.0600 
    186 H186        6.6632  -14.3631  -45.6262 H         1 UNK         0.0600 
    187 H187        6.4028  -12.9822  -44.5816 H         1 UNK         0.0600 
    188 H188        5.1294  -14.1859  -44.7888 H         1 UNK         0.0600 
    189 H189        5.3460  -13.7838  -48.3962 H         1 UNK         0.3000 
    190 H190       -2.7873  -21.1427  -44.2414 H         1 UNK         0.3000 
    191 H191       -5.4693  -21.6722  -44.9402 H         1 UNK         0.0600 
    192 H192       -4.5202  -22.0602  -42.6813 H         1 UNK         0.0600 
    193 H193       -3.4888  -23.3466  -43.3038 H         1 UNK         0.0600 
    194 H194       -5.2379  -23.5426  -43.2940 H         1 UNK         0.0600 
    195 H195       -2.4914  -23.1864  -46.0791 H         1 UNK         0.3000 
    196 H196       -3.8824  -25.3495  -47.5264 H         1 UNK         0.0600 
    197 H197       -1.6990  -25.7754  -46.3784 H         1 UNK         0.0600 
    198 H198       -0.9231  -24.5565  -47.3884 H         1 UNK         0.0600 
    199 H199       -1.5673  -26.0214  -48.1135 H         1 UNK         0.0600 
    200 H200       -3.2270  -22.0756  -48.0889 H         1 UNK         0.3000 
    201 H201       -2.9110  -20.6827  -49.7722 H         1 UNK         0.0600 
    202 H202       -5.1847  -21.4693  -50.4385 H         1 UNK         0.0600 
    203 H203       -4.4709  -22.7213  -51.4486 H         1 UNK         0.0600 
    204 H204       -4.2263  -21.0263  -51.8406 H         1 UNK         0.0600 
    205 H205       -0.7343  -21.8100  -49.2047 H         1 UNK         0.3000 
    206 H206        1.3354  -22.3621  -49.6775 H         1 UNK         0.0600 
    207 H207        0.7101  -22.1803  -52.6796 H         1 UNK         0.0600 
    208 H208        1.4401  -20.9281  -51.6852 H         1 UNK         0.0600 
    209 H209        2.2956  -22.4314  -51.9711 H         1 UNK         0.0600 
    210 H210       -0.4657  -24.0174  -52.2626 H         1 UNK         0.3000 
    211 H211       -0.6934  -26.4831  -50.7891 H         1 UNK         0.0600 
    212 H212        1.0954  -26.4843  -53.2879 H         1 UNK         0.0600 
    213 H213        0.5617  -27.9175  -52.4163 H         1 UNK         0.0600 
    214 H214        1.6457  -26.7801  -51.6396 H         1 UNK         0.0600 
    215 H215       -2.1136  -24.2494  -52.6393 H         1 UNK         0.3000 
    216 H216       -3.2595  -25.8830  -54.7654 H         1 UNK         0.0600 
    217 H217       -4.3819  -23.7647  -55.3641 H         1 UNK         0.0600 
    218 H218       -2.6730  -23.4727  -55.0745 H         1 UNK         0.0600 
    219 H219       -3.8675  -23.0229  -53.8569 H         1 UNK         0.0600 
    220 H220       -4.0899  -25.1507  -51.4826 H         1 UNK         0.3000 
    221 H221       -5.7336  -25.5202  -50.1128 H         1 UNK         0.0600 
    222 H222       -5.9175  -27.8176  -51.0431 H         1 UNK         0.0600 
    223 H223       -7.4780  -27.2083  -50.5132 H         1 UNK         0.0600 
    224 H224       -7.1007  -27.2631  -52.2269 H         1 UNK         0.0600 
    225 H225       -7.0461  -24.8076  -53.3410 H         1 UNK         0.3000 
    226 H226       -9.3041  -23.2277  -52.3959 H         1 UNK         0.0600 
    227 H227       -9.3597  -24.4282  -54.5831 H         1 UNK         0.0600 
    228 H228       -9.5306  -22.6980  -54.8335 H         1 UNK         0.0600 
    229 H229       -7.9889  -23.4822  -55.1611 H         1 UNK         0.0600 
    230 H230       -9.4688  -21.0106  -52.3381 H         1 UNK         0.3000 
    231 H231       -7.2606  -19.4779  -51.5580 H         1 UNK         0.0600 
    232 H232       -8.9345  -17.6183  -51.5018 H         1 UNK         0.0600 
    233 H233       -9.5896  -19.0865  -50.7987 H         1 UNK         0.0600 
    234 H234      -10.0668  -18.5980  -52.4257 H         1 UNK         0.0600 
    235 H235       -8.1352  -20.1903  -54.7512 H         1 UNK         0.3000 
    236 H236       -7.2915  -17.8654  -56.1757 H         1 UNK         0.0600 
    237 H237       -7.3308  -20.8285  -56.9753 H         1 UNK         0.0600 
    238 H238       -8.6442  -19.6739  -57.2066 H         1 UNK         0.0600 
    239 H239       -7.1382  -19.4786  -58.0881 H         1 UNK         0.0600 
    240 H240       -5.4771  -20.3933  -54.5227 H         1 UNK         0.3000 
    241 H241       -3.3578  -20.6419  -54.0439 H         1 UNK         0.0600 
    242 H242       -2.7521  -21.6692  -57.7323 H         1 UNK         0.3800 
    243 H243       -4.2799  -21.3086  -56.9716 H         1 UNK         0.3800 
    244 H244       -3.5922  -17.9365  -53.9644 H         1 UNK         0.0800 
    245 H245       -2.3903  -18.0184  -55.2065 H         1 UNK         0.0800 
    246 H246       -3.2301  -18.6517  -51.3870 H         1 UNK         0.0800 
    247 H247       -2.7364  -17.0639  -51.9319 H         1 UNK         0.0800 
@<TRIPOS>BOND
     1    1    2 1    
     2    1  127 1    
     3    1  128 1    
     4    1  129 1    
     5    2    3 2    
     6    2    4 am   BACKBONE|DICT|INTERRES
     7    4    5 1    
     8    4  130 1    
     9    5    6 1    
    10    5   65 1    
    11    5  131 1    
    12    6    7 1    
    13    6  132 1    
    14    6  133 1    
    15    7    8 1    
    16    8    9 1    
    17    8  134 1    
    18    8  135 1    
    19    9   10 ar   
    20    9   14 ar   
    21   10   11 ar   
    22   10  136 1    
    23   11   12 ar   
    24   11  126 1    
    25   12   13 ar   
    26   12  137 1    
    27   13   14 ar   
    28   13   15 1    
    29   14  138 1    
    30   15   16 1    
    31   15  139 1    
    32   15  140 1    
    33   16   17 1    
    34   17   18 1    
    35   17  141 1    
    36   17  142 1    
    37   18   19 1    
    38   18   67 1    
    39   18  143 1    
    40   19   20 am   BACKBONE|DICT|INTERRES
    41   19  144 1    
    42   20   21 2    
    43   20   22 1    
    44   22   23 1    
    45   22   24 1    
    46   22  145 1    
    47   23  146 1    
    48   23  147 1    
    49   23  148 1    
    50   24   25 am   BACKBONE|DICT|INTERRES
    51   24  149 1    
    52   25   26 2    
    53   25   27 1    
    54   27   28 1    
    55   27   29 1    
    56   27  150 1    
    57   28  151 1    
    58   28  152 1    
    59   28  153 1    
    60   29   30 am   BACKBONE|DICT|INTERRES
    61   29  154 1    
    62   30   31 2    
    63   30   32 1    
    64   32   33 1    
    65   32   34 1    
    66   32  155 1    
    67   33  156 1    
    68   33  157 1    
    69   33  158 1    
    70   34   35 am   BACKBONE|DICT|INTERRES
    71   34  159 1    
    72   35   36 2    
    73   35   37 1    
    74   37   38 1    
    75   37   39 1    
    76   37  160 1    
    77   38  161 1    
    78   38  162 1    
    79   38  163 1    
    80   39   40 am   BACKBONE|DICT|INTERRES
    81   39  164 1    
    82   40   41 2    
    83   40   42 1    
    84   42   43 1    
    85   42   44 1    
    86   42  165 1    
    87   43  166 1    
    88   43  167 1    
    89   43  168 1    
    90   44   45 am   BACKBONE|DICT|INTERRES
    91   44  169 1    
    92   45   46 2    
    93   45   47 1    
    94   47   48 1    
    95   47   49 1    
    96   47  170 1    
    97   48  171 1    
    98   48  172 1    
    99   48  173 1    
   100   49   50 am   BACKBONE|DICT|INTERRES
   101   49  174 1    
   102   50   51 2    
   103   50   52 1    
   104   52   53 1    
   105   52   54 1    
   106   52  175 1    
   107   53  176 1    
   108   53  177 1    
   109   53  178 1    
   110   54   55 am   BACKBONE|DICT|INTERRES
   111   54  179 1    
   112   55   56 2    
   113   55   57 1    
   114   57   58 1    
   115   57   59 1    
   116   57  180 1    
   117   58  181 1    
   118   58  182 1    
   119   58  183 1    
   120   59   60 am   BACKBONE|DICT|INTERRES
   121   59  184 1    
   122   60   61 2    
   123   60   62 1    
   124   62   63 1    
   125   62   64 1    
   126   62  185 1    
   127   63  186 1    
   128   63  187 1    
   129   63  188 1    
   130   64   65 am   BACKBONE|DICT|INTERRES
   131   64  189 1    
   132   65   66 2    
   133   67   68 2    
   134   67   69 am   BACKBONE|DICT|INTERRES
   135   69   70 1    
   136   69  190 1    
   137   70   71 1    
   138   70   72 1    
   139   70  191 1    
   140   71  192 1    
   141   71  193 1    
   142   71  194 1    
   143   72   73 2    
   144   72   74 am   BACKBONE|DICT|INTERRES
   145   74   75 1    
   146   74  195 1    
   147   75   76 1    
   148   75   77 1    
   149   75  196 1    
   150   76  197 1    
   151   76  198 1    
   152   76  199 1    
   153   77   78 2    
   154   77   79 am   BACKBONE|DICT|INTERRES
   155   79   80 1    
   156   79  200 1    
   157   80   81 1    
   158   80   82 1    
   159   80  201 1    
   160   81  202 1    
   161   81  203 1    
   162   81  204 1    
   163   82   83 2    
   164   82   84 am   BACKBONE|DICT|INTERRES
   165   84   85 1    
   166   84  205 1    
   167   85   86 1    
   168   85   87 1    
   169   85  206 1    
   170   86  207 1    
   171   86  208 1    
   172   86  209 1    
   173   87   88 2    
   174   87   89 am   BACKBONE|DICT|INTERRES
   175   89   90 1    
   176   89  210 1    
   177   90   91 1    
   178   90   92 1    
   179   90  211 1    
   180   91  212 1    
   181   91  213 1    
   182   91  214 1    
   183   92   93 2    
   184   92   94 am   BACKBONE|DICT|INTERRES
   185   94   95 1    
   186   94  215 1    
   187   95   96 1    
   188   95   97 1    
   189   95  216 1    
   190   96  217 1    
   191   96  218 1    
   192   96  219 1    
   193   97   98 2    
   194   97   99 am   BACKBONE|DICT|INTERRES
   195   99  100 1    
   196   99  220 1    
   197  100  101 1    
   198  100  102 1    
   199  100  221 1    
   200  101  222 1    
   201  101  223 1    
   202  101  224 1    
   203  102  103 2    
   204  102  104 am   BACKBONE|DICT|INTERRES
   205  104  105 1    
   206  104  225 1    
   207  105  106 1    
   208  105  107 1    
   209  105  226 1    
   210  106  227 1    
   211  106  228 1    
   212  106  229 1    
   213  107  108 2    
   214  107  109 am   BACKBONE|DICT|INTERRES
   215  109  110 1    
   216  109  230 1    
   217  110  111 1    
   218  110  112 1    
   219  110  231 1    
   220  111  232 1    
   221  111  233 1    
   222  111  234 1    
   223  112  113 2    
   224  112  114 am   BACKBONE|DICT|INTERRES
   225  114  115 1    
   226  114  235 1    
   227  115  116 1    
   228  115  117 1    
   229  115  236 1    
   230  116  237 1    
   231  116  238 1    
   232  116  239 1    
   233  117  118 2    
   234  117  119 am   BACKBONE|DICT|INTERRES
   235  119  120 1    
   236  119  240 1    
   237  120  121 1    
   238  120  124 1    
   239  120  241 1    
   240  121  122 am   BACKBONE|DICT|INTERRES
   241  121  123 2    
   242  122  242 1    
   243  122  243 1    
   244  124  125 1    
   245  124  244 1    
   246  124  245 1    
   247  125  126 1    
   248  126  246 1    
   249  126  247 1    
@<TRIPOS>SUBSTRUCTURE
     1 UNK         1 GROUP             0       ****    0 ROOT    
