@<TRIPOS>MOLECULE
3R540
247   249    1
SMALL
USER_CHARGES


@<TRIPOS>ATOM
      1 CA         -0.2156  -12.8399  -53.5781 C.3       0 UNK        -0.1800 
      2 C          -0.5504  -12.3781  -52.1672 C.2       0 UNK         0.5000 
      3 O          -0.6124  -11.1747  -51.9155 O.2       0 UNK        -0.5000 
      4 N          -0.7573  -13.3306  -51.2478 N.am      1 UNK        -0.5000 
      5 CA         -1.0674  -13.0895  -49.8306 C.3       1 UNK         0.1400 
      6 C6         -0.9584  -14.3728  -48.9663 C.3       23 UNK        -0.0398 
      7 S7          0.5691  -15.3356  -49.2607 S.3       23 UNK        -0.2404 
      8 C8         -0.1089  -17.0217  -49.3171 C.3       23 UNK        -0.0205 
      9 C9          0.9268  -18.0479  -49.7511 C.ar      23 UNK        -0.0193 
     10 C10         1.0935  -18.3504  -51.1058 C.ar      23 UNK        -0.1150 
     11 C11         1.9919  -19.3430  -51.5084 C.ar      23 UNK        -0.0193 
     12 C12         2.7429  -20.0212  -50.5447 C.ar      23 UNK        -0.1150 
     13 C13         2.5939  -19.7221  -49.1877 C.ar      23 UNK        -0.0193 
     14 C14         1.6888  -18.7298  -48.7982 C.ar      23 UNK        -0.1150 
     15 C15         3.4052  -20.4794  -48.1456 C.3       23 UNK        -0.0205 
     16 S16         2.8687  -22.2132  -47.9790 S.3       23 UNK        -0.2404 
     17 C17         1.1735  -21.9982  -47.3464 C.3       23 UNK        -0.0398 
     18 CA          0.5082  -23.3374  -46.9548 C.3       11 UNK         0.1400 
     19 N           1.2444  -24.0541  -45.9075 N.am      11 UNK        -0.5000 
     20 C           1.0390  -25.3418  -45.5921 C.2       10 UNK         0.5000 
     21 O           0.2048  -26.0518  -46.1509 O.2       10 UNK        -0.5000 
     22 CA          1.8626  -25.9293  -44.4294 C.3       10 UNK         0.1400 
     23 CB          3.2032  -26.4724  -44.9452 C.3       10 UNK        -0.1800 
     24 N           2.1153  -24.9719  -43.3536 N.am      10 UNK        -0.5000 
     25 C           1.1739  -24.3263  -42.6510 C.2       9 UNK         0.5000 
     26 O          -0.0329  -24.5295  -42.7821 O.2       9 UNK        -0.5000 
     27 CA          1.6555  -23.2279  -41.6826 C.3       9 UNK         0.1400 
     28 CB          1.7081  -23.7663  -40.2456 C.3       9 UNK        -0.1800 
     29 N           2.9582  -22.6440  -42.0261 N.am      9 UNK        -0.5000 
     30 C           3.2523  -22.0330  -43.1814 C.2       8 UNK         0.5000 
     31 O           2.4602  -21.9222  -44.1198 O.2       8 UNK        -0.5000 
     32 CA          4.6628  -21.4375  -43.3015 C.3       8 UNK         0.1400 
     33 CB          5.2685  -21.6972  -44.6911 C.3       8 UNK        -0.1800 
     34 N           4.5803  -20.0005  -43.0756 N.am      8 UNK        -0.5000 
     35 C           4.5699  -19.4093  -41.8730 C.2       7 UNK         0.5000 
     36 O           4.7732  -20.0035  -40.8136 O.2       7 UNK        -0.5000 
     37 CA          4.2401  -17.9040  -41.8589 C.3       7 UNK         0.1400 
     38 CB          5.5113  -17.0658  -42.0635 C.3       7 UNK        -0.1800 
     39 N           3.2584  -17.5616  -42.8918 N.am      7 UNK        -0.5000 
     40 C           1.9588  -17.8766  -42.8183 C.2       6 UNK         0.5000 
     41 O           1.4223  -18.3627  -41.8197 O.2       6 UNK        -0.5000 
     42 CA          1.1395  -17.6786  -44.1034 C.3       6 UNK         0.1400 
     43 CB          1.0673  -18.9989  -44.8805 C.3       6 UNK        -0.1800 
     44 N          -0.2201  -17.2321  -43.8149 N.am      6 UNK        -0.5000 
     45 C          -0.5375  -15.9835  -43.4606 C.2       5 UNK         0.5000 
     46 O           0.2841  -15.0683  -43.3574 O.2       5 UNK        -0.5000 
     47 CA         -2.0228  -15.7203  -43.1547 C.3       5 UNK         0.1400 
     48 CB         -2.3076  -15.9068  -41.6566 C.3       5 UNK        -0.1800 
     49 N          -2.4037  -14.3657  -43.5491 N.am      5 UNK        -0.5000 
     50 C          -2.5666  -13.9710  -44.8167 C.2       4 UNK         0.5000 
     51 O          -2.5085  -14.7301  -45.7874 O.2       4 UNK        -0.5000 
     52 CA         -2.8016  -12.4672  -45.0359 C.3       4 UNK         0.1400 
     53 CB         -1.4959  -11.7741  -45.4548 C.3       4 UNK        -0.1800 
     54 N          -3.8168  -12.2378  -46.0609 N.am      4 UNK        -0.5000 
     55 C          -5.1333  -12.4073  -45.8638 C.2       3 UNK         0.5000 
     56 O          -5.6148  -12.7236  -44.7749 O.2       3 UNK        -0.5000 
     57 CA         -6.0821  -12.1912  -47.0577 C.3       3 UNK         0.1400 
     58 CB         -6.9870  -10.9679  -46.8324 C.3       3 UNK        -0.1800 
     59 N          -5.3598  -12.0225  -48.3165 N.am      3 UNK        -0.5000 
     60 C          -5.6888  -12.5699  -49.4888 C.2       2 UNK         0.5000 
     61 O          -6.6729  -13.2905  -49.6595 O.2       2 UNK        -0.5000 
     62 CA         -4.7665  -12.2432  -50.6785 C.3       2 UNK         0.1400 
     63 CB         -4.7793  -10.7385  -51.0119 C.3       2 UNK        -0.1800 
     64 N          -3.3929  -12.7391  -50.5380 N.am      2 UNK        -0.5000 
     65 C          -2.4499  -12.4240  -49.6361 C.2       1 UNK         0.5000 
     66 O          -2.6218  -11.6436  -48.6974 O.2       1 UNK        -0.5000 
     67 C          -0.9594  -23.1001  -46.5508 C.2       11 UNK         0.5000 
     68 O          -1.8425  -23.1622  -47.4071 O.2       11 UNK        -0.5000 
     69 N          -1.1978  -22.8472  -45.2568 N.am      12 UNK        -0.5000 
     70 CA         -2.5345  -22.7019  -44.6839 C.3       12 UNK         0.1400 
     71 CB         -2.4394  -21.9931  -43.3245 C.3       12 UNK        -0.1800 
     72 C          -3.2485  -24.0590  -44.5651 C.2       12 UNK         0.5000 
     73 O          -4.4279  -24.1507  -44.9030 O.2       12 UNK        -0.5000 
     74 N          -2.5132  -25.0969  -44.1395 N.am      13 UNK        -0.5000 
     75 CA         -2.9934  -26.4776  -44.0314 C.3       13 UNK         0.1400 
     76 CB         -1.9263  -27.3375  -43.3384 C.3       13 UNK        -0.1800 
     77 C          -3.3866  -27.0885  -45.3904 C.2       13 UNK         0.5000 
     78 O          -4.3948  -27.7906  -45.4730 O.2       13 UNK        -0.5000 
     79 N          -2.6084  -26.7782  -46.4364 N.am      14 UNK        -0.5000 
     80 CA         -2.8823  -27.1513  -47.8264 C.3       14 UNK         0.1400 
     81 CB         -1.5847  -27.0118  -48.6390 C.3       14 UNK        -0.1800 
     82 C          -4.0043  -26.3184  -48.4803 C.2       14 UNK         0.5000 
     83 O          -4.4530  -26.6757  -49.5700 O.2       14 UNK        -0.5000 
     84 N          -4.4114  -25.2177  -47.8288 N.am      15 UNK        -0.5000 
     85 CA         -5.3695  -24.2066  -48.2891 C.3       15 UNK         0.1400 
     86 CB         -6.7827  -24.8062  -48.4426 C.3       15 UNK        -0.1800 
     87 C          -4.8921  -23.4458  -49.5452 C.2       15 UNK         0.5000 
     88 O          -5.7135  -22.9611  -50.3257 O.2       15 UNK        -0.5000 
     89 N          -3.5664  -23.3395  -49.7073 N.am      16 UNK        -0.5000 
     90 CA         -2.9136  -22.5045  -50.7118 C.3       16 UNK         0.1400 
     91 CB         -1.4730  -22.9943  -50.9215 C.3       16 UNK        -0.1800 
     92 C          -2.9360  -21.0330  -50.2711 C.2       16 UNK         0.5000 
     93 O          -3.2221  -20.1519  -51.0811 O.2       16 UNK        -0.5000 
     94 N          -2.6847  -20.8043  -48.9769 N.am      17 UNK        -0.5000 
     95 CA         -2.9016  -19.5280  -48.3090 C.3       17 UNK         0.1400 
     96 CB         -1.9277  -19.4240  -47.1278 C.3       17 UNK        -0.1800 
     97 C          -4.3625  -19.4495  -47.8161 C.2       17 UNK         0.5000 
     98 O          -4.9266  -20.4846  -47.4597 O.2       17 UNK        -0.5000 
     99 N          -4.9870  -18.2657  -47.7489 N.am      18 UNK        -0.5000 
    100 CA        -4.4769  -16.9524  -48.1581 C.3       18 UNK         0.1400 
    101 CB        -5.1968  -15.8761  -47.3333 C.3       18 UNK        -0.1800 
    102 C         -4.6606  -16.6680  -49.6636 C.2       18 UNK         0.5000 
    103 O         -4.1362  -15.6642  -50.1411 O.2       18 UNK        -0.5000 
    104 N         -5.3981  -17.5376  -50.3729 N.am      19 UNK        -0.5000 
    105 CA        -5.8022  -17.3973  -51.7783 C.3       19 UNK         0.1400 
    106 CB        -6.5781  -18.6542  -52.2020 C.3       19 UNK        -0.1800 
    107 C         -4.6494  -17.1233  -52.7636 C.2       19 UNK         0.5000 
    108 O         -4.8152  -16.3155  -53.6784 O.2       19 UNK        -0.5000 
    109 N         -3.5048  -17.7794  -52.5309 N.am      20 UNK        -0.5000 
    110 CA        -2.2259  -17.6052  -53.2174 C.3       20 UNK         0.1400 
    111 CB        -1.6588  -16.1939  -52.9643 C.3       20 UNK        -0.1800 
    112 C         -2.2767  -17.9772  -54.7102 C.2       20 UNK         0.5000 
    113 O         -1.6629  -17.3021  -55.5385 O.2       20 UNK        -0.5000 
    114 N         -2.9688  -19.0821  -55.0260 N.am      21 UNK        -0.5000 
    115 CA        -3.0527  -19.6668  -56.3721 C.3       21 UNK         0.1400 
    116 CB        -4.0224  -20.8576  -56.3390 C.3       21 UNK        -0.1800 
    117 C         -1.6821  -20.0956  -56.9418 C.2       21 UNK         0.5000 
    118 O         -1.4930  -20.0983  -58.1584 O.2       21 UNK        -0.5000 
    119 N         -0.7487  -20.4110  -56.0380 N.am      22 UNK        -0.5000 
    120 CA         0.6848  -20.6157  -56.2828 C.3       22 UNK         0.1400 
    121 C          1.4931  -19.3264  -56.6233 C.2       22 UNK         0.5000 
    122 N          0.9380  -18.1244  -56.5214 N.am      22 UNK        -0.7600 
    123 O          2.6571  -19.4211  -57.0026 O.2       22 UNK        -0.5000 
    124 C124        1.3421  -21.4130  -55.1215 C.3       23 UNK        -0.0398 
    125 S125        0.8221  -20.8865  -53.4469 S.3       23 UNK        -0.2404 
    126 C126        2.1251  -19.7104  -52.9778 C.3       23 UNK        -0.0205 
    127 H127        0.5295  -12.1815  -54.0252 H         1 UNK         0.0600 
    128 H128       -1.1090  -12.8198  -54.2023 H         1 UNK         0.0600 
    129 H129        0.1879  -13.8522  -53.5841 H         1 UNK         0.0600 
    130 H130       -0.6502  -14.2996  -51.5081 H         1 UNK         0.3000 
    131 H131       -0.3219  -12.3828  -49.4597 H         1 UNK         0.0600 
    132 H132       -0.9870  -14.1125  -47.9076 H         1 UNK         0.0800 
    133 H133       -1.8213  -15.0168  -49.1353 H         1 UNK         0.0800 
    134 H134       -0.9627  -17.0609  -49.9939 H         1 UNK         0.0800 
    135 H135       -0.4913  -17.2702  -48.3273 H         1 UNK         0.0800 
    136 H136        0.5112  -17.8265  -51.8480 H         1 UNK         0.1150 
    137 H137        3.4312  -20.7980  -50.8472 H         1 UNK         0.1150 
    138 H138        1.5694  -18.4923  -47.7525 H         1 UNK         0.1150 
    139 H139        3.3445  -19.9878  -47.1741 H         1 UNK         0.0800 
    140 H140        4.4579  -20.4625  -48.4307 H         1 UNK         0.0800 
    141 H141        0.5898  -21.4983  -48.1220 H         1 UNK         0.0800 
    142 H142        1.2039  -21.3217  -46.4921 H         1 UNK         0.0800 
    143 H143        0.4932  -23.9726  -47.8434 H         1 UNK         0.0600 
    144 H144        1.9123  -23.5071  -45.3754 H         1 UNK         0.3000 
    145 H145        1.2964  -26.7607  -44.0063 H         1 UNK         0.0600 
    146 H146        3.0479  -27.2075  -45.7361 H         1 UNK         0.0600 
    147 H147        3.7619  -26.9660  -44.1499 H         1 UNK         0.0600 
    148 H148        3.8291  -25.6777  -45.3537 H         1 UNK         0.0600 
    149 H149        3.0801  -24.7368  -43.1757 H         1 UNK         0.3000 
    150 H150        0.9180  -22.4233  -41.7198 H         1 UNK         0.0600 
    151 H151        1.9489  -22.9746  -39.5359 H         1 UNK         0.0600 
    152 H152        0.7450  -24.1841  -39.9489 H         1 UNK         0.0600 
    153 H153        2.4550  -24.5539  -40.1384 H         1 UNK         0.0600 
    154 H154        3.6590  -22.6606  -41.2985 H         1 UNK         0.3000 
    155 H155        5.3158  -21.8964  -42.5560 H         1 UNK         0.0600 
    156 H156        4.6828  -21.2320  -45.4841 H         1 UNK         0.0600 
    157 H157        5.3145  -22.7661  -44.9033 H         1 UNK         0.0600 
    158 H158        6.2847  -21.3081  -44.7557 H         1 UNK         0.0600 
    159 H159        4.3721  -19.4368  -43.8853 H         1 UNK         0.3000 
    160 H160        3.8227  -17.6586  -40.8799 H         1 UNK         0.0600 
    161 H161        5.9739  -17.2605  -43.0318 H         1 UNK         0.0600 
    162 H162        6.2524  -17.2891  -41.2949 H         1 UNK         0.0600 
    163 H163        5.2937  -15.9992  -42.0033 H         1 UNK         0.0600 
    164 H164        3.6187  -17.1405  -43.7361 H         1 UNK         0.3000 
    165 H165        1.6286  -16.9315  -44.7328 H         1 UNK         0.0600 
    166 H166        2.0634  -19.3461  -45.1561 H         1 UNK         0.0600 
    167 H167        0.5946  -19.7897  -44.2960 H         1 UNK         0.0600 
    168 H168        0.4983  -18.8765  -45.7977 H         1 UNK         0.0600 
    169 H169       -0.9366  -17.9421  -43.8213 H         1 UNK         0.3000 
    170 H170       -2.6333  -16.4312  -43.7163 H         1 UNK         0.0600 
    171 H171       -1.7277  -15.2128  -41.0466 H         1 UNK         0.0600 
    172 H172       -2.0536  -16.9173  -41.3336 H         1 UNK         0.0600 
    173 H173       -3.3631  -15.7504  -41.4328 H         1 UNK         0.0600 
    174 H174       -2.4260  -13.6758  -42.8126 H         1 UNK         0.3000 
    175 H175       -3.1419  -12.0172  -44.1006 H         1 UNK         0.0600 
    176 H176       -1.6445  -10.7030  -45.5933 H         1 UNK         0.0600 
    177 H177       -0.7254  -11.9011  -44.6933 H         1 UNK         0.0600 
    178 H178       -1.1036  -12.1801  -46.3874 H         1 UNK         0.0600 
    179 H179       -3.4636  -12.0323  -46.9883 H         1 UNK         0.3000 
    180 H180       -6.7117  -13.0817  -47.1109 H         1 UNK         0.0600 
    181 H181       -6.4064  -10.0469  -46.7691 H         1 UNK         0.0600 
    182 H182       -7.5559  -11.0639  -45.9068 H         1 UNK         0.0600 
    183 H183       -7.7061  -10.8558  -47.6440 H         1 UNK         0.0600 
    184 H184       -4.5014  -11.4824  -48.2887 H         1 UNK         0.3000 
    185 H185       -5.1788  -12.7688  -51.5414 H         1 UNK         0.0600 
    186 H186       -5.7983  -10.3833  -51.1705 H         1 UNK         0.0600 
    187 H187       -4.3438  -10.1354  -50.2149 H         1 UNK         0.0600 
    188 H188       -4.2187  -10.5359  -51.9246 H         1 UNK         0.0600 
    189 H189       -3.1441  -13.4514  -51.2098 H         1 UNK         0.3000 
    190 H190       -0.4219  -22.8525  -44.6101 H         1 UNK         0.3000 
    191 H191       -3.1327  -22.0741  -45.3480 H         1 UNK         0.0600 
    192 H192       -1.9726  -21.0130  -43.4239 H         1 UNK         0.0600 
    193 H193       -3.4309  -21.8394  -42.8970 H         1 UNK         0.0600 
    194 H194       -1.8585  -22.5691  -42.6040 H         1 UNK         0.0600 
    195 H195       -1.5621  -24.9218  -43.8255 H         1 UNK         0.3000 
    196 H196       -3.8848  -26.4687  -43.4010 H         1 UNK         0.0600 
    197 H197       -1.0119  -27.3937  -43.9284 H         1 UNK         0.0600 
    198 H198       -2.2836  -28.3571  -43.1894 H         1 UNK         0.0600 
    199 H199       -1.6691  -26.9353  -42.3583 H         1 UNK         0.0600 
    200 H200       -1.7470  -26.2657  -46.2709 H         1 UNK         0.3000 
    201 H201       -3.1922  -28.1980  -47.8519 H         1 UNK         0.0600 
    202 H202       -1.7351  -27.3101  -49.6773 H         1 UNK         0.0600 
    203 H203       -0.7951  -27.6440  -48.2326 H         1 UNK         0.0600 
    204 H204       -1.2226  -25.9827  -48.6420 H         1 UNK         0.0600 
    205 H205       -3.9921  -25.0253  -46.9283 H         1 UNK         0.3000 
    206 H206       -5.4172  -23.4601  -47.4949 H         1 UNK         0.0600 
    207 H207       -6.8397  -25.5063  -49.2763 H         1 UNK         0.0600 
    208 H208       -7.0864  -25.3337  -47.5383 H         1 UNK         0.0600 
    209 H209       -7.5206  -24.0238  -48.6235 H         1 UNK         0.0600 
    210 H210       -2.9706  -23.7044  -48.9723 H         1 UNK         0.3000 
    211 H211       -3.4511  -22.5910  -51.6584 H         1 UNK         0.0600 
    212 H212       -0.9758  -22.4086  -51.6938 H         1 UNK         0.0600 
    213 H213       -1.4534  -24.0365  -51.2404 H         1 UNK         0.0600 
    214 H214       -0.8757  -22.9108  -50.0130 H         1 UNK         0.0600 
    215 H215       -2.5175  -21.6045  -48.3757 H         1 UNK         0.3000 
    216 H216       -2.6836  -18.7284  -49.0168 H         1 UNK         0.0600 
    217 H217       -2.1343  -20.1714  -46.3626 H         1 UNK         0.0600 
    218 H218       -0.9024  -19.5685  -47.4647 H         1 UNK         0.0600 
    219 H219       -1.9860  -18.4448  -46.6514 H         1 UNK         0.0600 
    220 H220       -5.9319  -18.2605  -47.3937 H         1 UNK         0.3000 
    221 H221       -3.4134  -16.8744  -47.9273 H         1 UNK         0.0600 
    222 H222       -6.2671  -15.8499  -47.5415 H         1 UNK         0.0600 
    223 H223       -5.0620  -16.0382  -46.2636 H         1 UNK         0.0600 
    224 H224       -4.7927  -14.8895  -47.5601 H         1 UNK         0.0600 
    225 H225       -5.7756  -18.3362  -49.8850 H         1 UNK         0.3000 
    226 H226       -6.4803  -16.5432  -51.8306 H         1 UNK         0.0600 
    227 H227       -7.4716  -18.7914  -51.5928 H         1 UNK         0.0600 
    228 H228       -6.9029  -18.5832  -53.2410 H         1 UNK         0.0600 
    229 H229       -5.9672  -19.5535  -52.1092 H         1 UNK         0.0600 
    230 H230       -3.5069  -18.4988  -51.8098 H         1 UNK         0.3000 
    231 H231       -1.5478  -18.3234  -52.7559 H         1 UNK         0.0600 
    232 H232       -2.2273  -15.4283  -53.4934 H         1 UNK         0.0600 
    233 H233       -0.6239  -16.1266  -53.3006 H         1 UNK         0.0600 
    234 H234       -1.6800  -15.9490  -51.9040 H         1 UNK         0.0600 
    235 H235       -3.4488  -19.5731  -54.2854 H         1 UNK         0.3000 
    236 H236       -3.4621  -18.9066  -57.0404 H         1 UNK         0.0600 
    237 H237       -3.6751  -21.6406  -55.6637 H         1 UNK         0.0600 
    238 H238       -5.0161  -20.5489  -56.0137 H         1 UNK         0.0600 
    239 H239       -4.1294  -21.3017  -57.3296 H         1 UNK         0.0600 
    240 H240       -1.0082  -20.3877  -55.0629 H         1 UNK         0.3000 
    241 H241        0.7640  -21.2356  -57.1778 H         1 UNK         0.0600 
    242 H242        1.4871  -17.3141  -56.7590 H         1 UNK         0.3800 
    243 H243       -0.0231  -17.9970  -56.2195 H         1 UNK         0.3800 
    244 H244        2.4312  -21.4146  -55.1924 H         1 UNK         0.0800 
    245 H245        1.0533  -22.4604  -55.2176 H         1 UNK         0.0800 
    246 H246        2.0535  -18.8153  -53.5975 H         1 UNK         0.0800 
    247 H247        3.1056  -20.1485  -53.1703 H         1 UNK         0.0800 
@<TRIPOS>BOND
     1    1    2 1    
     2    1  127 1    
     3    1  128 1    
     4    1  129 1    
     5    2    3 2    
     6    2    4 am   BACKBONE|DICT|INTERRES
     7    4    5 1    
     8    4  130 1    
     9    5    6 1    
    10    5   65 1    
    11    5  131 1    
    12    6    7 1    
    13    6  132 1    
    14    6  133 1    
    15    7    8 1    
    16    8    9 1    
    17    8  134 1    
    18    8  135 1    
    19    9   10 ar   
    20    9   14 ar   
    21   10   11 ar   
    22   10  136 1    
    23   11   12 ar   
    24   11  126 1    
    25   12   13 ar   
    26   12  137 1    
    27   13   14 ar   
    28   13   15 1    
    29   14  138 1    
    30   15   16 1    
    31   15  139 1    
    32   15  140 1    
    33   16   17 1    
    34   17   18 1    
    35   17  141 1    
    36   17  142 1    
    37   18   19 1    
    38   18   67 1    
    39   18  143 1    
    40   19   20 am   BACKBONE|DICT|INTERRES
    41   19  144 1    
    42   20   21 2    
    43   20   22 1    
    44   22   23 1    
    45   22   24 1    
    46   22  145 1    
    47   23  146 1    
    48   23  147 1    
    49   23  148 1    
    50   24   25 am   BACKBONE|DICT|INTERRES
    51   24  149 1    
    52   25   26 2    
    53   25   27 1    
    54   27   28 1    
    55   27   29 1    
    56   27  150 1    
    57   28  151 1    
    58   28  152 1    
    59   28  153 1    
    60   29   30 am   BACKBONE|DICT|INTERRES
    61   29  154 1    
    62   30   31 2    
    63   30   32 1    
    64   32   33 1    
    65   32   34 1    
    66   32  155 1    
    67   33  156 1    
    68   33  157 1    
    69   33  158 1    
    70   34   35 am   BACKBONE|DICT|INTERRES
    71   34  159 1    
    72   35   36 2    
    73   35   37 1    
    74   37   38 1    
    75   37   39 1    
    76   37  160 1    
    77   38  161 1    
    78   38  162 1    
    79   38  163 1    
    80   39   40 am   BACKBONE|DICT|INTERRES
    81   39  164 1    
    82   40   41 2    
    83   40   42 1    
    84   42   43 1    
    85   42   44 1    
    86   42  165 1    
    87   43  166 1    
    88   43  167 1    
    89   43  168 1    
    90   44   45 am   BACKBONE|DICT|INTERRES
    91   44  169 1    
    92   45   46 2    
    93   45   47 1    
    94   47   48 1    
    95   47   49 1    
    96   47  170 1    
    97   48  171 1    
    98   48  172 1    
    99   48  173 1    
   100   49   50 am   BACKBONE|DICT|INTERRES
   101   49  174 1    
   102   50   51 2    
   103   50   52 1    
   104   52   53 1    
   105   52   54 1    
   106   52  175 1    
   107   53  176 1    
   108   53  177 1    
   109   53  178 1    
   110   54   55 am   BACKBONE|DICT|INTERRES
   111   54  179 1    
   112   55   56 2    
   113   55   57 1    
   114   57   58 1    
   115   57   59 1    
   116   57  180 1    
   117   58  181 1    
   118   58  182 1    
   119   58  183 1    
   120   59   60 am   BACKBONE|DICT|INTERRES
   121   59  184 1    
   122   60   61 2    
   123   60   62 1    
   124   62   63 1    
   125   62   64 1    
   126   62  185 1    
   127   63  186 1    
   128   63  187 1    
   129   63  188 1    
   130   64   65 am   BACKBONE|DICT|INTERRES
   131   64  189 1    
   132   65   66 2    
   133   67   68 2    
   134   67   69 am   BACKBONE|DICT|INTERRES
   135   69   70 1    
   136   69  190 1    
   137   70   71 1    
   138   70   72 1    
   139   70  191 1    
   140   71  192 1    
   141   71  193 1    
   142   71  194 1    
   143   72   73 2    
   144   72   74 am   BACKBONE|DICT|INTERRES
   145   74   75 1    
   146   74  195 1    
   147   75   76 1    
   148   75   77 1    
   149   75  196 1    
   150   76  197 1    
   151   76  198 1    
   152   76  199 1    
   153   77   78 2    
   154   77   79 am   BACKBONE|DICT|INTERRES
   155   79   80 1    
   156   79  200 1    
   157   80   81 1    
   158   80   82 1    
   159   80  201 1    
   160   81  202 1    
   161   81  203 1    
   162   81  204 1    
   163   82   83 2    
   164   82   84 am   BACKBONE|DICT|INTERRES
   165   84   85 1    
   166   84  205 1    
   167   85   86 1    
   168   85   87 1    
   169   85  206 1    
   170   86  207 1    
   171   86  208 1    
   172   86  209 1    
   173   87   88 2    
   174   87   89 am   BACKBONE|DICT|INTERRES
   175   89   90 1    
   176   89  210 1    
   177   90   91 1    
   178   90   92 1    
   179   90  211 1    
   180   91  212 1    
   181   91  213 1    
   182   91  214 1    
   183   92   93 2    
   184   92   94 am   BACKBONE|DICT|INTERRES
   185   94   95 1    
   186   94  215 1    
   187   95   96 1    
   188   95   97 1    
   189   95  216 1    
   190   96  217 1    
   191   96  218 1    
   192   96  219 1    
   193   97   98 2    
   194   97   99 am   BACKBONE|DICT|INTERRES
   195   99  100 1    
   196   99  220 1    
   197  100  101 1    
   198  100  102 1    
   199  100  221 1    
   200  101  222 1    
   201  101  223 1    
   202  101  224 1    
   203  102  103 2    
   204  102  104 am   BACKBONE|DICT|INTERRES
   205  104  105 1    
   206  104  225 1    
   207  105  106 1    
   208  105  107 1    
   209  105  226 1    
   210  106  227 1    
   211  106  228 1    
   212  106  229 1    
   213  107  108 2    
   214  107  109 am   BACKBONE|DICT|INTERRES
   215  109  110 1    
   216  109  230 1    
   217  110  111 1    
   218  110  112 1    
   219  110  231 1    
   220  111  232 1    
   221  111  233 1    
   222  111  234 1    
   223  112  113 2    
   224  112  114 am   BACKBONE|DICT|INTERRES
   225  114  115 1    
   226  114  235 1    
   227  115  116 1    
   228  115  117 1    
   229  115  236 1    
   230  116  237 1    
   231  116  238 1    
   232  116  239 1    
   233  117  118 2    
   234  117  119 am   BACKBONE|DICT|INTERRES
   235  119  120 1    
   236  119  240 1    
   237  120  121 1    
   238  120  124 1    
   239  120  241 1    
   240  121  122 am   BACKBONE|DICT|INTERRES
   241  121  123 2    
   242  122  242 1    
   243  122  243 1    
   244  124  125 1    
   245  124  244 1    
   246  124  245 1    
   247  125  126 1    
   248  126  246 1    
   249  126  247 1    
@<TRIPOS>SUBSTRUCTURE
     1 UNK         1 GROUP             0       ****    0 ROOT    
